MODEL 1
REMARK VINA RESULT:      -4.8      0.000      0.000
REMARK  3 active torsions:
REMARK  status: ('A' for Active; 'I' for Inactive)
REMARK    1  A    between atoms: C_2  and  N_3 
REMARK    2  A    between atoms: C_2  and  C_7 
REMARK       I    between atoms: N_3  and  C_4 
REMARK       I    between atoms: C_4  and  N_5 
REMARK    3  A    between atoms: C_7  and  O_8 
ROOT
HETATM    1  N   UNK N   1      19.400  18.085   1.482  0.00  0.00    -0.329 N 
HETATM    2  C   UNK N   1      19.457  17.262   0.405  0.00  0.00     0.314 C 
HETATM    3  N   UNK N   1      18.352  16.582   0.041  0.00  0.00    -0.352 N 
HETATM    4  O   UNK N   1      20.485  17.125  -0.235  0.00  0.00    -0.248 OA
HETATM    5  H   UNK N   1      18.535  18.144   1.949  0.00  0.00     0.165 HD
HETATM    6  H   UNK N   1      18.379  15.981  -0.738  0.00  0.00     0.160 HD
HETATM    7  H   UNK N   1      17.518  16.688   0.553  0.00  0.00     0.160 HD
ENDROOT
BRANCH   1   8
HETATM    8  C   UNK N   1      20.487  18.889   2.014  0.00  0.00     0.180 C 
HETATM    9  C   UNK N   1      21.295  18.447   3.228  0.00  0.00     0.043 C 
BRANCH   8  10
HETATM   10  C   UNK N   1      20.767  20.175   1.299  0.00  0.00     0.163 C 
HETATM   11  O   UNK N   1      21.175  21.142   1.921  0.00  0.00    -0.648 OA
BRANCH  10  12
HETATM   12  O   UNK N   1      20.570  20.272  -0.029  0.00  0.00    -0.775 OA
HETATM   13  H   UNK N   1      20.431  21.111  -0.422  0.00  0.00     0.167 HD
ENDBRANCH  10  12
ENDBRANCH   8  10
ENDBRANCH   1   8
TORSDOF 3
ENDMDL
MODEL 2
REMARK VINA RESULT:      -4.7     15.936     16.990
REMARK  3 active torsions:
REMARK  status: ('A' for Active; 'I' for Inactive)
REMARK    1  A    between atoms: C_2  and  N_3 
REMARK    2  A    between atoms: C_2  and  C_7 
REMARK       I    between atoms: N_3  and  C_4 
REMARK       I    between atoms: C_4  and  N_5 
REMARK    3  A    between atoms: C_7  and  O_8 
ROOT
HETATM    1  N   UNK N   1      34.699  16.972  10.210  0.00  0.00    -0.329 N 
HETATM    2  C   UNK N   1      35.611  15.982  10.374  0.00  0.00     0.314 C 
HETATM    3  N   UNK N   1      36.210  15.835  11.573  0.00  0.00    -0.352 N 
HETATM    4  O   UNK N   1      35.898  15.227   9.462  0.00  0.00    -0.248 OA
HETATM    5  H   UNK N   1      34.519  17.543  10.992  0.00  0.00     0.165 HD
HETATM    6  H   UNK N   1      36.874  15.121  11.707  0.00  0.00     0.160 HD
HETATM    7  H   UNK N   1      35.983  16.442  12.314  0.00  0.00     0.160 HD
ENDROOT
BRANCH   1   8
HETATM    8  C   UNK N   1      33.961  17.274   8.996  0.00  0.00     0.180 C 
HETATM    9  C   UNK N   1      32.623  16.615   8.681  0.00  0.00     0.043 C 
BRANCH   8  10
HETATM   10  C   UNK N   1      34.591  18.271   8.072  0.00  0.00     0.163 C 
HETATM   11  O   UNK N   1      34.438  18.167   6.866  0.00  0.00    -0.648 OA
BRANCH  10  12
HETATM   12  O   UNK N   1      35.329  19.284   8.565  0.00  0.00    -0.775 OA
HETATM   13  H   UNK N   1      36.229  19.145   8.783  0.00  0.00     0.167 HD
ENDBRANCH  10  12
ENDBRANCH   8  10
ENDBRANCH   1   8
TORSDOF 3
ENDMDL
MODEL 3
REMARK VINA RESULT:      -4.3     14.876     15.721
REMARK  3 active torsions:
REMARK  status: ('A' for Active; 'I' for Inactive)
REMARK    1  A    between atoms: C_2  and  N_3 
REMARK    2  A    between atoms: C_2  and  C_7 
REMARK       I    between atoms: N_3  and  C_4 
REMARK       I    between atoms: C_4  and  N_5 
REMARK    3  A    between atoms: C_7  and  O_8 
ROOT
HETATM    1  N   UNK N   1      33.559  16.613   9.669  0.00  0.00    -0.329 N 
HETATM    2  C   UNK N   1      33.485  15.262   9.572  0.00  0.00     0.314 C 
HETATM    3  N   UNK N   1      33.864  14.508  10.623  0.00  0.00    -0.352 N 
HETATM    4  O   UNK N   1      33.083  14.720   8.557  0.00  0.00    -0.248 OA
HETATM    5  H   UNK N   1      33.893  16.978  10.520  0.00  0.00     0.165 HD
HETATM    6  H   UNK N   1      33.815  13.526  10.567  0.00  0.00     0.160 HD
HETATM    7  H   UNK N   1      34.188  14.939  11.446  0.00  0.00     0.160 HD
ENDROOT
BRANCH   1   8
HETATM    8  C   UNK N   1      33.195  17.574   8.642  0.00  0.00     0.180 C 
HETATM    9  C   UNK N   1      31.743  17.949   8.368  0.00  0.00     0.043 C 
BRANCH   8  10
HETATM   10  C   UNK N   1      34.329  18.174   7.870  0.00  0.00     0.163 C 
HETATM   11  O   UNK N   1      34.574  17.780   6.741  0.00  0.00    -0.648 OA
BRANCH  10  12
HETATM   12  O   UNK N   1      35.081  19.150   8.413  0.00  0.00    -0.775 OA
HETATM   13  H   UNK N   1      35.716  19.598   7.890  0.00  0.00     0.167 HD
ENDBRANCH  10  12
ENDBRANCH   8  10
ENDBRANCH   1   8
TORSDOF 3
ENDMDL
MODEL 4
REMARK VINA RESULT:      -4.3     11.405     11.978
REMARK  3 active torsions:
REMARK  status: ('A' for Active; 'I' for Inactive)
REMARK    1  A    between atoms: C_2  and  N_3 
REMARK    2  A    between atoms: C_2  and  C_7 
REMARK       I    between atoms: N_3  and  C_4 
REMARK       I    between atoms: C_4  and  N_5 
REMARK    3  A    between atoms: C_7  and  O_8 
ROOT
HETATM    1  N   UNK N   1      22.489  11.476  10.794  0.00  0.00    -0.329 N 
HETATM    2  C   UNK N   1      21.388  12.246  10.979  0.00  0.00     0.314 C 
HETATM    3  N   UNK N   1      20.475  11.875  11.899  0.00  0.00    -0.352 N 
HETATM    4  O   UNK N   1      21.210  13.264  10.332  0.00  0.00    -0.248 OA
HETATM    5  H   UNK N   1      22.565  10.670  11.354  0.00  0.00     0.165 HD
HETATM    6  H   UNK N   1      19.671  12.424  12.043  0.00  0.00     0.160 HD
HETATM    7  H   UNK N   1      20.613  11.054  12.425  0.00  0.00     0.160 HD
ENDROOT
BRANCH   1   8
HETATM    8  C   UNK N   1      23.569  11.723   9.854  0.00  0.00     0.180 C 
HETATM    9  C   UNK N   1      23.553  11.149   8.442  0.00  0.00     0.043 C 
BRANCH   8  10
HETATM   10  C   UNK N   1      24.696  12.574  10.352  0.00  0.00     0.163 C 
HETATM   11  O   UNK N   1      25.202  13.407   9.617  0.00  0.00    -0.648 OA
BRANCH  10  12
HETATM   12  O   UNK N   1      25.156  12.426  11.608  0.00  0.00    -0.775 OA
HETATM   13  H   UNK N   1      26.056  12.600  11.801  0.00  0.00     0.167 HD
ENDBRANCH  10  12
ENDBRANCH   8  10
ENDBRANCH   1   8
TORSDOF 3
ENDMDL
MODEL 5
REMARK VINA RESULT:      -4.3     13.829     14.805
REMARK  3 active torsions:
REMARK  status: ('A' for Active; 'I' for Inactive)
REMARK    1  A    between atoms: C_2  and  N_3 
REMARK    2  A    between atoms: C_2  and  C_7 
REMARK       I    between atoms: N_3  and  C_4 
REMARK       I    between atoms: C_4  and  N_5 
REMARK    3  A    between atoms: C_7  and  O_8 
ROOT
HETATM    1  N   UNK N   1      32.314  17.475   8.963  0.00  0.00    -0.329 N 
HETATM    2  C   UNK N   1      31.408  17.153   8.006  0.00  0.00     0.314 C 
HETATM    3  N   UNK N   1      30.100  17.376   8.241  0.00  0.00    -0.352 N 
HETATM    4  O   UNK N   1      31.754  16.668   6.943  0.00  0.00    -0.248 OA
HETATM    5  H   UNK N   1      31.960  17.863   9.796  0.00  0.00     0.165 HD
HETATM    6  H   UNK N   1      29.431  17.147   7.556  0.00  0.00     0.160 HD
HETATM    7  H   UNK N   1      29.814  17.767   9.098  0.00  0.00     0.160 HD
ENDROOT
BRANCH   1   8
HETATM    8  C   UNK N   1      33.755  17.305   8.881  0.00  0.00     0.180 C 
HETATM    9  C   UNK N   1      34.484  16.229   9.676  0.00  0.00     0.043 C 
BRANCH   8  10
HETATM   10  C   UNK N   1      34.479  18.247   7.970  0.00  0.00     0.163 C 
HETATM   11  O   UNK N   1      35.096  19.192   8.435  0.00  0.00    -0.648 OA
BRANCH  10  12
HETATM   12  O   UNK N   1      34.454  18.059   6.637  0.00  0.00    -0.775 OA
HETATM   13  H   UNK N   1      34.426  17.191   6.286  0.00  0.00     0.167 HD
ENDBRANCH  10  12
ENDBRANCH   8  10
ENDBRANCH   1   8
TORSDOF 3
ENDMDL
MODEL 6
REMARK VINA RESULT:      -4.2     18.386     19.321
REMARK  3 active torsions:
REMARK  status: ('A' for Active; 'I' for Inactive)
REMARK    1  A    between atoms: C_2  and  N_3 
REMARK    2  A    between atoms: C_2  and  C_7 
REMARK       I    between atoms: N_3  and  C_4 
REMARK       I    between atoms: C_4  and  N_5 
REMARK    3  A    between atoms: C_7  and  O_8 
ROOT
HETATM    1  N   UNK N   1      34.692  15.105  11.169  0.00  0.00    -0.329 N 
HETATM    2  C   UNK N   1      35.387  16.183  10.729  0.00  0.00     0.314 C 
HETATM    3  N   UNK N   1      34.716  17.220  10.189  0.00  0.00    -0.352 N 
HETATM    4  O   UNK N   1      36.602  16.232  10.814  0.00  0.00    -0.248 OA
HETATM    5  H   UNK N   1      33.713  15.138  11.068  0.00  0.00     0.165 HD
HETATM    6  H   UNK N   1      35.208  18.009   9.866  0.00  0.00     0.160 HD
HETATM    7  H   UNK N   1      33.735  17.187  10.118  0.00  0.00     0.160 HD
ENDROOT
BRANCH   1   8
HETATM    8  C   UNK N   1      35.248  13.907  11.774  0.00  0.00     0.180 C 
HETATM    9  C   UNK N   1      35.400  12.607  10.993  0.00  0.00     0.043 C 
BRANCH   8  10
HETATM   10  C   UNK N   1      35.661  14.024  13.209  0.00  0.00     0.163 C 
HETATM   11  O   UNK N   1      34.966  13.535  14.085  0.00  0.00    -0.648 OA
BRANCH  10  12
HETATM   12  O   UNK N   1      36.796  14.667  13.540  0.00  0.00    -0.775 OA
HETATM   13  H   UNK N   1      36.773  15.371  14.158  0.00  0.00     0.167 HD
ENDBRANCH  10  12
ENDBRANCH   8  10
ENDBRANCH   1   8
TORSDOF 3
ENDMDL
MODEL 7
REMARK VINA RESULT:      -4.2     24.485     25.357
REMARK  3 active torsions:
REMARK  status: ('A' for Active; 'I' for Inactive)
REMARK    1  A    between atoms: C_2  and  N_3 
REMARK    2  A    between atoms: C_2  and  C_7 
REMARK       I    between atoms: N_3  and  C_4 
REMARK       I    between atoms: C_4  and  N_5 
REMARK    3  A    between atoms: C_7  and  O_8 
ROOT
HETATM    1  N   UNK N   1      45.459  23.780   1.922  0.00  0.00    -0.329 N 
HETATM    2  C   UNK N   1      45.981  25.000   2.206  0.00  0.00     0.314 C 
HETATM    3  N   UNK N   1      47.274  25.244   1.912  0.00  0.00    -0.352 N 
HETATM    4  O   UNK N   1      45.306  25.874   2.720  0.00  0.00    -0.248 OA
HETATM    5  H   UNK N   1      46.066  23.125   1.508  0.00  0.00     0.165 HD
HETATM    6  H   UNK N   1      47.666  26.125   2.113  0.00  0.00     0.160 HD
HETATM    7  H   UNK N   1      47.825  24.542   1.497  0.00  0.00     0.160 HD
ENDROOT
BRANCH   1   8
HETATM    8  C   UNK N   1      44.095  23.345   2.169  0.00  0.00     0.180 C 
HETATM    9  C   UNK N   1      43.084  23.189   1.040  0.00  0.00     0.043 C 
BRANCH   8  10
HETATM   10  C   UNK N   1      43.742  23.060   3.596  0.00  0.00     0.163 C 
HETATM   11  O   UNK N   1      43.665  21.906   3.986  0.00  0.00    -0.648 OA
BRANCH  10  12
HETATM   12  O   UNK N   1      43.509  24.070   4.455  0.00  0.00    -0.775 OA
HETATM   13  H   UNK N   1      43.666  24.955   4.191  0.00  0.00     0.167 HD
ENDBRANCH  10  12
ENDBRANCH   8  10
ENDBRANCH   1   8
TORSDOF 3
ENDMDL
MODEL 8
REMARK VINA RESULT:      -4.1     17.883     18.945
REMARK  3 active torsions:
REMARK  status: ('A' for Active; 'I' for Inactive)
REMARK    1  A    between atoms: C_2  and  N_3 
REMARK    2  A    between atoms: C_2  and  C_7 
REMARK       I    between atoms: N_3  and  C_4 
REMARK       I    between atoms: C_4  and  N_5 
REMARK    3  A    between atoms: C_7  and  O_8 
ROOT
HETATM    1  N   UNK N   1      36.592  15.261  11.659  0.00  0.00    -0.329 N 
HETATM    2  C   UNK N   1      36.042  14.619  12.720  0.00  0.00     0.314 C 
HETATM    3  N   UNK N   1      36.727  14.563  13.879  0.00  0.00    -0.352 N 
HETATM    4  O   UNK N   1      34.944  14.095  12.644  0.00  0.00    -0.248 OA
HETATM    5  H   UNK N   1      37.482  15.659  11.796  0.00  0.00     0.165 HD
HETATM    6  H   UNK N   1      36.339  14.100  14.658  0.00  0.00     0.160 HD
HETATM    7  H   UNK N   1      37.614  14.984  13.947  0.00  0.00     0.160 HD
ENDROOT
BRANCH   1   8
HETATM    8  C   UNK N   1      36.000  15.418  10.342  0.00  0.00     0.180 C 
HETATM    9  C   UNK N   1      36.258  14.421   9.219  0.00  0.00     0.043 C 
BRANCH   8  10
HETATM   10  C   UNK N   1      35.121  16.616  10.154  0.00  0.00     0.163 C 
HETATM   11  O   UNK N   1      35.600  17.738  10.205  0.00  0.00    -0.648 OA
BRANCH  10  12
HETATM   12  O   UNK N   1      33.803  16.465   9.927  0.00  0.00    -0.775 OA
HETATM   13  H   UNK N   1      33.479  15.667   9.557  0.00  0.00     0.167 HD
ENDBRANCH  10  12
ENDBRANCH   8  10
ENDBRANCH   1   8
TORSDOF 3
ENDMDL
MODEL 9
REMARK VINA RESULT:      -4.0     10.768     11.728
REMARK  3 active torsions:
REMARK  status: ('A' for Active; 'I' for Inactive)
REMARK    1  A    between atoms: C_2  and  N_3 
REMARK    2  A    between atoms: C_2  and  C_7 
REMARK       I    between atoms: N_3  and  C_4 
REMARK       I    between atoms: C_4  and  N_5 
REMARK    3  A    between atoms: C_7  and  O_8 
ROOT
HETATM    1  N   UNK N   1      22.510  13.461   9.719  0.00  0.00    -0.329 N 
HETATM    2  C   UNK N   1      21.190  13.763   9.796  0.00  0.00     0.314 C 
HETATM    3  N   UNK N   1      20.778  14.994   9.433  0.00  0.00    -0.352 N 
HETATM    4  O   UNK N   1      20.374  12.945  10.184  0.00  0.00    -0.248 OA
HETATM    5  H   UNK N   1      23.109  14.172   9.396  0.00  0.00     0.165 HD
HETATM    6  H   UNK N   1      19.822  15.227   9.483  0.00  0.00     0.160 HD
HETATM    7  H   UNK N   1      21.431  15.658   9.118  0.00  0.00     0.160 HD
ENDROOT
BRANCH   1   8
HETATM    8  C   UNK N   1      23.128  12.192  10.067  0.00  0.00     0.180 C 
HETATM    9  C   UNK N   1      23.527  11.174   9.006  0.00  0.00     0.043 C 
BRANCH   8  10
HETATM   10  C   UNK N   1      23.348  11.946  11.528  0.00  0.00     0.163 C 
HETATM   11  O   UNK N   1      24.478  11.985  11.989  0.00  0.00    -0.648 OA
BRANCH  10  12
HETATM   12  O   UNK N   1      22.307  11.679  12.338  0.00  0.00    -0.775 OA
HETATM   13  H   UNK N   1      22.163  10.806  12.644  0.00  0.00     0.167 HD
ENDBRANCH  10  12
ENDBRANCH   8  10
ENDBRANCH   1   8
TORSDOF 3
ENDMDL
