REMARK  5 active torsions:
REMARK  status: ('A' for Active; 'I' for Inactive)
REMARK    1  A    between atoms: C_2  and  N_1 
REMARK    2  A    between atoms: C_2  and  C_3 
REMARK    3  A    between atoms: C_2  and  C_12 
REMARK    4  A    between atoms: C_3  and  N_4 
REMARK    5  A    between atoms: C_12  and  O_13 
ROOT
HETATM    1  N   UNK N   1       1.207   0.585   0.327  0.00  0.00    -0.307 N 
HETATM    2  C   UNK N   1       1.402  -0.743   0.094  0.00  0.00     0.101 A 
HETATM    3  C   UNK N   1       0.316  -1.583  -0.154  0.00  0.00     0.092 A 
HETATM    4  C   UNK N   1      -0.966  -1.041  -0.154  0.00  0.00     0.250 A 
HETATM    5  O   UNK N   1      -1.931  -1.754  -0.358  0.00  0.00    -0.268 OA
HETATM    6  N   UNK N   1      -1.142   0.296   0.083  0.00  0.00    -0.275 N 
HETATM    7  C   UNK N   1      -0.069   1.107   0.325  0.00  0.00     0.329 A 
HETATM    8  O   UNK N   1      -0.251   2.294   0.548  0.00  0.00    -0.246 OA
HETATM    9  H   UNK N   1      -2.050   0.676   0.078  0.00  0.00     0.173 HD
ENDROOT
BRANCH   1  10
HETATM   10  C   UNK N   1       2.352   1.433   0.639  0.00  0.00     0.168 C 
BRANCH  10  11
HETATM   11  C   UNK N   1       2.971   2.060  -0.607  0.00  0.00     0.192 C 
BRANCH  11  12
HETATM   12  N   UNK N   1       1.972   2.787  -1.375  0.00  0.00    -0.416 N 
HETATM   13  H   UNK N   1       2.064   3.648  -1.914  0.00  0.00     0.150 HD
HETATM   14  H   UNK N   1       1.040   2.374  -1.375  0.00  0.00     0.150 HD
ENDBRANCH  11  12
BRANCH  11  15
HETATM   15  C   UNK N   1       4.044   3.007  -0.179  0.00  0.00     0.164 C 
HETATM   16  O   UNK N   1       5.205   2.786  -0.478  0.00  0.00    -0.648 OA
BRANCH  15  17
HETATM   17  O   UNK N   1       3.734   4.102   0.544  0.00  0.00    -0.775 OA
HETATM   18  H   UNK N   1       4.285   4.669   1.046  0.00  0.00     0.167 HD
ENDBRANCH  15  17
ENDBRANCH  11  15
ENDBRANCH  10  11
ENDBRANCH   1  10
TORSDOF 5
