REMARK  15 active torsions:
REMARK  status: ('A' for Active; 'I' for Inactive)
REMARK    1  A    between atoms: C_3  and  C_1 
REMARK    2  A    between atoms: O_29  and  C_1 
REMARK    3  A    between atoms: C_5  and  O_19 
REMARK    4  A    between atoms: C_6  and  O_31 
REMARK    5  A    between atoms: O_20  and  C_8 
REMARK    6  A    between atoms: C_9  and  N_18 
REMARK       I    between atoms: N_11  and  C_10 
REMARK    7  A    between atoms: P_33  and  O_21 
REMARK    8  A    between atoms: P_33  and  O_22 
REMARK    9  A    between atoms: P_34  and  O_24 
REMARK   10  A    between atoms: P_34  and  O_25 
REMARK   11  A    between atoms: P_35  and  O_27 
REMARK   12  A    between atoms: P_35  and  O_29 
REMARK   13  A    between atoms: P_33  and  O_31 
REMARK   14  A    between atoms: P_34  and  O_32 
REMARK   15  A    between atoms: P_35  and  O_32 
ROOT
HETATM    1  C   UNK N   1      -1.509  -3.189  -1.008  0.00  0.00     0.180 C 
HETATM    2  C   UNK N   1       0.723  -2.807  -0.720  0.00  0.00     0.199 C 
HETATM    3  C   UNK N   1      -0.271  -3.911  -0.482  0.00  0.00     0.197 C 
HETATM    4  C   UNK N   1      -0.102  -1.694  -0.059  0.00  0.00     0.262 C 
HETATM    5  O   UNK N   1      -1.436  -1.853  -0.525  0.00  0.00    -0.353 OA
ENDROOT
BRANCH   4   6
HETATM    6  N   UNK N   1       0.390  -0.318  -0.205  0.00  0.00    -0.297 N 
HETATM    7  C   UNK N   1      -0.362   0.788  -0.447  0.00  0.00     0.188 A 
HETATM    8  N   UNK N   1       0.368   1.931  -0.288  0.00  0.00    -0.346 N 
HETATM    9  C   UNK N   1       1.592   1.498   0.061  0.00  0.00     0.130 A 
ATOM     10  HN  UNK N   1       0.055   2.895  -0.407  1.00  0.00     0.167 HD
HETATM   11  C   UNK N   1       1.611   0.152   0.094  0.00  0.00     0.157 A 
HETATM   12  C   UNK N   1       2.728   2.215   0.409  0.00  0.00     0.186 A 
HETATM   13  N   UNK N   1       2.716  -0.551   0.429  0.00  0.00    -0.174 N 
HETATM   14  C   UNK N   1       3.859   0.139   0.726  0.00  0.00     0.679 A 
HETATM   15  H   UNK N   1       2.698  -1.535   0.458  0.00  0.00     0.186 HD
HETATM   16  N   UNK N   1       4.930  -0.498   1.005  0.00  0.00    -0.234 N 
HETATM   17  N   UNK N   1       3.856   1.513   0.730  0.00  0.00    -0.168 N 
HETATM   18  H   UNK N   1       4.919  -1.458   1.220  0.00  0.00     0.174 HD
ATOM     19  HN  UNK N   1       5.820   0.001   1.005  1.00  0.00     0.174 HD
ATOM     20  HN  UNK N   1       4.708   2.017   0.976  1.00  0.00     0.186 HD
BRANCH  12  21
HETATM   21  O   UNK N   1       2.722   3.558   0.453  0.00  0.00    -0.344 OA
HETATM   22  H   UNK N   1       3.530   4.030   0.484  0.00  0.00     0.219 HD
ENDBRANCH  12  21
ENDBRANCH   4   6
BRANCH   2  23
HETATM   23  O   UNK N   1       1.934  -3.066  -0.077  0.00  0.00    -0.388 OA
HETATM   24  H   UNK N   1       2.199  -3.885   0.369  0.00  0.00     0.210 HD
ENDBRANCH   2  23
BRANCH   3  25
HETATM   25  O   UNK N   1       0.024  -5.108  -1.169  0.00  0.00    -0.286 OA
BRANCH  25  26
HETATM   26  P   UNK N   1       0.061  -6.467  -0.045  0.00  0.00     0.391 P 
HETATM   27  O   UNK N   1      -0.753  -7.604  -0.708  0.00  0.00    -0.632 OA
BRANCH  26  28
HETATM   28  O   UNK N   1      -0.697  -6.181   1.497  0.00  0.00    -0.307 OA
HETATM   29  H   UNK N   1      -0.770  -5.736   2.355  0.00  0.00     0.222 HD
ENDBRANCH  26  28
BRANCH  26  30
HETATM   30  O   UNK N   1       1.665  -7.094   0.168  0.00  0.00    -0.307 OA
HETATM   31  H   UNK N   1       1.809  -8.046   0.287  0.00  0.00     0.222 HD
ENDBRANCH  26  30
ENDBRANCH  25  26
ENDBRANCH   3  25
BRANCH   1  32
HETATM   32  C   UNK N   1      -2.835  -3.862  -0.663  0.00  0.00     0.215 C 
BRANCH  32  33
HETATM   33  O   UNK N   1      -2.880  -4.410   0.622  0.00  0.00    -0.294 OA
BRANCH  33  34
HETATM   34  P   UNK N   1      -4.196  -5.543   0.511  0.00  0.00     0.401 P 
HETATM   35  O   UNK N   1      -4.186  -6.415   1.798  0.00  0.00    -0.631 OA
BRANCH  34  36
HETATM   36  O   UNK N   1      -5.690  -4.661   0.522  0.00  0.00    -0.307 OA
HETATM   37  H   UNK N   1      -5.680  -3.691   0.528  0.00  0.00     0.222 HD
ENDBRANCH  34  36
BRANCH  34  38
HETATM   38  O   UNK N   1      -4.056  -6.514  -0.949  0.00  0.00    -0.195 OA
BRANCH  38  39
HETATM   39  P   UNK N   1      -3.994  -8.225  -0.580  0.00  0.00     0.399 P 
HETATM   40  O   UNK N   1      -3.083  -8.485   0.649  0.00  0.00    -0.631 OA
BRANCH  39  41
HETATM   41  O   UNK N   1      -3.251  -9.070  -1.902  0.00  0.00    -0.307 OA
HETATM   42  H   UNK N   1      -3.452  -9.665  -2.641  0.00  0.00     0.222 HD
ENDBRANCH  39  41
BRANCH  39  43
HETATM   43  O   UNK N   1      -5.560  -8.899  -0.256  0.00  0.00    -0.307 OA
HETATM   44  H   UNK N   1      -6.324  -8.329  -0.075  0.00  0.00     0.222 HD
ENDBRANCH  39  43
ENDBRANCH  38  39
ENDBRANCH  34  38
ENDBRANCH  33  34
ENDBRANCH  32  33
ENDBRANCH   1  32
TORSDOF 15
