REMARK  8 active torsions:
REMARK  status: ('A' for Active; 'I' for Inactive)
REMARK    1  A    between atoms: C_13  and  C_7 
REMARK    2  A    between atoms: C_14  and  C_8 
REMARK    3  A    between atoms: N_19  and  C_13 
REMARK    4  A    between atoms: N_22  and  C_14 
REMARK    5  A    between atoms: C_17  and  C_15 
REMARK    6  A    between atoms: C_17  and  C_16 
REMARK    7  A    between atoms: O_29  and  C_17 
REMARK    8  A    between atoms: O_30  and  C_17 
ROOT
HETATM    1  C   UNK N   1       0.500   0.376   1.187  0.00  0.00     0.282 C 
ENDROOT
BRANCH   1   2
HETATM    2  C   UNK N   1      -0.762   0.401   0.402  0.00  0.00     0.154 A 
HETATM    3  N   UNK N   1      -1.515  -0.720   0.213  0.00  0.00    -0.339 N 
HETATM    4  C   UNK N   1      -2.738  -0.248  -0.070  0.00  0.00     0.060 A 
ATOM      5  HN  UNK N   1      -1.217  -1.694   0.272  1.00  0.00     0.167 HD
HETATM    6  C   UNK N   1      -3.915  -0.971  -0.241  0.00  0.00     0.033 A 
HETATM    7  C   UNK N   1      -2.722   1.109  -0.047  0.00  0.00     0.061 A 
HETATM    8  C   UNK N   1      -5.113  -0.240  -0.368  0.00  0.00     0.017 A 
HETATM    9  C   UNK N   1      -5.104   1.181  -0.326  0.00  0.00     0.009 A 
HETATM   10  C   UNK N   1      -3.879   1.868  -0.174  0.00  0.00     0.047 A 
HETATM   11  N   UNK N   1      -1.488   1.542   0.249  0.00  0.00    -0.339 N 
HETATM   12  H   UNK N   1      -1.178   2.472   0.335  0.00  0.00     0.167 HD
BRANCH   9  13
HETATM   13  C   UNK N   1      -6.373   1.941  -0.372  0.00  0.00     0.102 C 
HETATM   14  N   UNK N   1      -7.498   1.326  -0.397  0.00  0.00    -0.385 N 
HETATM   15  H   UNK N   1      -8.339   1.837  -0.416  0.00  0.00     0.157 HD
HETATM   16  H   UNK N   1      -7.521   0.342  -0.397  0.00  0.00     0.157 HD
BRANCH  13  17
HETATM   17  N   UNK N   1      -6.358   3.353  -0.296  0.00  0.00    -0.385 N 
HETATM   18  H   UNK N   1      -5.501   3.836  -0.243  0.00  0.00     0.157 HD
HETATM   19  H   UNK N   1      -7.205   3.855  -0.296  0.00  0.00     0.157 HD
ENDBRANCH  13  17
ENDBRANCH   9  13
ENDBRANCH   1   2
BRANCH   1  20
HETATM   20  C   UNK N   1       1.697   0.405   0.305  0.00  0.00     0.154 A 
HETATM   21  N   UNK N   1       2.416   1.545   0.101  0.00  0.00    -0.339 N 
HETATM   22  C   UNK N   1       3.629   1.106  -0.268  0.00  0.00     0.060 A 
ATOM     23  HN  UNK N   1       2.104   2.511   0.205  1.00  0.00     0.167 HD
HETATM   24  C   UNK N   1       4.783   1.855  -0.478  0.00  0.00     0.033 A 
HETATM   25  C   UNK N   1       3.638  -0.251  -0.282  0.00  0.00     0.061 A 
HETATM   26  C   UNK N   1       5.987   1.150  -0.679  0.00  0.00     0.017 A 
HETATM   27  C   UNK N   1       6.005  -0.272  -0.672  0.00  0.00     0.009 A 
HETATM   28  C   UNK N   1       4.801  -0.984  -0.485  0.00  0.00     0.047 A 
HETATM   29  N   UNK N   1       2.433  -0.716   0.072  0.00  0.00    -0.339 N 
HETATM   30  H   UNK N   1       2.146  -1.655   0.148  0.00  0.00     0.167 HD
BRANCH  27  31
HETATM   31  C   UNK N   1       7.283  -1.010  -0.779  0.00  0.00     0.102 C 
HETATM   32  N   UNK N   1       8.397  -0.375  -0.816  0.00  0.00    -0.385 N 
HETATM   33  H   UNK N   1       9.247  -0.872  -0.844  0.00  0.00     0.157 HD
ATOM     34  HN  UNK N   1       8.403   0.645  -0.816  1.00  0.00     0.157 HD
BRANCH  31  35
HETATM   35  N   UNK N   1       7.293  -2.423  -0.726  0.00  0.00    -0.385 N 
HETATM   36  H   UNK N   1       6.445  -2.921  -0.690  0.00  0.00     0.157 HD
HETATM   37  H   UNK N   1       8.149  -2.909  -0.726  0.00  0.00     0.157 HD
ENDBRANCH  31  35
ENDBRANCH  27  31
ENDBRANCH   1  20
BRANCH   1  38
HETATM   38  O   UNK N   1       0.531  -0.770   1.899  0.00  0.00    -0.353 OA
HETATM   39  H   UNK N   1      -0.148  -1.187   2.394  0.00  0.00     0.214 HD
ENDBRANCH   1  38
BRANCH   1  40
HETATM   40  O   UNK N   1       0.529   1.479   1.966  0.00  0.00    -0.353 OA
HETATM   41  H   UNK N   1       1.201   1.845   2.506  0.00  0.00     0.214 HD
ENDBRANCH   1  40
TORSDOF 8
