MODEL 1
REMARK VINA RESULT:      -8.9      0.000      0.000
REMARK  23 active torsions:
REMARK  status: ('A' for Active; 'I' for Inactive)
REMARK    1  A    between atoms: C_29  and  C_11 
REMARK    2  A    between atoms: C_14  and  C_12 
REMARK    3  A    between atoms: C_16  and  C_13 
REMARK    4  A    between atoms: C_19  and  C_15 
REMARK    5  A    between atoms: C_20  and  C_17 
REMARK    6  A    between atoms: C_24  and  C_18 
REMARK    7  A    between atoms: C_31  and  C_21 
REMARK    8  A    between atoms: C_32  and  C_22 
REMARK    9  A    between atoms: N_45  and  C_24 
REMARK   10  A    between atoms: C_34  and  C_26 
REMARK   11  A    between atoms: C_37  and  C_27 
REMARK   12  A    between atoms: C_37  and  C_28 
REMARK   13  A    between atoms: C_38  and  C_28 
REMARK   14  A    between atoms: C_29  and  C_41 
REMARK   15  A    between atoms: C_44  and  C_29 
REMARK   16  A    between atoms: O_48  and  C_30 
REMARK   17  A    between atoms: C_34  and  C_33 
REMARK   18  A    between atoms: C_35  and  O_50 
REMARK   19  A    between atoms: C_36  and  O_51 
REMARK   20  A    between atoms: C_37  and  O_57 
REMARK   21  A    between atoms: C_40  and  O_53 
REMARK   22  A    between atoms: O_54  and  C_41 
REMARK   23  A    between atoms: C_44  and  O_56 
ROOT
HETATM    1  C   UNK N   1      36.221   9.017  15.380  0.00  0.00     0.020 C 
HETATM    2  C   UNK N   1      34.545   9.590  13.673  0.00  0.00     0.020 C 
HETATM    3  C   UNK N   1      36.108  11.388  14.498  0.00  0.00     0.158 C 
HETATM    4  C   UNK N   1      37.013   9.561  13.043  0.00  0.00     0.162 C 
HETATM    5  C   UNK N   1      36.881  10.535  11.848  0.00  0.00     0.210 C 
HETATM    6  C   UNK N   1      35.963   9.886  14.156  0.00  0.00     0.011 C 
HETATM    7  C   UNK N   1      36.859  12.002  12.360  0.00  0.00     0.202 C 
HETATM    8  O   UNK N   1      38.308   9.667  13.567  0.00  0.00    -0.392 OA
HETATM    9  O   UNK N   1      35.832  12.137  13.326  0.00  0.00    -0.342 OA
HETATM   10  H   UNK N   1      39.237   9.598  13.835  0.00  0.00     0.210 HD
ENDROOT
BRANCH   5  11
HETATM   11  O   UNK N   1      35.698  10.249  11.158  0.00  0.00    -0.387 OA
HETATM   12  H   UNK N   1      34.890  10.335  10.629  0.00  0.00     0.210 HD
ENDBRANCH   5  11
BRANCH   7  13
HETATM   13  C   UNK N   1      36.551  13.001  11.197  0.00  0.00     0.124 C 
BRANCH  13  14
HETATM   14  C   UNK N   1      37.203  12.665   9.837  0.00  0.00     0.014 C 
HETATM   15  C   UNK N   1      37.487  13.821   8.888  0.00  0.00     0.006 C 
ENDBRANCH  13  14
BRANCH  13  16
HETATM   16  C   UNK N   1      35.083  13.433  11.085  0.00  0.00     0.121 C 
HETATM   17  N   UNK N   1      34.675  14.660  11.139  0.00  0.00    -0.371 N 
ATOM     18  HN  UNK N   1      33.672  14.823  11.052  1.00  0.00     0.161 HD
BRANCH  17  19
HETATM   19  C   UNK N   1      35.517  15.817  11.311  0.00  0.00     0.148 C 
BRANCH  19  20
HETATM   20  C   UNK N   1      35.289  16.888  10.298  0.00  0.00    -0.011 C 
HETATM   21  C   UNK N   1      34.284  16.860   9.405  0.00  0.00    -0.029 C 
BRANCH  21  22
HETATM   22  C   UNK N   1      34.314  17.834   8.317  0.00  0.00     0.033 C 
HETATM   23  C   UNK N   1      33.149  17.927   7.675  0.00  0.00     0.014 C 
HETATM   24  C   UNK N   1      31.877  18.079   8.468  0.00  0.00     0.012 C 
BRANCH  23  25
HETATM   25  C   UNK N   1      33.135  17.011   6.457  0.00  0.00     0.131 C 
BRANCH  25  26
HETATM   26  C   UNK N   1      32.051  17.319   5.360  0.00  0.00     0.042 C 
HETATM   27  C   UNK N   1      32.635  17.422   3.953  0.00  0.00     0.015 C 
BRANCH  26  28
HETATM   28  C   UNK N   1      30.830  16.364   5.370  0.00  0.00     0.160 C 
HETATM   29  C   UNK N   1      30.667  15.530   4.072  0.00  0.00     0.179 C 
HETATM   30  C   UNK N   1      29.328  16.031   3.510  0.00  0.00     0.182 C 
HETATM   31  C   UNK N   1      29.358  17.422   4.079  0.00  0.00     0.176 C 
HETATM   32  O   UNK N   1      29.722  17.189   5.409  0.00  0.00    -0.371 OA
BRANCH  29  33
HETATM   33  O   UNK N   1      30.648  14.154   4.314  0.00  0.00    -0.390 OA
HETATM   34  H   UNK N   1      30.951  13.384   3.807  0.00  0.00     0.210 HD
ENDBRANCH  29  33
BRANCH  30  35
HETATM   35  O   UNK N   1      28.263  15.334   4.088  0.00  0.00    -0.390 OA
HETATM   36  H   UNK N   1      27.699  14.545   4.127  0.00  0.00     0.210 HD
ENDBRANCH  30  35
BRANCH  31  37
HETATM   37  C   UNK N   1      28.132  18.228   4.224  0.00  0.00     0.007 C 
HETATM   38  C   UNK N   1      27.966  19.553   4.225  0.00  0.00    -0.001 C 
BRANCH  38  39
HETATM   39  C   UNK N   1      26.585  20.008   4.524  0.00  0.00    -0.000 C 
HETATM   40  C   UNK N   1      25.659  19.999   3.531  0.00  0.00     0.001 C 
BRANCH  40  41
HETATM   41  C   UNK N   1      24.210  20.093   3.738  0.00  0.00     0.011 C 
HETATM   42  C   UNK N   1      23.445  18.985   3.864  0.00  0.00    -0.011 C 
HETATM   43  C   UNK N   1      24.071  17.615   3.879  0.00  0.00     0.052 C 
BRANCH  42  44
HETATM   44  C   UNK N   1      21.963  19.101   3.926  0.00  0.00     0.196 C 
HETATM   45  O   UNK N   1      21.432  20.110   3.483  0.00  0.00    -0.287 OA
BRANCH  44  46
HETATM   46  C   UNK N   1      21.103  18.037   4.536  0.00  0.00     0.116 A 
HETATM   47  C   UNK N   1      20.328  17.206   3.706  0.00  0.00     0.086 A 
HETATM   48  C   UNK N   1      19.531  16.210   4.262  0.00  0.00     0.055 A 
HETATM   49  C   UNK N   1      19.516  16.020   5.640  0.00  0.00     0.096 A 
HETATM   50  N   UNK N   1      20.277  16.799   6.453  0.00  0.00    -0.328 N 
HETATM   51  C   UNK N   1      20.250  16.531   7.883  0.00  0.00     0.159 C 
HETATM   52  C   UNK N   1      21.069  17.803   5.937  0.00  0.00     0.264 A 
HETATM   53  O   UNK N   1      21.775  18.461   6.690  0.00  0.00    -0.267 OA
BRANCH  47  54
HETATM   54  O   UNK N   1      20.321  17.380   2.374  0.00  0.00    -0.359 OA
HETATM   55  H   UNK N   1      20.547  18.212   2.008  0.00  0.00     0.217 HD
ENDBRANCH  47  54
ENDBRANCH  44  46
ENDBRANCH  42  44
ENDBRANCH  40  41
ENDBRANCH  38  39
ENDBRANCH  31  37
ENDBRANCH  26  28
ENDBRANCH  25  26
BRANCH  25  56
HETATM   56  O   UNK N   1      34.442  16.886   5.921  0.00  0.00    -0.390 OA
HETATM   57  C   UNK N   1      34.807  15.530   5.845  0.00  0.00     0.202 C 
ENDBRANCH  25  56
ENDBRANCH  23  25
ENDBRANCH  21  22
ENDBRANCH  19  20
ENDBRANCH  17  19
BRANCH  16  58
HETATM   58  O   UNK N   1      34.156  12.470  10.925  0.00  0.00    -0.349 OA
HETATM   59  H   UNK N   1      33.246  12.514  10.706  0.00  0.00     0.219 HD
ENDBRANCH  16  58
ENDBRANCH  13  16
ENDBRANCH   7  13
BRANCH   7  60
HETATM   60  O   UNK N   1      38.090  12.315  12.944  0.00  0.00    -0.363 OA
HETATM   61  H   UNK N   1      38.993  12.642  13.073  0.00  0.00     0.213 HD
ENDBRANCH   7  60
BRANCH   3  62
HETATM   62  C   UNK N   1      35.225  11.943  15.587  0.00  0.00     0.006 C 
HETATM   63  C   UNK N   1      35.809  12.561  16.632  0.00  0.00    -0.002 C 
BRANCH  63  64
HETATM   64  C   UNK N   1      35.031  13.171  17.731  0.00  0.00    -0.005 C 
HETATM   65  C   UNK N   1      35.307  14.397  18.213  0.00  0.00    -0.031 C 
HETATM   66  C   UNK N   1      36.423  15.244  17.684  0.00  0.00     0.036 C 
ENDBRANCH  63  64
ENDBRANCH   3  62
TORSDOF 23
ENDMDL
MODEL 2
REMARK VINA RESULT:      -8.5      2.198      3.217
REMARK  23 active torsions:
REMARK  status: ('A' for Active; 'I' for Inactive)
REMARK    1  A    between atoms: C_29  and  C_11 
REMARK    2  A    between atoms: C_14  and  C_12 
REMARK    3  A    between atoms: C_16  and  C_13 
REMARK    4  A    between atoms: C_19  and  C_15 
REMARK    5  A    between atoms: C_20  and  C_17 
REMARK    6  A    between atoms: C_24  and  C_18 
REMARK    7  A    between atoms: C_31  and  C_21 
REMARK    8  A    between atoms: C_32  and  C_22 
REMARK    9  A    between atoms: N_45  and  C_24 
REMARK   10  A    between atoms: C_34  and  C_26 
REMARK   11  A    between atoms: C_37  and  C_27 
REMARK   12  A    between atoms: C_37  and  C_28 
REMARK   13  A    between atoms: C_38  and  C_28 
REMARK   14  A    between atoms: C_29  and  C_41 
REMARK   15  A    between atoms: C_44  and  C_29 
REMARK   16  A    between atoms: O_48  and  C_30 
REMARK   17  A    between atoms: C_34  and  C_33 
REMARK   18  A    between atoms: C_35  and  O_50 
REMARK   19  A    between atoms: C_36  and  O_51 
REMARK   20  A    between atoms: C_37  and  O_57 
REMARK   21  A    between atoms: C_40  and  O_53 
REMARK   22  A    between atoms: O_54  and  C_41 
REMARK   23  A    between atoms: C_44  and  O_56 
ROOT
HETATM    1  C   UNK N   1      34.993   9.677  15.680  0.00  0.00     0.020 C 
HETATM    2  C   UNK N   1      33.475  10.814  14.116  0.00  0.00     0.020 C 
HETATM    3  C   UNK N   1      35.535  12.028  14.914  0.00  0.00     0.158 C 
HETATM    4  C   UNK N   1      35.791  10.111  13.323  0.00  0.00     0.162 C 
HETATM    5  C   UNK N   1      35.891  11.152  12.183  0.00  0.00     0.210 C 
HETATM    6  C   UNK N   1      34.940  10.656  14.516  0.00  0.00     0.011 C 
HETATM    7  C   UNK N   1      36.324  12.529  12.761  0.00  0.00     0.202 C 
HETATM    8  O   UNK N   1      37.085   9.805  13.765  0.00  0.00    -0.392 OA
HETATM    9  O   UNK N   1      35.432  12.896  13.797  0.00  0.00    -0.342 OA
HETATM   10  H   UNK N   1      37.966   9.453  13.967  0.00  0.00     0.210 HD
ENDROOT
BRANCH   5  11
HETATM   11  O   UNK N   1      34.642  11.265  11.562  0.00  0.00    -0.387 OA
HETATM   12  H   UNK N   1      33.764  11.063  11.203  0.00  0.00     0.210 HD
ENDBRANCH   5  11
BRANCH   7  13
HETATM   13  C   UNK N   1      36.265  13.644  11.666  0.00  0.00     0.124 C 
BRANCH  13  14
HETATM   14  C   UNK N   1      36.053  15.083  12.188  0.00  0.00     0.014 C 
HETATM   15  C   UNK N   1      35.465  16.102  11.221  0.00  0.00     0.006 C 
ENDBRANCH  13  14
BRANCH  13  16
HETATM   16  C   UNK N   1      37.338  13.537  10.574  0.00  0.00     0.121 C 
HETATM   17  N   UNK N   1      37.093  13.557   9.303  0.00  0.00    -0.371 N 
ATOM     18  HN  UNK N   1      37.891  13.478   8.673  1.00  0.00     0.161 HD
BRANCH  17  19
HETATM   19  C   UNK N   1      35.789  13.682   8.702  0.00  0.00     0.148 C 
BRANCH  19  20
HETATM   20  C   UNK N   1      35.690  14.773   7.690  0.00  0.00    -0.011 C 
HETATM   21  C   UNK N   1      34.522  15.232   7.208  0.00  0.00    -0.029 C 
BRANCH  21  22
HETATM   22  C   UNK N   1      34.567  16.122   6.051  0.00  0.00     0.033 C 
HETATM   23  C   UNK N   1      33.692  17.125   6.137  0.00  0.00     0.014 C 
HETATM   24  C   UNK N   1      33.614  17.933   7.407  0.00  0.00     0.012 C 
BRANCH  23  25
HETATM   25  C   UNK N   1      32.390  16.761   5.432  0.00  0.00     0.131 C 
BRANCH  25  26
HETATM   26  C   UNK N   1      31.165  16.414   6.356  0.00  0.00     0.042 C 
HETATM   27  C   UNK N   1      30.015  17.410   6.226  0.00  0.00     0.015 C 
BRANCH  26  28
HETATM   28  C   UNK N   1      30.642  14.961   6.217  0.00  0.00     0.160 C 
HETATM   29  C   UNK N   1      31.551  14.039   5.364  0.00  0.00     0.179 C 
HETATM   30  C   UNK N   1      30.654  13.684   4.170  0.00  0.00     0.182 C 
HETATM   31  C   UNK N   1      29.807  14.926   4.155  0.00  0.00     0.176 C 
HETATM   32  O   UNK N   1      29.463  15.065   5.502  0.00  0.00    -0.371 OA
BRANCH  29  33
HETATM   33  O   UNK N   1      31.968  12.900   6.059  0.00  0.00    -0.390 OA
HETATM   34  H   UNK N   1      32.839  12.523   6.259  0.00  0.00     0.210 HD
ENDBRANCH  29  33
BRANCH  30  35
HETATM   35  O   UNK N   1      29.838  12.590   4.477  0.00  0.00    -0.390 OA
HETATM   36  H   UNK N   1      29.592  11.662   4.337  0.00  0.00     0.210 HD
ENDBRANCH  30  35
BRANCH  31  37
HETATM   37  C   UNK N   1      28.492  14.961   3.488  0.00  0.00     0.007 C 
HETATM   38  C   UNK N   1      28.172  14.790   2.203  0.00  0.00    -0.001 C 
BRANCH  38  39
HETATM   39  C   UNK N   1      26.742  15.022   1.880  0.00  0.00    -0.000 C 
HETATM   40  C   UNK N   1      25.863  13.994   2.004  0.00  0.00     0.001 C 
BRANCH  40  41
HETATM   41  C   UNK N   1      24.405  14.142   2.049  0.00  0.00     0.011 C 
HETATM   42  C   UNK N   1      23.792  14.742   3.094  0.00  0.00    -0.011 C 
HETATM   43  C   UNK N   1      24.597  15.355   4.211  0.00  0.00     0.052 C 
BRANCH  42  44
HETATM   44  C   UNK N   1      22.307  14.751   3.189  0.00  0.00     0.196 C 
HETATM   45  O   UNK N   1      21.753  13.875   3.838  0.00  0.00    -0.287 OA
BRANCH  44  46
HETATM   46  C   UNK N   1      21.468  15.777   2.492  0.00  0.00     0.116 A 
HETATM   47  C   UNK N   1      20.883  15.471   1.249  0.00  0.00     0.086 A 
HETATM   48  C   UNK N   1      20.095  16.414   0.595  0.00  0.00     0.055 A 
HETATM   49  C   UNK N   1      19.868  17.655   1.182  0.00  0.00     0.096 A 
HETATM   50  N   UNK N   1      20.406  17.957   2.392  0.00  0.00    -0.328 N 
HETATM   51  C   UNK N   1      20.104  19.257   2.973  0.00  0.00     0.159 C 
HETATM   52  C   UNK N   1      21.202  17.050   3.062  0.00  0.00     0.264 A 
HETATM   53  O   UNK N   1      21.639  17.336   4.169  0.00  0.00    -0.267 OA
BRANCH  47  54
HETATM   54  O   UNK N   1      21.099  14.282   0.662  0.00  0.00    -0.359 OA
HETATM   55  H   UNK N   1      21.764  13.710   0.991  0.00  0.00     0.217 HD
ENDBRANCH  47  54
ENDBRANCH  44  46
ENDBRANCH  42  44
ENDBRANCH  40  41
ENDBRANCH  38  39
ENDBRANCH  31  37
ENDBRANCH  26  28
ENDBRANCH  25  26
BRANCH  25  56
HETATM   56  O   UNK N   1      32.078  17.730   4.444  0.00  0.00    -0.390 OA
HETATM   57  C   UNK N   1      32.330  17.213   3.162  0.00  0.00     0.202 C 
ENDBRANCH  25  56
ENDBRANCH  23  25
ENDBRANCH  21  22
ENDBRANCH  19  20
ENDBRANCH  17  19
BRANCH  16  58
HETATM   58  O   UNK N   1      38.619  13.408  10.964  0.00  0.00    -0.349 OA
HETATM   59  H   UNK N   1      39.342  12.949  10.582  0.00  0.00     0.219 HD
ENDBRANCH  16  58
ENDBRANCH  13  16
ENDBRANCH   7  13
BRANCH   7  60
HETATM   60  O   UNK N   1      37.620  12.435  13.275  0.00  0.00    -0.363 OA
HETATM   61  H   UNK N   1      38.566  12.586  13.429  0.00  0.00     0.213 HD
ENDBRANCH   7  60
BRANCH   3  62
HETATM   62  C   UNK N   1      34.909  12.746  16.083  0.00  0.00     0.006 C 
HETATM   63  C   UNK N   1      35.609  12.833  17.231  0.00  0.00    -0.002 C 
BRANCH  63  64
HETATM   64  C   UNK N   1      35.099  13.548  18.420  0.00  0.00    -0.005 C 
HETATM   65  C   UNK N   1      35.093  12.991  19.645  0.00  0.00    -0.031 C 
HETATM   66  C   UNK N   1      35.595  11.604  19.908  0.00  0.00     0.036 C 
ENDBRANCH  63  64
ENDBRANCH   3  62
TORSDOF 23
ENDMDL
MODEL 3
REMARK VINA RESULT:      -8.4      4.310      9.092
REMARK  23 active torsions:
REMARK  status: ('A' for Active; 'I' for Inactive)
REMARK    1  A    between atoms: C_29  and  C_11 
REMARK    2  A    between atoms: C_14  and  C_12 
REMARK    3  A    between atoms: C_16  and  C_13 
REMARK    4  A    between atoms: C_19  and  C_15 
REMARK    5  A    between atoms: C_20  and  C_17 
REMARK    6  A    between atoms: C_24  and  C_18 
REMARK    7  A    between atoms: C_31  and  C_21 
REMARK    8  A    between atoms: C_32  and  C_22 
REMARK    9  A    between atoms: N_45  and  C_24 
REMARK   10  A    between atoms: C_34  and  C_26 
REMARK   11  A    between atoms: C_37  and  C_27 
REMARK   12  A    between atoms: C_37  and  C_28 
REMARK   13  A    between atoms: C_38  and  C_28 
REMARK   14  A    between atoms: C_29  and  C_41 
REMARK   15  A    between atoms: C_44  and  C_29 
REMARK   16  A    between atoms: O_48  and  C_30 
REMARK   17  A    between atoms: C_34  and  C_33 
REMARK   18  A    between atoms: C_35  and  O_50 
REMARK   19  A    between atoms: C_36  and  O_51 
REMARK   20  A    between atoms: C_37  and  O_57 
REMARK   21  A    between atoms: C_40  and  O_53 
REMARK   22  A    between atoms: O_54  and  C_41 
REMARK   23  A    between atoms: C_44  and  O_56 
ROOT
HETATM    1  C   UNK N   1      34.251  17.182   7.728  0.00  0.00     0.020 C 
HETATM    2  C   UNK N   1      33.202  15.194   8.725  0.00  0.00     0.020 C 
HETATM    3  C   UNK N   1      35.710  15.258   8.488  0.00  0.00     0.158 C 
HETATM    4  C   UNK N   1      34.610  16.731  10.188  0.00  0.00     0.162 C 
HETATM    5  C   UNK N   1      34.960  15.661  11.249  0.00  0.00     0.210 C 
HETATM    6  C   UNK N   1      34.437  16.089   8.772  0.00  0.00     0.011 C 
HETATM    7  C   UNK N   1      36.141  14.783  10.746  0.00  0.00     0.202 C 
HETATM    8  O   UNK N   1      35.638  17.683  10.155  0.00  0.00    -0.392 OA
HETATM    9  O   UNK N   1      35.810  14.247   9.479  0.00  0.00    -0.342 OA
HETATM   10  H   UNK N   1      36.244  18.436  10.234  0.00  0.00     0.210 HD
ENDROOT
BRANCH   5  11
HETATM   11  O   UNK N   1      33.834  14.863  11.478  0.00  0.00    -0.387 OA
HETATM   12  H   UNK N   1      32.924  14.569  11.641  0.00  0.00     0.210 HD
ENDBRANCH   5  11
BRANCH   7  13
HETATM   13  C   UNK N   1      36.405  13.584  11.715  0.00  0.00     0.124 C 
BRANCH  13  14
HETATM   14  C   UNK N   1      37.681  12.761  11.427  0.00  0.00     0.014 C 
HETATM   15  C   UNK N   1      37.651  11.812  10.237  0.00  0.00     0.006 C 
ENDBRANCH  13  14
BRANCH  13  16
HETATM   16  C   UNK N   1      36.196  13.896  13.203  0.00  0.00     0.121 C 
HETATM   17  N   UNK N   1      35.386  13.251  13.978  0.00  0.00    -0.371 N 
ATOM     18  HN  UNK N   1      35.333  13.551  14.952  1.00  0.00     0.161 HD
BRANCH  17  19
HETATM   19  C   UNK N   1      34.550  12.144  13.585  0.00  0.00     0.148 C 
BRANCH  19  20
HETATM   20  C   UNK N   1      35.170  10.807  13.813  0.00  0.00    -0.011 C 
HETATM   21  C   UNK N   1      35.271   9.865  12.858  0.00  0.00    -0.029 C 
BRANCH  21  22
HETATM   22  C   UNK N   1      35.671   8.522  13.268  0.00  0.00     0.033 C 
HETATM   23  C   UNK N   1      36.254   7.834  12.285  0.00  0.00     0.014 C 
HETATM   24  C   UNK N   1      37.356   8.478  11.483  0.00  0.00     0.012 C 
BRANCH  23  25
HETATM   25  C   UNK N   1      35.228   6.982  11.546  0.00  0.00     0.131 C 
BRANCH  25  26
HETATM   26  C   UNK N   1      34.673   7.566  10.195  0.00  0.00     0.042 C 
HETATM   27  C   UNK N   1      34.891   6.634   9.005  0.00  0.00     0.015 C 
BRANCH  26  28
HETATM   28  C   UNK N   1      33.197   8.036  10.251  0.00  0.00     0.160 C 
HETATM   29  C   UNK N   1      32.225   7.171   9.407  0.00  0.00     0.179 C 
HETATM   30  C   UNK N   1      31.720   8.160   8.346  0.00  0.00     0.182 C 
HETATM   31  C   UNK N   1      32.925   9.058   8.292  0.00  0.00     0.176 C 
HETATM   32  O   UNK N   1      33.188   9.280   9.647  0.00  0.00    -0.371 OA
BRANCH  29  33
HETATM   33  O   UNK N   1      31.177   6.643  10.166  0.00  0.00    -0.390 OA
HETATM   34  H   UNK N   1      30.498   5.973   9.989  0.00  0.00     0.210 HD
ENDBRANCH  29  33
BRANCH  30  35
HETATM   35  O   UNK N   1      30.636   8.895   8.836  0.00  0.00    -0.390 OA
HETATM   36  H   UNK N   1      29.693   9.120   8.805  0.00  0.00     0.210 HD
ENDBRANCH  30  35
BRANCH  31  37
HETATM   37  C   UNK N   1      32.848  10.429   7.757  0.00  0.00     0.007 C 
HETATM   38  C   UNK N   1      33.330  10.940   6.621  0.00  0.00    -0.001 C 
BRANCH  38  39
HETATM   39  C   UNK N   1      33.162  12.408   6.476  0.00  0.00    -0.000 C 
HETATM   40  C   UNK N   1      32.430  12.888   5.439  0.00  0.00     0.001 C 
BRANCH  40  41
HETATM   41  C   UNK N   1      31.903  14.254   5.350  0.00  0.00     0.011 C 
HETATM   42  C   UNK N   1      32.587  15.230   4.710  0.00  0.00    -0.011 C 
HETATM   43  C   UNK N   1      33.877  14.924   3.994  0.00  0.00     0.052 C 
BRANCH  42  44
HETATM   44  C   UNK N   1      32.106  16.637   4.757  0.00  0.00     0.196 C 
HETATM   45  O   UNK N   1      32.924  17.542   4.671  0.00  0.00    -0.287 OA
BRANCH  44  46
HETATM   46  C   UNK N   1      30.659  16.981   4.936  0.00  0.00     0.116 A 
HETATM   47  C   UNK N   1      29.806  17.009   3.816  0.00  0.00     0.086 A 
HETATM   48  C   UNK N   1      28.459  17.320   3.971  0.00  0.00     0.055 A 
HETATM   49  C   UNK N   1      27.948  17.584   5.238  0.00  0.00     0.096 A 
HETATM   50  N   UNK N   1      28.753  17.537   6.331  0.00  0.00    -0.328 N 
HETATM   51  C   UNK N   1      28.156  17.785   7.636  0.00  0.00     0.159 C 
HETATM   52  C   UNK N   1      30.096  17.244   6.213  0.00  0.00     0.264 A 
HETATM   53  O   UNK N   1      30.787  17.169   7.220  0.00  0.00    -0.267 OA
BRANCH  47  54
HETATM   54  O   UNK N   1      30.283  16.768   2.583  0.00  0.00    -0.359 OA
HETATM   55  H   UNK N   1      30.032  15.990   2.127  0.00  0.00     0.217 HD
ENDBRANCH  47  54
ENDBRANCH  44  46
ENDBRANCH  42  44
ENDBRANCH  40  41
ENDBRANCH  38  39
ENDBRANCH  31  37
ENDBRANCH  26  28
ENDBRANCH  25  26
BRANCH  25  56
HETATM   56  O   UNK N   1      35.695   5.649  11.420  0.00  0.00    -0.390 OA
HETATM   57  C   UNK N   1      35.381   4.914  12.576  0.00  0.00     0.202 C 
ENDBRANCH  25  56
ENDBRANCH  23  25
ENDBRANCH  21  22
ENDBRANCH  19  20
ENDBRANCH  17  19
BRANCH  16  58
HETATM   58  O   UNK N   1      36.900  14.913  13.736  0.00  0.00    -0.349 OA
HETATM   59  H   UNK N   1      37.741  14.937  14.149  0.00  0.00     0.219 HD
ENDBRANCH  16  58
ENDBRANCH  13  16
ENDBRANCH   7  13
BRANCH   7  60
HETATM   60  O   UNK N   1      37.293  15.567  10.633  0.00  0.00    -0.363 OA
HETATM   61  H   UNK N   1      38.144  15.991  10.825  0.00  0.00     0.213 HD
ENDBRANCH   7  60
BRANCH   3  62
HETATM   62  C   UNK N   1      35.808  14.568   7.151  0.00  0.00     0.006 C 
HETATM   63  C   UNK N   1      36.692  13.561   7.013  0.00  0.00    -0.002 C 
BRANCH  63  64
HETATM   64  C   UNK N   1      36.837  12.797   5.755  0.00  0.00    -0.005 C 
HETATM   65  C   UNK N   1      36.967  11.458   5.739  0.00  0.00    -0.031 C 
HETATM   66  C   UNK N   1      36.980  10.629   6.987  0.00  0.00     0.036 C 
ENDBRANCH  63  64
ENDBRANCH   3  62
TORSDOF 23
ENDMDL
MODEL 4
REMARK VINA RESULT:      -8.3      4.559      8.455
REMARK  23 active torsions:
REMARK  status: ('A' for Active; 'I' for Inactive)
REMARK    1  A    between atoms: C_29  and  C_11 
REMARK    2  A    between atoms: C_14  and  C_12 
REMARK    3  A    between atoms: C_16  and  C_13 
REMARK    4  A    between atoms: C_19  and  C_15 
REMARK    5  A    between atoms: C_20  and  C_17 
REMARK    6  A    between atoms: C_24  and  C_18 
REMARK    7  A    between atoms: C_31  and  C_21 
REMARK    8  A    between atoms: C_32  and  C_22 
REMARK    9  A    between atoms: N_45  and  C_24 
REMARK   10  A    between atoms: C_34  and  C_26 
REMARK   11  A    between atoms: C_37  and  C_27 
REMARK   12  A    between atoms: C_37  and  C_28 
REMARK   13  A    between atoms: C_38  and  C_28 
REMARK   14  A    between atoms: C_29  and  C_41 
REMARK   15  A    between atoms: C_44  and  C_29 
REMARK   16  A    between atoms: O_48  and  C_30 
REMARK   17  A    between atoms: C_34  and  C_33 
REMARK   18  A    between atoms: C_35  and  O_50 
REMARK   19  A    between atoms: C_36  and  O_51 
REMARK   20  A    between atoms: C_37  and  O_57 
REMARK   21  A    between atoms: C_40  and  O_53 
REMARK   22  A    between atoms: O_54  and  C_41 
REMARK   23  A    between atoms: C_44  and  O_56 
ROOT
HETATM    1  C   UNK N   1      35.759  10.100  15.251  0.00  0.00     0.020 C 
HETATM    2  C   UNK N   1      33.836  10.770  13.872  0.00  0.00     0.020 C 
HETATM    3  C   UNK N   1      35.650  12.457  14.336  0.00  0.00     0.158 C 
HETATM    4  C   UNK N   1      36.132  10.545  12.792  0.00  0.00     0.162 C 
HETATM    5  C   UNK N   1      35.846  11.506  11.614  0.00  0.00     0.210 C 
HETATM    6  C   UNK N   1      35.337  10.966  14.072  0.00  0.00     0.011 C 
HETATM    7  C   UNK N   1      36.025  12.980  12.078  0.00  0.00     0.202 C 
HETATM    8  O   UNK N   1      37.507  10.562  13.061  0.00  0.00    -0.392 OA
HETATM    9  O   UNK N   1      35.212  13.207  13.214  0.00  0.00    -0.342 OA
HETATM   10  H   UNK N   1      38.463  10.427  13.152  0.00  0.00     0.210 HD
ENDROOT
BRANCH   5  11
HETATM   11  O   UNK N   1      34.537  11.300  11.167  0.00  0.00    -0.387 OA
HETATM   12  H   UNK N   1      33.721  11.327  10.644  0.00  0.00     0.210 HD
ENDBRANCH   5  11
BRANCH   7  13
HETATM   13  C   UNK N   1      35.576  13.980  10.963  0.00  0.00     0.124 C 
BRANCH  13  14
HETATM   14  C   UNK N   1      34.291  14.783  11.265  0.00  0.00     0.014 C 
HETATM   15  C   UNK N   1      33.343  15.055  10.104  0.00  0.00     0.006 C 
ENDBRANCH  13  14
BRANCH  13  16
HETATM   16  C   UNK N   1      36.704  14.828  10.361  0.00  0.00     0.121 C 
HETATM   17  N   UNK N   1      37.431  14.468   9.353  0.00  0.00    -0.371 N 
ATOM     18  HN  UNK N   1      38.152  15.118   9.042  1.00  0.00     0.161 HD
BRANCH  17  19
HETATM   19  C   UNK N   1      37.310  13.225   8.632  0.00  0.00     0.148 C 
BRANCH  19  20
HETATM   20  C   UNK N   1      38.378  12.234   8.951  0.00  0.00    -0.011 C 
HETATM   21  C   UNK N   1      38.235  10.909   8.775  0.00  0.00    -0.029 C 
BRANCH  21  22
HETATM   22  C   UNK N   1      39.251  10.032   9.350  0.00  0.00     0.033 C 
HETATM   23  C   UNK N   1      39.071   8.751   9.028  0.00  0.00     0.014 C 
HETATM   24  C   UNK N   1      38.822   8.377   7.589  0.00  0.00     0.012 C 
BRANCH  23  25
HETATM   25  C   UNK N   1      38.268   8.035  10.109  0.00  0.00     0.131 C 
BRANCH  25  26
HETATM   26  C   UNK N   1      36.934   7.342   9.648  0.00  0.00     0.042 C 
HETATM   27  C   UNK N   1      36.918   5.838   9.910  0.00  0.00     0.015 C 
BRANCH  26  28
HETATM   28  C   UNK N   1      35.640   8.000  10.195  0.00  0.00     0.160 C 
HETATM   29  C   UNK N   1      34.346   7.206   9.882  0.00  0.00     0.179 C 
HETATM   30  C   UNK N   1      33.564   8.170   8.977  0.00  0.00     0.182 C 
HETATM   31  C   UNK N   1      34.731   8.900   8.374  0.00  0.00     0.176 C 
HETATM   32  O   UNK N   1      35.512   9.187   9.497  0.00  0.00    -0.371 OA
BRANCH  29  33
HETATM   33  O   UNK N   1      33.626   6.873  11.032  0.00  0.00    -0.390 OA
HETATM   34  H   UNK N   1      33.813   6.951  11.981  0.00  0.00     0.210 HD
ENDBRANCH  29  33
BRANCH  30  35
HETATM   35  O   UNK N   1      32.821   9.071   9.746  0.00  0.00    -0.390 OA
HETATM   36  H   UNK N   1      32.545   9.982   9.938  0.00  0.00     0.210 HD
ENDBRANCH  30  35
BRANCH  31  37
HETATM   37  C   UNK N   1      34.578  10.227   7.749  0.00  0.00     0.007 C 
HETATM   38  C   UNK N   1      34.783  10.616   6.489  0.00  0.00    -0.001 C 
BRANCH  38  39
HETATM   39  C   UNK N   1      34.643  12.075   6.254  0.00  0.00    -0.000 C 
HETATM   40  C   UNK N   1      33.408  12.591   6.033  0.00  0.00     0.001 C 
BRANCH  40  41
HETATM   41  C   UNK N   1      33.069  14.015   6.118  0.00  0.00     0.011 C 
HETATM   42  C   UNK N   1      32.006  14.525   5.454  0.00  0.00    -0.011 C 
HETATM   43  C   UNK N   1      31.085  13.627   4.670  0.00  0.00     0.052 C 
BRANCH  42  44
HETATM   44  C   UNK N   1      31.767  15.994   5.437  0.00  0.00     0.196 C 
HETATM   45  O   UNK N   1      31.944  16.607   4.394  0.00  0.00    -0.287 OA
BRANCH  44  46
HETATM   46  C   UNK N   1      31.347  16.749   6.660  0.00  0.00     0.116 A 
HETATM   47  C   UNK N   1      32.308  17.457   7.406  0.00  0.00     0.086 A 
HETATM   48  C   UNK N   1      31.927  18.168   8.540  0.00  0.00     0.055 A 
HETATM   49  C   UNK N   1      30.591  18.198   8.926  0.00  0.00     0.096 A 
HETATM   50  N   UNK N   1      29.648  17.540   8.203  0.00  0.00    -0.328 N 
HETATM   51  C   UNK N   1      28.261  17.636   8.632  0.00  0.00     0.159 C 
HETATM   52  C   UNK N   1      29.992  16.815   7.080  0.00  0.00     0.264 A 
HETATM   53  O   UNK N   1      29.115  16.266   6.426  0.00  0.00    -0.267 OA
BRANCH  47  54
HETATM   54  O   UNK N   1      33.605  17.432   7.056  0.00  0.00    -0.359 OA
HETATM   55  H   UNK N   1      33.852  17.178   6.189  0.00  0.00     0.217 HD
ENDBRANCH  47  54
ENDBRANCH  44  46
ENDBRANCH  42  44
ENDBRANCH  40  41
ENDBRANCH  38  39
ENDBRANCH  31  37
ENDBRANCH  26  28
ENDBRANCH  25  26
BRANCH  25  56
HETATM   56  O   UNK N   1      39.109   7.171  10.854  0.00  0.00    -0.390 OA
HETATM   57  C   UNK N   1      39.238   7.639  12.173  0.00  0.00     0.202 C 
ENDBRANCH  25  56
ENDBRANCH  23  25
ENDBRANCH  21  22
ENDBRANCH  19  20
ENDBRANCH  17  19
BRANCH  16  58
HETATM   58  O   UNK N   1      36.957  16.025  10.922  0.00  0.00    -0.349 OA
HETATM   59  H   UNK N   1      37.379  16.792  10.586  0.00  0.00     0.219 HD
ENDBRANCH  16  58
ENDBRANCH  13  16
ENDBRANCH   7  13
BRANCH   7  60
HETATM   60  O   UNK N   1      37.363  13.208  12.411  0.00  0.00    -0.363 OA
HETATM   61  H   UNK N   1      38.163  13.554  12.838  0.00  0.00     0.213 HD
ENDBRANCH   7  60
BRANCH   3  62
HETATM   62  C   UNK N   1      35.031  13.094  15.554  0.00  0.00     0.006 C 
HETATM   63  C   UNK N   1      35.839  13.448  16.572  0.00  0.00    -0.002 C 
BRANCH  63  64
HETATM   64  C   UNK N   1      35.334  14.112  17.793  0.00  0.00    -0.005 C 
HETATM   65  C   UNK N   1      35.092  13.436  18.931  0.00  0.00    -0.031 C 
HETATM   66  C   UNK N   1      35.306  11.958  19.058  0.00  0.00     0.036 C 
ENDBRANCH  63  64
ENDBRANCH   3  62
TORSDOF 23
ENDMDL
MODEL 5
REMARK VINA RESULT:      -8.2      5.421     10.388
REMARK  23 active torsions:
REMARK  status: ('A' for Active; 'I' for Inactive)
REMARK    1  A    between atoms: C_29  and  C_11 
REMARK    2  A    between atoms: C_14  and  C_12 
REMARK    3  A    between atoms: C_16  and  C_13 
REMARK    4  A    between atoms: C_19  and  C_15 
REMARK    5  A    between atoms: C_20  and  C_17 
REMARK    6  A    between atoms: C_24  and  C_18 
REMARK    7  A    between atoms: C_31  and  C_21 
REMARK    8  A    between atoms: C_32  and  C_22 
REMARK    9  A    between atoms: N_45  and  C_24 
REMARK   10  A    between atoms: C_34  and  C_26 
REMARK   11  A    between atoms: C_37  and  C_27 
REMARK   12  A    between atoms: C_37  and  C_28 
REMARK   13  A    between atoms: C_38  and  C_28 
REMARK   14  A    between atoms: C_29  and  C_41 
REMARK   15  A    between atoms: C_44  and  C_29 
REMARK   16  A    between atoms: O_48  and  C_30 
REMARK   17  A    between atoms: C_34  and  C_33 
REMARK   18  A    between atoms: C_35  and  O_50 
REMARK   19  A    between atoms: C_36  and  O_51 
REMARK   20  A    between atoms: C_37  and  O_57 
REMARK   21  A    between atoms: C_40  and  O_53 
REMARK   22  A    between atoms: O_54  and  C_41 
REMARK   23  A    between atoms: C_44  and  O_56 
ROOT
HETATM    1  C   UNK N   1      34.486  16.492   7.380  0.00  0.00     0.020 C 
HETATM    2  C   UNK N   1      33.444  14.541   8.455  0.00  0.00     0.020 C 
HETATM    3  C   UNK N   1      35.945  14.822   8.603  0.00  0.00     0.158 C 
HETATM    4  C   UNK N   1      34.467  16.370   9.903  0.00  0.00     0.162 C 
HETATM    5  C   UNK N   1      34.718  15.471  11.137  0.00  0.00     0.210 C 
HETATM    6  C   UNK N   1      34.581  15.552   8.575  0.00  0.00     0.011 C 
HETATM    7  C   UNK N   1      36.031  14.660  10.943  0.00  0.00     0.202 C 
HETATM    8  O   UNK N   1      35.409  17.407   9.905  0.00  0.00    -0.392 OA
HETATM    9  O   UNK N   1      35.957  13.949   9.721  0.00  0.00    -0.342 OA
HETATM   10  H   UNK N   1      35.933  18.220   9.978  0.00  0.00     0.210 HD
ENDROOT
BRANCH   5  11
HETATM   11  O   UNK N   1      33.635  14.599  11.292  0.00  0.00    -0.387 OA
HETATM   12  H   UNK N   1      32.736  14.239  11.352  0.00  0.00     0.210 HD
ENDBRANCH   5  11
BRANCH   7  13
HETATM   13  C   UNK N   1      36.223  13.614  12.090  0.00  0.00     0.124 C 
BRANCH  13  14
HETATM   14  C   UNK N   1      37.360  12.591  11.877  0.00  0.00     0.014 C 
HETATM   15  C   UNK N   1      36.977  11.214  11.352  0.00  0.00     0.006 C 
ENDBRANCH  13  14
BRANCH  13  16
HETATM   16  C   UNK N   1      36.175  14.195  13.510  0.00  0.00     0.121 C 
HETATM   17  N   UNK N   1      35.483  13.694  14.482  0.00  0.00    -0.371 N 
ATOM     18  HN  UNK N   1      35.531  14.169  15.383  1.00  0.00     0.161 HD
BRANCH  17  19
HETATM   19  C   UNK N   1      34.648  12.521  14.400  0.00  0.00     0.148 C 
BRANCH  19  20
HETATM   20  C   UNK N   1      35.237  11.314  15.048  0.00  0.00    -0.011 C 
HETATM   21  C   UNK N   1      35.348  10.123  14.432  0.00  0.00    -0.029 C 
BRANCH  21  22
HETATM   22  C   UNK N   1      35.711   8.967  15.248  0.00  0.00     0.033 C 
HETATM   23  C   UNK N   1      36.718   8.264  14.728  0.00  0.00     0.014 C 
HETATM   24  C   UNK N   1      37.961   8.981  14.267  0.00  0.00     0.012 C 
BRANCH  23  25
HETATM   25  C   UNK N   1      36.186   7.120  13.872  0.00  0.00     0.131 C 
BRANCH  25  26
HETATM   26  C   UNK N   1      36.019   7.411  12.336  0.00  0.00     0.042 C 
HETATM   27  C   UNK N   1      37.070   6.712  11.476  0.00  0.00     0.015 C 
BRANCH  26  28
HETATM   28  C   UNK N   1      34.598   7.143  11.777  0.00  0.00     0.160 C 
HETATM   29  C   UNK N   1      34.499   5.883  10.877  0.00  0.00     0.179 C 
HETATM   30  C   UNK N   1      34.117   6.469   9.510  0.00  0.00     0.182 C 
HETATM   31  C   UNK N   1      34.758   7.820   9.663  0.00  0.00     0.176 C 
HETATM   32  O   UNK N   1      34.331   8.207  10.936  0.00  0.00    -0.371 OA
BRANCH  29  33
HETATM   33  O   UNK N   1      33.548   4.968  11.335  0.00  0.00    -0.390 OA
HETATM   34  H   UNK N   1      32.857   4.448  10.895  0.00  0.00     0.210 HD
ENDBRANCH  29  33
BRANCH  30  35
HETATM   35  O   UNK N   1      32.732   6.639   9.419  0.00  0.00    -0.390 OA
HETATM   36  H   UNK N   1      31.955   6.942   8.923  0.00  0.00     0.210 HD
ENDBRANCH  30  35
BRANCH  31  37
HETATM   37  C   UNK N   1      34.355   8.969   8.831  0.00  0.00     0.007 C 
HETATM   38  C   UNK N   1      35.069  10.010   8.396  0.00  0.00    -0.001 C 
BRANCH  38  39
HETATM   39  C   UNK N   1      34.286  11.046   7.677  0.00  0.00    -0.000 C 
HETATM   40  C   UNK N   1      34.174  10.969   6.326  0.00  0.00     0.001 C 
BRANCH  40  41
HETATM   41  C   UNK N   1      33.186  11.698   5.525  0.00  0.00     0.011 C 
HETATM   42  C   UNK N   1      33.566  12.557   4.552  0.00  0.00    -0.011 C 
HETATM   43  C   UNK N   1      35.022  12.729   4.203  0.00  0.00     0.052 C 
BRANCH  42  44
HETATM   44  C   UNK N   1      32.554  13.395   3.854  0.00  0.00     0.196 C 
HETATM   45  O   UNK N   1      31.923  12.905   2.927  0.00  0.00    -0.287 OA
BRANCH  44  46
HETATM   46  C   UNK N   1      32.303  14.823   4.228  0.00  0.00     0.116 A 
HETATM   47  C   UNK N   1      32.851  15.855   3.443  0.00  0.00     0.086 A 
HETATM   48  C   UNK N   1      32.618  17.186   3.777  0.00  0.00     0.055 A 
HETATM   49  C   UNK N   1      31.824  17.498   4.876  0.00  0.00     0.096 A 
HETATM   50  N   UNK N   1      31.269  16.513   5.629  0.00  0.00    -0.328 N 
HETATM   51  C   UNK N   1      30.417  16.899   6.745  0.00  0.00     0.159 C 
HETATM   52  C   UNK N   1      31.488  15.183   5.334  0.00  0.00     0.264 A 
HETATM   53  O   UNK N   1      30.941  14.319   6.006  0.00  0.00    -0.267 OA
BRANCH  47  54
HETATM   54  O   UNK N   1      33.629  15.574   2.384  0.00  0.00    -0.359 OA
HETATM   55  H   UNK N   1      33.770  14.684   2.128  0.00  0.00     0.217 HD
ENDBRANCH  47  54
ENDBRANCH  44  46
ENDBRANCH  42  44
ENDBRANCH  40  41
ENDBRANCH  38  39
ENDBRANCH  31  37
ENDBRANCH  26  28
ENDBRANCH  25  26
BRANCH  25  56
HETATM   56  O   UNK N   1      36.915   5.932  14.132  0.00  0.00    -0.390 OA
HETATM   57  C   UNK N   1      36.407   5.291  15.276  0.00  0.00     0.202 C 
ENDBRANCH  25  56
ENDBRANCH  23  25
ENDBRANCH  21  22
ENDBRANCH  19  20
ENDBRANCH  17  19
BRANCH  16  58
HETATM   58  O   UNK N   1      36.898  15.303  13.759  0.00  0.00    -0.349 OA
HETATM   59  H   UNK N   1      37.823  15.443  13.809  0.00  0.00     0.219 HD
ENDBRANCH  16  58
ENDBRANCH  13  16
ENDBRANCH   7  13
BRANCH   7  60
HETATM   60  O   UNK N   1      37.121  15.534  10.907  0.00  0.00    -0.363 OA
HETATM   61  H   UNK N   1      37.727  16.263  11.112  0.00  0.00     0.213 HD
ENDBRANCH   7  60
BRANCH   3  62
HETATM   62  C   UNK N   1      36.315  13.993   7.399  0.00  0.00     0.006 C 
HETATM   63  C   UNK N   1      37.402  13.200   7.478  0.00  0.00    -0.002 C 
BRANCH  63  64
HETATM   64  C   UNK N   1      37.827  12.321   6.368  0.00  0.00    -0.005 C 
HETATM   65  C   UNK N   1      38.395  11.120   6.579  0.00  0.00    -0.031 C 
HETATM   66  C   UNK N   1      38.650  10.573   7.951  0.00  0.00     0.036 C 
ENDBRANCH  63  64
ENDBRANCH   3  62
TORSDOF 23
ENDMDL
MODEL 6
REMARK VINA RESULT:      -8.2      2.998     14.304
REMARK  23 active torsions:
REMARK  status: ('A' for Active; 'I' for Inactive)
REMARK    1  A    between atoms: C_29  and  C_11 
REMARK    2  A    between atoms: C_14  and  C_12 
REMARK    3  A    between atoms: C_16  and  C_13 
REMARK    4  A    between atoms: C_19  and  C_15 
REMARK    5  A    between atoms: C_20  and  C_17 
REMARK    6  A    between atoms: C_24  and  C_18 
REMARK    7  A    between atoms: C_31  and  C_21 
REMARK    8  A    between atoms: C_32  and  C_22 
REMARK    9  A    between atoms: N_45  and  C_24 
REMARK   10  A    between atoms: C_34  and  C_26 
REMARK   11  A    between atoms: C_37  and  C_27 
REMARK   12  A    between atoms: C_37  and  C_28 
REMARK   13  A    between atoms: C_38  and  C_28 
REMARK   14  A    between atoms: C_29  and  C_41 
REMARK   15  A    between atoms: C_44  and  C_29 
REMARK   16  A    between atoms: O_48  and  C_30 
REMARK   17  A    between atoms: C_34  and  C_33 
REMARK   18  A    between atoms: C_35  and  O_50 
REMARK   19  A    between atoms: C_36  and  O_51 
REMARK   20  A    between atoms: C_37  and  O_57 
REMARK   21  A    between atoms: C_40  and  O_53 
REMARK   22  A    between atoms: O_54  and  C_41 
REMARK   23  A    between atoms: C_44  and  O_56 
ROOT
HETATM    1  C   UNK N   1      20.727  13.428   9.456  0.00  0.00     0.020 C 
HETATM    2  C   UNK N   1      22.865  13.851   8.319  0.00  0.00     0.020 C 
HETATM    3  C   UNK N   1      20.823  13.355   6.927  0.00  0.00     0.158 C 
HETATM    4  C   UNK N   1      20.982  15.554   8.115  0.00  0.00     0.162 C 
HETATM    5  C   UNK N   1      21.468  16.168   6.781  0.00  0.00     0.210 C 
HETATM    6  C   UNK N   1      21.354  14.038   8.210  0.00  0.00     0.011 C 
HETATM    7  C   UNK N   1      21.014  15.275   5.591  0.00  0.00     0.202 C 
HETATM    8  O   UNK N   1      19.592  15.707   8.199  0.00  0.00    -0.392 OA
HETATM    9  O   UNK N   1      21.463  13.951   5.810  0.00  0.00    -0.342 OA
HETATM   10  H   UNK N   1      18.667  15.952   8.356  0.00  0.00     0.210 HD
ENDROOT
BRANCH   5  11
HETATM   11  O   UNK N   1      22.864  16.259   6.806  0.00  0.00    -0.387 OA
HETATM   12  H   UNK N   1      23.808  16.041   6.765  0.00  0.00     0.210 HD
ENDBRANCH   5  11
BRANCH   7  13
HETATM   13  C   UNK N   1      21.636  15.771   4.245  0.00  0.00     0.124 C 
BRANCH  13  14
HETATM   14  C   UNK N   1      22.142  14.663   3.294  0.00  0.00     0.014 C 
HETATM   15  C   UNK N   1      23.029  15.086   2.131  0.00  0.00     0.006 C 
ENDBRANCH  13  14
BRANCH  13  16
HETATM   16  C   UNK N   1      20.845  16.878   3.534  0.00  0.00     0.121 C 
HETATM   17  N   UNK N   1      21.105  18.142   3.634  0.00  0.00    -0.371 N 
ATOM     18  HN  UNK N   1      20.508  18.783   3.113  1.00  0.00     0.161 HD
BRANCH  17  19
HETATM   19  C   UNK N   1      22.167  18.721   4.417  0.00  0.00     0.148 C 
BRANCH  19  20
HETATM   20  C   UNK N   1      23.516  18.602   3.791  0.00  0.00    -0.011 C 
HETATM   21  C   UNK N   1      24.613  18.216   4.465  0.00  0.00    -0.029 C 
BRANCH  21  22
HETATM   22  C   UNK N   1      25.907  18.376   3.806  0.00  0.00     0.033 C 
HETATM   23  C   UNK N   1      26.816  17.500   4.234  0.00  0.00     0.014 C 
HETATM   24  C   UNK N   1      26.456  16.039   4.316  0.00  0.00     0.012 C 
BRANCH  23  25
HETATM   25  C   UNK N   1      27.650  18.101   5.361  0.00  0.00     0.131 C 
BRANCH  25  26
HETATM   26  C   UNK N   1      28.810  17.205   5.930  0.00  0.00     0.042 C 
HETATM   27  C   UNK N   1      30.188  17.606   5.409  0.00  0.00     0.015 C 
BRANCH  26  28
HETATM   28  C   UNK N   1      28.832  17.078   7.475  0.00  0.00     0.160 C 
HETATM   29  C   UNK N   1      28.444  18.381   8.222  0.00  0.00     0.179 C 
HETATM   30  C   UNK N   1      29.732  18.738   8.978  0.00  0.00     0.182 C 
HETATM   31  C   UNK N   1      30.721  18.113   8.034  0.00  0.00     0.176 C 
HETATM   32  O   UNK N   1      30.156  16.856   7.804  0.00  0.00    -0.371 OA
BRANCH  29  33
HETATM   33  O   UNK N   1      27.363  18.204   9.090  0.00  0.00    -0.390 OA
HETATM   34  H   UNK N   1      27.097  18.632   9.918  0.00  0.00     0.210 HD
ENDBRANCH  29  33
BRANCH  30  35
HETATM   35  O   UNK N   1      29.789  18.058  10.199  0.00  0.00    -0.390 OA
HETATM   36  H   UNK N   1      30.184  17.372  10.759  0.00  0.00     0.210 HD
ENDBRANCH  30  35
BRANCH  31  37
HETATM   37  C   UNK N   1      32.091  17.771   8.459  0.00  0.00     0.007 C 
HETATM   38  C   UNK N   1      33.204  17.618   7.738  0.00  0.00    -0.001 C 
BRANCH  38  39
HETATM   39  C   UNK N   1      34.384  17.144   8.505  0.00  0.00    -0.000 C 
HETATM   40  C   UNK N   1      34.199  16.632   9.749  0.00  0.00     0.001 C 
BRANCH  40  41
HETATM   41  C   UNK N   1      35.188  15.833  10.480  0.00  0.00     0.011 C 
HETATM   42  C   UNK N   1      35.145  14.481  10.469  0.00  0.00    -0.011 C 
HETATM   43  C   UNK N   1      34.125  13.750   9.636  0.00  0.00     0.052 C 
BRANCH  42  44
HETATM   44  C   UNK N   1      36.066  13.696  11.334  0.00  0.00     0.196 C 
HETATM   45  O   UNK N   1      37.159  13.374  10.890  0.00  0.00    -0.287 OA
BRANCH  44  46
HETATM   46  C   UNK N   1      35.689  13.262  12.717  0.00  0.00     0.116 A 
HETATM   47  C   UNK N   1      36.073  14.045  13.822  0.00  0.00     0.086 A 
HETATM   48  C   UNK N   1      35.722  13.655  15.111  0.00  0.00     0.055 A 
HETATM   49  C   UNK N   1      34.971  12.501  15.307  0.00  0.00     0.096 A 
HETATM   50  N   UNK N   1      34.572  11.747  14.250  0.00  0.00    -0.328 N 
HETATM   51  C   UNK N   1      33.757  10.571  14.513  0.00  0.00     0.159 C 
HETATM   52  C   UNK N   1      34.912  12.097  12.959  0.00  0.00     0.264 A 
HETATM   53  O   UNK N   1      34.504  11.421  12.024  0.00  0.00    -0.267 OA
BRANCH  47  54
HETATM   54  O   UNK N   1      36.808  15.157  13.653  0.00  0.00    -0.359 OA
HETATM   55  H   UNK N   1      36.390  15.968  13.441  0.00  0.00     0.217 HD
ENDBRANCH  47  54
ENDBRANCH  44  46
ENDBRANCH  42  44
ENDBRANCH  40  41
ENDBRANCH  38  39
ENDBRANCH  31  37
ENDBRANCH  26  28
ENDBRANCH  25  26
BRANCH  25  56
HETATM   56  O   UNK N   1      28.082  19.405   5.010  0.00  0.00    -0.390 OA
HETATM   57  C   UNK N   1      27.459  20.360   5.832  0.00  0.00     0.202 C 
ENDBRANCH  25  56
ENDBRANCH  23  25
ENDBRANCH  21  22
ENDBRANCH  19  20
ENDBRANCH  17  19
BRANCH  16  58
HETATM   58  O   UNK N   1      19.807  16.509   2.760  0.00  0.00    -0.349 OA
HETATM   59  H   UNK N   1      19.408  15.674   2.613  0.00  0.00     0.219 HD
ENDBRANCH  16  58
ENDBRANCH  13  16
ENDBRANCH   7  13
BRANCH   7  60
HETATM   60  O   UNK N   1      19.619  15.285   5.503  0.00  0.00    -0.363 OA
HETATM   61  H   UNK N   1      18.679  15.201   5.728  0.00  0.00     0.213 HD
ENDBRANCH   7  60
BRANCH   3  62
HETATM   62  C   UNK N   1      21.020  11.866   6.798  0.00  0.00     0.006 C 
HETATM   63  C   UNK N   1      21.624  11.394   5.690  0.00  0.00    -0.002 C 
BRANCH  63  64
HETATM   64  C   UNK N   1      21.897   9.955   5.486  0.00  0.00    -0.005 C 
HETATM   65  C   UNK N   1      22.984   9.350   5.997  0.00  0.00    -0.031 C 
HETATM   66  C   UNK N   1      24.011  10.078   6.811  0.00  0.00     0.036 C 
ENDBRANCH  63  64
ENDBRANCH   3  62
TORSDOF 23
ENDMDL
MODEL 7
REMARK VINA RESULT:      -8.2      2.425      3.620
REMARK  23 active torsions:
REMARK  status: ('A' for Active; 'I' for Inactive)
REMARK    1  A    between atoms: C_29  and  C_11 
REMARK    2  A    between atoms: C_14  and  C_12 
REMARK    3  A    between atoms: C_16  and  C_13 
REMARK    4  A    between atoms: C_19  and  C_15 
REMARK    5  A    between atoms: C_20  and  C_17 
REMARK    6  A    between atoms: C_24  and  C_18 
REMARK    7  A    between atoms: C_31  and  C_21 
REMARK    8  A    between atoms: C_32  and  C_22 
REMARK    9  A    between atoms: N_45  and  C_24 
REMARK   10  A    between atoms: C_34  and  C_26 
REMARK   11  A    between atoms: C_37  and  C_27 
REMARK   12  A    between atoms: C_37  and  C_28 
REMARK   13  A    between atoms: C_38  and  C_28 
REMARK   14  A    between atoms: C_29  and  C_41 
REMARK   15  A    between atoms: C_44  and  C_29 
REMARK   16  A    between atoms: O_48  and  C_30 
REMARK   17  A    between atoms: C_34  and  C_33 
REMARK   18  A    between atoms: C_35  and  O_50 
REMARK   19  A    between atoms: C_36  and  O_51 
REMARK   20  A    between atoms: C_37  and  O_57 
REMARK   21  A    between atoms: C_40  and  O_53 
REMARK   22  A    between atoms: O_54  and  C_41 
REMARK   23  A    between atoms: C_44  and  O_56 
ROOT
HETATM    1  C   UNK N   1      35.266   9.596  15.605  0.00  0.00     0.020 C 
HETATM    2  C   UNK N   1      33.625  10.645  14.104  0.00  0.00     0.020 C 
HETATM    3  C   UNK N   1      35.622  11.987  14.855  0.00  0.00     0.158 C 
HETATM    4  C   UNK N   1      35.957  10.111  13.231  0.00  0.00     0.162 C 
HETATM    5  C   UNK N   1      35.949  11.170  12.103  0.00  0.00     0.210 C 
HETATM    6  C   UNK N   1      35.109  10.583  14.457  0.00  0.00     0.011 C 
HETATM    7  C   UNK N   1      36.307  12.567  12.686  0.00  0.00     0.202 C 
HETATM    8  O   UNK N   1      37.282   9.889  13.628  0.00  0.00    -0.392 OA
HETATM    9  O   UNK N   1      35.425  12.860  13.754  0.00  0.00    -0.342 OA
HETATM   10  H   UNK N   1      38.191   9.596  13.798  0.00  0.00     0.210 HD
ENDROOT
BRANCH   5  11
HETATM   11  O   UNK N   1      34.677  11.205  11.522  0.00  0.00    -0.387 OA
HETATM   12  H   UNK N   1      33.731  11.070  11.352  0.00  0.00     0.210 HD
ENDBRANCH   5  11
BRANCH   7  13
HETATM   13  C   UNK N   1      36.137  13.688  11.609  0.00  0.00     0.124 C 
BRANCH  13  14
HETATM   14  C   UNK N   1      35.835  15.101  12.156  0.00  0.00     0.014 C 
HETATM   15  C   UNK N   1      35.807  16.250  11.158  0.00  0.00     0.006 C 
ENDBRANCH  13  14
BRANCH  13  16
HETATM   16  C   UNK N   1      37.185  13.673  10.488  0.00  0.00     0.121 C 
HETATM   17  N   UNK N   1      36.906  13.615   9.226  0.00  0.00    -0.371 N 
ATOM     18  HN  UNK N   1      37.691  13.612   8.574  1.00  0.00     0.161 HD
BRANCH  17  19
HETATM   19  C   UNK N   1      35.581  13.555   8.661  0.00  0.00     0.148 C 
BRANCH  19  20
HETATM   20  C   UNK N   1      35.352  14.523   7.550  0.00  0.00    -0.011 C 
HETATM   21  C   UNK N   1      34.950  15.792   7.744  0.00  0.00    -0.029 C 
BRANCH  21  22
HETATM   22  C   UNK N   1      34.528  16.557   6.574  0.00  0.00     0.033 C 
HETATM   23  C   UNK N   1      33.499  17.365   6.830  0.00  0.00     0.014 C 
HETATM   24  C   UNK N   1      33.543  18.259   8.043  0.00  0.00     0.012 C 
BRANCH  23  25
HETATM   25  C   UNK N   1      32.181  16.679   6.488  0.00  0.00     0.131 C 
BRANCH  25  26
HETATM   26  C   UNK N   1      32.278  15.348   5.656  0.00  0.00     0.042 C 
HETATM   27  C   UNK N   1      31.762  14.128   6.416  0.00  0.00     0.015 C 
BRANCH  26  28
HETATM   28  C   UNK N   1      31.638  15.417   4.246  0.00  0.00     0.160 C 
HETATM   29  C   UNK N   1      31.153  16.833   3.840  0.00  0.00     0.179 C 
HETATM   30  C   UNK N   1      29.634  16.648   3.704  0.00  0.00     0.182 C 
HETATM   31  C   UNK N   1      29.460  15.528   4.691  0.00  0.00     0.176 C 
HETATM   32  O   UNK N   1      30.489  14.653   4.329  0.00  0.00    -0.371 OA
BRANCH  29  33
HETATM   33  O   UNK N   1      31.731  17.281   2.650  0.00  0.00    -0.390 OA
HETATM   34  H   UNK N   1      31.646  18.097   2.133  0.00  0.00     0.210 HD
ENDBRANCH  29  33
BRANCH  30  35
HETATM   35  O   UNK N   1      29.310  16.175   2.428  0.00  0.00    -0.390 OA
HETATM   36  H   UNK N   1      28.899  15.502   1.863  0.00  0.00     0.210 HD
ENDBRANCH  30  35
BRANCH  31  37
HETATM   37  C   UNK N   1      28.276  14.649   4.667  0.00  0.00     0.007 C 
HETATM   38  C   UNK N   1      28.192  13.317   4.641  0.00  0.00    -0.001 C 
BRANCH  38  39
HETATM   39  C   UNK N   1      26.815  12.781   4.495  0.00  0.00    -0.000 C 
HETATM   40  C   UNK N   1      25.881  13.102   5.427  0.00  0.00     0.001 C 
BRANCH  40  41
HETATM   41  C   UNK N   1      24.435  12.938   5.253  0.00  0.00     0.011 C 
HETATM   42  C   UNK N   1      23.555  13.539   6.086  0.00  0.00    -0.011 C 
HETATM   43  C   UNK N   1      24.033  14.467   7.172  0.00  0.00     0.052 C 
BRANCH  42  44
HETATM   44  C   UNK N   1      22.100  13.242   5.981  0.00  0.00     0.196 C 
HETATM   45  O   UNK N   1      21.700  12.135   6.316  0.00  0.00    -0.287 OA
BRANCH  44  46
HETATM   46  C   UNK N   1      21.117  14.239   5.453  0.00  0.00     0.116 A 
HETATM   47  C   UNK N   1      20.218  14.867   6.336  0.00  0.00     0.086 A 
HETATM   48  C   UNK N   1      19.304  15.801   5.857  0.00  0.00     0.055 A 
HETATM   49  C   UNK N   1      19.293  16.132   4.506  0.00  0.00     0.096 A 
HETATM   50  N   UNK N   1      20.169  15.553   3.645  0.00  0.00    -0.328 N 
HETATM   51  C   UNK N   1      20.136  15.965   2.250  0.00  0.00     0.159 C 
HETATM   52  C   UNK N   1      21.081  14.614   4.083  0.00  0.00     0.264 A 
HETATM   53  O   UNK N   1      21.885  14.140   3.291  0.00  0.00    -0.267 OA
BRANCH  47  54
HETATM   54  O   UNK N   1      20.207  14.553   7.642  0.00  0.00    -0.359 OA
HETATM   55  H   UNK N   1      20.852  13.970   7.991  0.00  0.00     0.217 HD
ENDBRANCH  47  54
ENDBRANCH  44  46
ENDBRANCH  42  44
ENDBRANCH  40  41
ENDBRANCH  38  39
ENDBRANCH  31  37
ENDBRANCH  26  28
ENDBRANCH  25  26
BRANCH  25  56
HETATM   56  O   UNK N   1      31.379  16.546   7.650  0.00  0.00    -0.390 OA
HETATM   57  C   UNK N   1      30.265  17.398   7.571  0.00  0.00     0.202 C 
ENDBRANCH  25  56
ENDBRANCH  23  25
ENDBRANCH  21  22
ENDBRANCH  19  20
ENDBRANCH  17  19
BRANCH  16  58
HETATM   58  O   UNK N   1      38.483  13.718  10.843  0.00  0.00    -0.349 OA
HETATM   59  H   UNK N   1      38.898  13.720  11.683  0.00  0.00     0.219 HD
ENDBRANCH  16  58
ENDBRANCH  13  16
ENDBRANCH   7  13
BRANCH   7  60
HETATM   60  O   UNK N   1      37.622  12.555  13.158  0.00  0.00    -0.363 OA
HETATM   61  H   UNK N   1      38.422  12.759  13.667  0.00  0.00     0.213 HD
ENDBRANCH   7  60
BRANCH   3  62
HETATM   62  C   UNK N   1      34.987  12.648  16.053  0.00  0.00     0.006 C 
HETATM   63  C   UNK N   1      35.781  13.315  16.912  0.00  0.00    -0.002 C 
BRANCH  63  64
HETATM   64  C   UNK N   1      35.251  14.027  18.095  0.00  0.00    -0.005 C 
HETATM   65  C   UNK N   1      35.077  13.418  19.282  0.00  0.00    -0.031 C 
HETATM   66  C   UNK N   1      35.399  11.972  19.507  0.00  0.00     0.036 C 
ENDBRANCH  63  64
ENDBRANCH   3  62
TORSDOF 23
ENDMDL
MODEL 8
REMARK VINA RESULT:      -8.0      4.430      8.914
REMARK  23 active torsions:
REMARK  status: ('A' for Active; 'I' for Inactive)
REMARK    1  A    between atoms: C_29  and  C_11 
REMARK    2  A    between atoms: C_14  and  C_12 
REMARK    3  A    between atoms: C_16  and  C_13 
REMARK    4  A    between atoms: C_19  and  C_15 
REMARK    5  A    between atoms: C_20  and  C_17 
REMARK    6  A    between atoms: C_24  and  C_18 
REMARK    7  A    between atoms: C_31  and  C_21 
REMARK    8  A    between atoms: C_32  and  C_22 
REMARK    9  A    between atoms: N_45  and  C_24 
REMARK   10  A    between atoms: C_34  and  C_26 
REMARK   11  A    between atoms: C_37  and  C_27 
REMARK   12  A    between atoms: C_37  and  C_28 
REMARK   13  A    between atoms: C_38  and  C_28 
REMARK   14  A    between atoms: C_29  and  C_41 
REMARK   15  A    between atoms: C_44  and  C_29 
REMARK   16  A    between atoms: O_48  and  C_30 
REMARK   17  A    between atoms: C_34  and  C_33 
REMARK   18  A    between atoms: C_35  and  O_50 
REMARK   19  A    between atoms: C_36  and  O_51 
REMARK   20  A    between atoms: C_37  and  O_57 
REMARK   21  A    between atoms: C_40  and  O_53 
REMARK   22  A    between atoms: O_54  and  C_41 
REMARK   23  A    between atoms: C_44  and  O_56 
ROOT
HETATM    1  C   UNK N   1      35.670  10.029  15.358  0.00  0.00     0.020 C 
HETATM    2  C   UNK N   1      33.832  10.714  13.876  0.00  0.00     0.020 C 
HETATM    3  C   UNK N   1      35.661  12.370  14.395  0.00  0.00     0.158 C 
HETATM    4  C   UNK N   1      36.171  10.417  12.913  0.00  0.00     0.162 C 
HETATM    5  C   UNK N   1      35.965  11.361  11.704  0.00  0.00     0.210 C 
HETATM    6  C   UNK N   1      35.326  10.880  14.144  0.00  0.00     0.011 C 
HETATM    7  C   UNK N   1      36.155  12.839  12.149  0.00  0.00     0.202 C 
HETATM    8  O   UNK N   1      37.531  10.408  13.248  0.00  0.00    -0.392 OA
HETATM    9  O   UNK N   1      35.294  13.107  13.240  0.00  0.00    -0.342 OA
HETATM   10  H   UNK N   1      38.479  10.253  13.387  0.00  0.00     0.210 HD
ENDROOT
BRANCH   5  11
HETATM   11  O   UNK N   1      34.673  11.175  11.199  0.00  0.00    -0.387 OA
HETATM   12  H   UNK N   1      33.756  11.325  10.921  0.00  0.00     0.210 HD
ENDBRANCH   5  11
BRANCH   7  13
HETATM   13  C   UNK N   1      35.783  13.827  10.995  0.00  0.00     0.124 C 
BRANCH  13  14
HETATM   14  C   UNK N   1      34.386  14.478  11.098  0.00  0.00     0.014 C 
HETATM   15  C   UNK N   1      33.509  14.463   9.853  0.00  0.00     0.006 C 
ENDBRANCH  13  14
BRANCH  13  16
HETATM   16  C   UNK N   1      36.893  14.810  10.601  0.00  0.00     0.121 C 
HETATM   17  N   UNK N   1      37.859  14.534   9.786  0.00  0.00    -0.371 N 
ATOM     18  HN  UNK N   1      38.539  15.272   9.601  1.00  0.00     0.161 HD
BRANCH  17  19
HETATM   19  C   UNK N   1      38.058  13.273   9.116  0.00  0.00     0.148 C 
BRANCH  19  20
HETATM   20  C   UNK N   1      39.463  12.776   9.166  0.00  0.00    -0.011 C 
HETATM   21  C   UNK N   1      39.907  11.737   8.436  0.00  0.00    -0.029 C 
BRANCH  21  22
HETATM   22  C   UNK N   1      41.225  11.196   8.756  0.00  0.00     0.033 C 
HETATM   23  C   UNK N   1      42.029  11.135   7.694  0.00  0.00     0.014 C 
HETATM   24  C   UNK N   1      42.169  12.341   6.801  0.00  0.00     0.012 C 
BRANCH  23  25
HETATM   25  C   UNK N   1      41.951   9.760   7.041  0.00  0.00     0.131 C 
BRANCH  25  26
HETATM   26  C   UNK N   1      41.683   9.733   5.491  0.00  0.00     0.042 C 
HETATM   27  C   UNK N   1      42.687   8.875   4.724  0.00  0.00     0.015 C 
BRANCH  26  28
HETATM   28  C   UNK N   1      40.233   9.357   5.091  0.00  0.00     0.160 C 
HETATM   29  C   UNK N   1      40.054   9.044   3.583  0.00  0.00     0.179 C 
HETATM   30  C   UNK N   1      39.102  10.153   3.114  0.00  0.00     0.182 C 
HETATM   31  C   UNK N   1      39.490  11.211   4.110  0.00  0.00     0.176 C 
HETATM   32  O   UNK N   1      39.486  10.498   5.312  0.00  0.00    -0.371 OA
BRANCH  29  33
HETATM   33  O   UNK N   1      39.523   7.771   3.356  0.00  0.00    -0.390 OA
HETATM   34  H   UNK N   1      38.805   7.265   3.768  0.00  0.00     0.210 HD
ENDBRANCH  29  33
BRANCH  30  35
HETATM   35  O   UNK N   1      37.772   9.788   3.345  0.00  0.00    -0.390 OA
HETATM   36  H   UNK N   1      36.981   9.811   3.907  0.00  0.00     0.210 HD
ENDBRANCH  30  35
BRANCH  31  37
HETATM   37  C   UNK N   1      38.606  12.351   4.416  0.00  0.00     0.007 C 
HETATM   38  C   UNK N   1      37.729  12.520   5.408  0.00  0.00    -0.001 C 
BRANCH  38  39
HETATM   39  C   UNK N   1      36.920  13.762   5.321  0.00  0.00    -0.000 C 
HETATM   40  C   UNK N   1      36.031  14.039   6.308  0.00  0.00     0.001 C 
BRANCH  40  41
HETATM   41  C   UNK N   1      35.418  15.351   6.537  0.00  0.00     0.011 C 
HETATM   42  C   UNK N   1      34.106  15.566   6.287  0.00  0.00    -0.011 C 
HETATM   43  C   UNK N   1      33.212  14.439   5.842  0.00  0.00     0.052 C 
BRANCH  42  44
HETATM   44  C   UNK N   1      33.540  16.939   6.386  0.00  0.00     0.196 C 
HETATM   45  O   UNK N   1      34.251  17.892   6.096  0.00  0.00    -0.287 OA
BRANCH  44  46
HETATM   46  C   UNK N   1      32.141  17.194   6.855  0.00  0.00     0.116 A 
HETATM   47  C   UNK N   1      31.907  17.520   8.204  0.00  0.00     0.086 A 
HETATM   48  C   UNK N   1      30.612  17.766   8.650  0.00  0.00     0.055 A 
HETATM   49  C   UNK N   1      29.547  17.711   7.756  0.00  0.00     0.096 A 
HETATM   50  N   UNK N   1      29.759  17.421   6.446  0.00  0.00    -0.328 N 
HETATM   51  C   UNK N   1      28.613  17.414   5.549  0.00  0.00     0.159 C 
HETATM   52  C   UNK N   1      31.029  17.160   5.972  0.00  0.00     0.264 A 
HETATM   53  O   UNK N   1      31.193  16.942   4.779  0.00  0.00    -0.267 OA
BRANCH  47  54
HETATM   54  O   UNK N   1      32.920  17.568   9.085  0.00  0.00    -0.359 OA
HETATM   55  H   UNK N   1      33.785  17.784   8.795  0.00  0.00     0.217 HD
ENDBRANCH  47  54
ENDBRANCH  44  46
ENDBRANCH  42  44
ENDBRANCH  40  41
ENDBRANCH  38  39
ENDBRANCH  31  37
ENDBRANCH  26  28
ENDBRANCH  25  26
BRANCH  25  56
HETATM   56  O   UNK N   1      43.067   8.971   7.421  0.00  0.00    -0.390 OA
HETATM   57  C   UNK N   1      42.636   7.820   8.103  0.00  0.00     0.202 C 
ENDBRANCH  25  56
ENDBRANCH  23  25
ENDBRANCH  21  22
ENDBRANCH  19  20
ENDBRANCH  17  19
BRANCH  16  58
HETATM   58  O   UNK N   1      36.863  16.041  11.145  0.00  0.00    -0.349 OA
HETATM   59  H   UNK N   1      36.204  16.485  11.643  0.00  0.00     0.219 HD
ENDBRANCH  16  58
ENDBRANCH  13  16
ENDBRANCH   7  13
BRANCH   7  60
HETATM   60  O   UNK N   1      37.481  13.043  12.542  0.00  0.00    -0.363 OA
HETATM   61  H   UNK N   1      38.423  13.272  12.527  0.00  0.00     0.213 HD
ENDBRANCH   7  60
BRANCH   3  62
HETATM   62  C   UNK N   1      34.999  13.045  15.570  0.00  0.00     0.006 C 
HETATM   63  C   UNK N   1      35.751  13.334  16.649  0.00  0.00    -0.002 C 
BRANCH  63  64
HETATM   64  C   UNK N   1      35.205  14.028  17.835  0.00  0.00    -0.005 C 
HETATM   65  C   UNK N   1      35.037  13.406  19.017  0.00  0.00    -0.031 C 
HETATM   66  C   UNK N   1      35.381  11.964  19.231  0.00  0.00     0.036 C 
ENDBRANCH  63  64
ENDBRANCH   3  62
TORSDOF 23
ENDMDL
MODEL 9
REMARK VINA RESULT:      -7.9      4.652      8.897
REMARK  23 active torsions:
REMARK  status: ('A' for Active; 'I' for Inactive)
REMARK    1  A    between atoms: C_29  and  C_11 
REMARK    2  A    between atoms: C_14  and  C_12 
REMARK    3  A    between atoms: C_16  and  C_13 
REMARK    4  A    between atoms: C_19  and  C_15 
REMARK    5  A    between atoms: C_20  and  C_17 
REMARK    6  A    between atoms: C_24  and  C_18 
REMARK    7  A    between atoms: C_31  and  C_21 
REMARK    8  A    between atoms: C_32  and  C_22 
REMARK    9  A    between atoms: N_45  and  C_24 
REMARK   10  A    between atoms: C_34  and  C_26 
REMARK   11  A    between atoms: C_37  and  C_27 
REMARK   12  A    between atoms: C_37  and  C_28 
REMARK   13  A    between atoms: C_38  and  C_28 
REMARK   14  A    between atoms: C_29  and  C_41 
REMARK   15  A    between atoms: C_44  and  C_29 
REMARK   16  A    between atoms: O_48  and  C_30 
REMARK   17  A    between atoms: C_34  and  C_33 
REMARK   18  A    between atoms: C_35  and  O_50 
REMARK   19  A    between atoms: C_36  and  O_51 
REMARK   20  A    between atoms: C_37  and  O_57 
REMARK   21  A    between atoms: C_40  and  O_53 
REMARK   22  A    between atoms: O_54  and  C_41 
REMARK   23  A    between atoms: C_44  and  O_56 
ROOT
HETATM    1  C   UNK N   1      34.689  10.417  16.632  0.00  0.00     0.020 C 
HETATM    2  C   UNK N   1      36.991  10.623  15.794  0.00  0.00     0.020 C 
HETATM    3  C   UNK N   1      35.080  10.798  14.160  0.00  0.00     0.158 C 
HETATM    4  C   UNK N   1      35.470  12.665  15.783  0.00  0.00     0.162 C 
HETATM    5  C   UNK N   1      36.214  13.410  14.650  0.00  0.00     0.210 C 
HETATM    6  C   UNK N   1      35.560  11.115  15.596  0.00  0.00     0.011 C 
HETATM    7  C   UNK N   1      35.762  12.859  13.268  0.00  0.00     0.202 C 
HETATM    8  O   UNK N   1      34.127  13.066  15.776  0.00  0.00    -0.392 OA
HETATM    9  O   UNK N   1      35.945  11.456  13.248  0.00  0.00    -0.342 OA
HETATM   10  H   UNK N   1      33.246  13.451  15.901  0.00  0.00     0.210 HD
ENDROOT
BRANCH   5  11
HETATM   11  O   UNK N   1      37.591  13.224  14.813  0.00  0.00    -0.387 OA
HETATM   12  H   UNK N   1      38.503  13.289  15.136  0.00  0.00     0.210 HD
ENDBRANCH   5  11
BRANCH   7  13
HETATM   13  C   UNK N   1      36.620  13.467  12.110  0.00  0.00     0.124 C 
BRANCH  13  14
HETATM   14  C   UNK N   1      37.728  12.549  11.547  0.00  0.00     0.014 C 
HETATM   15  C   UNK N   1      38.645  13.129  10.478  0.00  0.00     0.006 C 
ENDBRANCH  13  14
BRANCH  13  16
HETATM   16  C   UNK N   1      35.819  14.200  11.026  0.00  0.00     0.121 C 
HETATM   17  N   UNK N   1      35.207  13.615  10.047  0.00  0.00    -0.371 N 
ATOM     18  HN  UNK N   1      34.706  14.210   9.388  1.00  0.00     0.161 HD
BRANCH  17  19
HETATM   19  C   UNK N   1      35.174  12.194   9.808  0.00  0.00     0.148 C 
BRANCH  19  20
HETATM   20  C   UNK N   1      33.834  11.680   9.401  0.00  0.00    -0.011 C 
HETATM   21  C   UNK N   1      33.567  10.375   9.215  0.00  0.00    -0.029 C 
BRANCH  21  22
HETATM   22  C   UNK N   1      32.297  10.025   8.584  0.00  0.00     0.033 C 
HETATM   23  C   UNK N   1      32.022   8.723   8.667  0.00  0.00     0.014 C 
HETATM   24  C   UNK N   1      32.149   8.021   9.995  0.00  0.00     0.012 C 
BRANCH  23  25
HETATM   25  C   UNK N   1      32.503   7.994   7.417  0.00  0.00     0.131 C 
BRANCH  25  26
HETATM   26  C   UNK N   1      33.998   7.505   7.422  0.00  0.00     0.042 C 
HETATM   27  C   UNK N   1      34.146   6.034   7.801  0.00  0.00     0.015 C 
BRANCH  26  28
HETATM   28  C   UNK N   1      34.783   7.810   6.120  0.00  0.00     0.160 C 
HETATM   29  C   UNK N   1      36.203   7.188   6.076  0.00  0.00     0.179 C 
HETATM   30  C   UNK N   1      37.115   8.422   6.032  0.00  0.00     0.182 C 
HETATM   31  C   UNK N   1      36.219   9.384   6.761  0.00  0.00     0.176 C 
HETATM   32  O   UNK N   1      34.989   9.177   6.131  0.00  0.00    -0.371 OA
BRANCH  29  33
HETATM   33  O   UNK N   1      36.394   6.359   4.968  0.00  0.00    -0.390 OA
HETATM   34  H   UNK N   1      36.420   5.396   4.853  0.00  0.00     0.210 HD
ENDBRANCH  29  33
BRANCH  30  35
HETATM   35  O   UNK N   1      37.274   8.868   4.716  0.00  0.00    -0.390 OA
HETATM   36  H   UNK N   1      36.923   8.969   3.817  0.00  0.00     0.210 HD
ENDBRANCH  30  35
BRANCH  31  37
HETATM   37  C   UNK N   1      36.391  10.844   6.646  0.00  0.00     0.007 C 
HETATM   38  C   UNK N   1      37.464  11.606   6.869  0.00  0.00    -0.001 C 
BRANCH  38  39
HETATM   39  C   UNK N   1      37.223  13.068   6.768  0.00  0.00    -0.000 C 
HETATM   40  C   UNK N   1      35.987  13.510   6.422  0.00  0.00     0.001 C 
BRANCH  40  41
HETATM   41  C   UNK N   1      35.510  14.884   6.604  0.00  0.00     0.011 C 
HETATM   42  C   UNK N   1      34.189  15.176   6.587  0.00  0.00    -0.011 C 
HETATM   43  C   UNK N   1      33.160  14.083   6.464  0.00  0.00     0.052 C 
BRANCH  42  44
HETATM   44  C   UNK N   1      33.734  16.593   6.626  0.00  0.00     0.196 C 
HETATM   45  O   UNK N   1      34.536  17.476   6.356  0.00  0.00    -0.287 OA
BRANCH  44  46
HETATM   46  C   UNK N   1      32.338  16.973   7.011  0.00  0.00     0.116 A 
HETATM   47  C   UNK N   1      32.045  17.282   8.352  0.00  0.00     0.086 A 
HETATM   48  C   UNK N   1      30.753  17.643   8.721  0.00  0.00     0.055 A 
HETATM   49  C   UNK N   1      29.752  17.722   7.757  0.00  0.00     0.096 A 
HETATM   50  N   UNK N   1      30.024  17.451   6.454  0.00  0.00    -0.328 N 
HETATM   51  C   UNK N   1      28.947  17.585   5.485  0.00  0.00     0.159 C 
HETATM   52  C   UNK N   1      31.291  17.077   6.056  0.00  0.00     0.264 A 
HETATM   53  O   UNK N   1      31.515  16.879   4.869  0.00  0.00    -0.267 OA
BRANCH  47  54
HETATM   54  O   UNK N   1      32.995  17.201   9.299  0.00  0.00    -0.359 OA
HETATM   55  H   UNK N   1      33.357  16.369   9.531  0.00  0.00     0.217 HD
ENDBRANCH  47  54
ENDBRANCH  44  46
ENDBRANCH  42  44
ENDBRANCH  40  41
ENDBRANCH  38  39
ENDBRANCH  31  37
ENDBRANCH  26  28
ENDBRANCH  25  26
BRANCH  25  56
HETATM   56  O   UNK N   1      31.589   6.968   7.064  0.00  0.00    -0.390 OA
HETATM   57  C   UNK N   1      30.933   7.296   5.865  0.00  0.00     0.202 C 
ENDBRANCH  25  56
ENDBRANCH  23  25
ENDBRANCH  21  22
ENDBRANCH  19  20
ENDBRANCH  17  19
BRANCH  16  58
HETATM   58  O   UNK N   1      35.752  15.543  11.095  0.00  0.00    -0.349 OA
HETATM   59  H   UNK N   1      35.128  16.114  11.498  0.00  0.00     0.219 HD
ENDBRANCH  16  58
ENDBRANCH  13  16
ENDBRANCH   7  13
BRANCH   7  60
HETATM   60  O   UNK N   1      34.411  13.154  13.064  0.00  0.00    -0.363 OA
HETATM   61  H   UNK N   1      33.451  13.220  13.189  0.00  0.00     0.213 HD
ENDBRANCH   7  60
BRANCH   3  62
HETATM   62  C   UNK N   1      35.031   9.349  13.745  0.00  0.00     0.006 C 
HETATM   63  C   UNK N   1      35.083   9.057  12.431  0.00  0.00    -0.002 C 
BRANCH  63  64
HETATM   64  C   UNK N   1      35.080   7.668  11.925  0.00  0.00    -0.005 C 
HETATM   65  C   UNK N   1      35.782   7.298  10.838  0.00  0.00    -0.031 C 
HETATM   66  C   UNK N   1      36.620   8.256  10.048  0.00  0.00     0.036 C 
ENDBRANCH  63  64
ENDBRANCH   3  62
TORSDOF 23
ENDMDL
