REMARK  5 active torsions:
REMARK  status: ('A' for Active; 'I' for Inactive)
REMARK    1  A    between atoms: C_8  and  C_5 
REMARK    2  A    between atoms: C_9  and  C_5 
REMARK    3  A    between atoms: C_9  and  C_7 
REMARK    4  A    between atoms: O_14  and  C_7 
REMARK    5  A    between atoms: C_9  and  N_12 
ROOT
HETATM    1  C   UNK N   1       4.388   1.842   0.240  0.00  0.00     0.001 A 
HETATM    2  C   UNK N   1       4.246   3.189  -0.164  0.00  0.00     0.002 A 
HETATM    3  C   UNK N   1       3.252   1.041   0.449  0.00  0.00     0.014 A 
HETATM    4  C   UNK N   1       2.967   3.742  -0.361  0.00  0.00     0.030 A 
HETATM    5  C   UNK N   1      -0.143   2.143   0.051  0.00  0.00     0.096 A 
HETATM    6  C   UNK N   1       0.730   1.105   0.364  0.00  0.00    -0.028 A 
HETATM    7  C   UNK N   1       1.999   1.615   0.235  0.00  0.00    -0.002 A 
HETATM    8  C   UNK N   1       1.865   2.918  -0.152  0.00  0.00     0.042 A 
HETATM    9  N   UNK N   1       0.567   3.255  -0.272  0.00  0.00    -0.365 N 
HETATM   10  H   UNK N   1       0.205   4.131  -0.539  0.00  0.00     0.165 HD
ENDROOT
BRANCH   6  11
HETATM   11  C   UNK N   1       0.333  -0.264   0.835  0.00  0.00     0.067 C 
BRANCH  11  12
HETATM   12  C   UNK N   1       0.636  -1.418  -0.123  0.00  0.00     0.101 C 
BRANCH  12  13
HETATM   13  C   UNK N   1       0.301  -2.710   0.608  0.00  0.00     0.189 C 
BRANCH  13  14
HETATM   14  O   UNK N   1       0.626  -3.821  -0.172  0.00  0.00    -0.399 OA
HETATM   15  H   UNK N   1       0.070  -4.403  -0.713  0.00  0.00     0.209 HD
ENDBRANCH  13  14
ENDBRANCH  12  13
BRANCH  12  16
HETATM   16  N   UNK N   1       2.040  -1.435  -0.497  0.00  0.00    -0.424 N 
HETATM   17  H   UNK N   1       2.523  -2.295  -0.759  0.00  0.00     0.150 HD
HETATM   18  H   UNK N   1       2.561  -0.558  -0.497  0.00  0.00     0.150 HD
ENDBRANCH  12  16
ENDBRANCH  11  12
ENDBRANCH   6  11
TORSDOF 5
