REMARK  17 active torsions:
REMARK  status: ('A' for Active; 'I' for Inactive)
REMARK    1  A    between atoms: C_25  and  C_20 
REMARK    2  A    between atoms: N_36  and  C_20 
REMARK    3  A    between atoms: C_26  and  C_21 
REMARK    4  A    between atoms: N_37  and  C_21 
REMARK    5  A    between atoms: C_27  and  C_22 
REMARK    6  A    between atoms: O_38  and  C_22 
REMARK    7  A    between atoms: C_31  and  C_23 
REMARK    8  A    between atoms: O_45  and  C_23 
REMARK    9  A    between atoms: C_32  and  C_24 
REMARK   10  A    between atoms: O_46  and  C_24 
REMARK   11  A    between atoms: C_35  and  C_28 
REMARK   12  A    between atoms: O_45  and  C_29 
REMARK   13  A    between atoms: O_46  and  C_30 
REMARK   14  A    between atoms: C_33  and  O_39 
REMARK   15  A    between atoms: C_34  and  O_40 
REMARK   16  A    between atoms: C_35  and  O_41 
REMARK   17  A    between atoms: O_44  and  C_35 
ROOT
HETATM    1  C   UNK N   1      -2.892  -0.059  -0.728  0.00  0.00     0.131 C 
HETATM    2  C   UNK N   1      -2.580   3.288   0.195  0.00  0.00     0.131 C 
HETATM    3  C   UNK N   1      -1.694   0.895  -0.650  0.00  0.00     0.169 C 
HETATM    4  C   UNK N   1      -1.707   2.016   0.406  0.00  0.00     0.169 C 
HETATM    5  N   UNK N   1      -4.045   0.593  -1.359  0.00  0.00    -0.184 NA
HETATM    6  N   UNK N   1      -4.050   3.111   0.435  0.00  0.00    -0.184 NA
HETATM    7  O   UNK N   1      -5.748   1.047   0.707  0.00  0.00    -0.194 OA
HETATM    8  O   UNK N   1      -5.996   2.378  -1.288  0.00  0.00    -0.194 OA
HETATM    9  S   UNK N   1      -4.922   1.771  -0.364  0.00  0.00     0.284 S 
ENDROOT
BRANCH   6  10
HETATM   10  C   UNK N   1      -4.960   4.282   0.284  0.00  0.00     0.147 C 
BRANCH  10  11
HETATM   11  C   UNK N   1      -4.360   5.642   0.368  0.00  0.00    -0.044 A 
HETATM   12  C   UNK N   1      -3.525   6.098  -0.655  0.00  0.00     0.009 A 
HETATM   13  C   UNK N   1      -2.815   7.284  -0.494  0.00  0.00     0.012 A 
HETATM   14  C   UNK N   1      -2.963   8.042   0.673  0.00  0.00    -0.004 A 
HETATM   15  C   UNK N   1      -3.865   7.623   1.663  0.00  0.00     0.012 A 
HETATM   16  C   UNK N   1      -4.560   6.421   1.512  0.00  0.00     0.009 A 
BRANCH  14  17
HETATM   17  C   UNK N   1      -2.057   9.215   0.934  0.00  0.00     0.290 C 
BRANCH  17  18
HETATM   18  O   UNK N   1      -0.863   9.119   0.199  0.00  0.00    -0.367 OA
HETATM   19  H   UNK N   1      -0.509   8.373  -0.308  0.00  0.00     0.213 HD
ENDBRANCH  17  18
BRANCH  17  20
HETATM   20  O   UNK N   1      -2.708  10.451   0.730  0.00  0.00    -0.362 OA
HETATM   21  C   UNK N   1      -2.790  10.702  -0.651  0.00  0.00     0.205 C 
ENDBRANCH  17  20
ENDBRANCH  14  17
ENDBRANCH  10  11
ENDBRANCH   6  10
BRANCH   2  22
HETATM   22  C   UNK N   1      -2.057   4.322   1.242  0.00  0.00     0.199 C 
BRANCH  22  23
HETATM   23  O   UNK N   1      -0.681   4.445   1.360  0.00  0.00    -0.349 OA
BRANCH  23  24
HETATM   24  C   UNK N   1       0.163   5.005   0.459  0.00  0.00     0.068 A 
HETATM   25  C   UNK N   1      -0.286   5.511  -0.770  0.00  0.00     0.037 A 
HETATM   26  C   UNK N   1       0.618   6.089  -1.668  0.00  0.00     0.003 A 
HETATM   27  C   UNK N   1       1.976   6.161  -1.344  0.00  0.00     0.000 A 
HETATM   28  C   UNK N   1       2.430   5.654  -0.124  0.00  0.00     0.003 A 
HETATM   29  C   UNK N   1       1.526   5.078   0.773  0.00  0.00     0.037 A 
ENDBRANCH  23  24
ENDBRANCH  22  23
ENDBRANCH   2  22
BRANCH   4  30
HETATM   30  O   UNK N   1      -1.889   1.508   1.695  0.00  0.00    -0.391 OA
HETATM   31  H   UNK N   1      -2.258   1.442   2.590  0.00  0.00     0.210 HD
ENDBRANCH   4  30
BRANCH   5  32
HETATM   32  C   UNK N   1      -4.967  -0.324  -2.068  0.00  0.00     0.147 C 
BRANCH  32  33
HETATM   33  C   UNK N   1      -5.497  -1.455  -1.229  0.00  0.00    -0.044 A 
HETATM   34  C   UNK N   1      -6.663  -1.297  -0.472  0.00  0.00     0.009 A 
HETATM   35  C   UNK N   1      -7.115  -2.332   0.351  0.00  0.00     0.010 A 
HETATM   36  C   UNK N   1      -6.410  -3.538   0.417  0.00  0.00    -0.035 A 
HETATM   37  C   UNK N   1      -5.263  -3.711  -0.371  0.00  0.00     0.010 A 
HETATM   38  C   UNK N   1      -4.814  -2.676  -1.195  0.00  0.00     0.009 A 
BRANCH  36  39
HETATM   39  C   UNK N   1      -6.894  -4.614   1.339  0.00  0.00     0.202 C 
BRANCH  39  40
HETATM   40  O   UNK N   1      -6.043  -5.722   1.335  0.00  0.00    -0.396 OA
HETATM   41  H   UNK N   1      -6.413  -6.619   1.332  0.00  0.00     0.209 HD
ENDBRANCH  39  40
ENDBRANCH  36  39
ENDBRANCH  32  33
ENDBRANCH   5  32
BRANCH   3  42
HETATM   42  O   UNK N   1      -1.435   1.434  -1.915  0.00  0.00    -0.391 OA
HETATM   43  H   UNK N   1      -1.021   1.465  -2.792  0.00  0.00     0.210 HD
ENDBRANCH   3  42
BRANCH   1  44
HETATM   44  C   UNK N   1      -3.225  -0.725   0.629  0.00  0.00     0.199 C 
BRANCH  44  45
HETATM   45  O   UNK N   1      -2.089  -1.217   1.247  0.00  0.00    -0.349 OA
BRANCH  45  46
HETATM   46  C   UNK N   1      -1.348  -2.256   0.789  0.00  0.00     0.068 A 
HETATM   47  C   UNK N   1      -0.069  -2.456   1.316  0.00  0.00     0.037 A 
HETATM   48  C   UNK N   1       0.735  -3.496   0.839  0.00  0.00     0.003 A 
HETATM   49  C   UNK N   1       0.258  -4.345  -0.164  0.00  0.00     0.000 A 
HETATM   50  C   UNK N   1      -1.023  -4.158  -0.687  0.00  0.00     0.003 A 
HETATM   51  C   UNK N   1      -1.823  -3.115  -0.215  0.00  0.00     0.037 A 
ENDBRANCH  45  46
ENDBRANCH  44  45
ENDBRANCH   1  44
TORSDOF 17
