MODEL 1
REMARK VINA RESULT:      -5.3      0.000      0.000
REMARK  9 active torsions:
REMARK  status: ('A' for Active; 'I' for Inactive)
REMARK    1  A    between atoms: C_2  and  O_13 
REMARK    2  A    between atoms: C_4  and  C_5 
REMARK    3  A    between atoms: C_5  and  O_6 
REMARK    4  A    between atoms: C_7  and  O_8 
REMARK    5  A    between atoms: C_9  and  O_10 
REMARK    6  A    between atoms: C_11  and  O_12 
REMARK    7  A    between atoms: O_13  and  P_14 
REMARK    8  A    between atoms: P_14  and  O_15 
REMARK    9  A    between atoms: P_14  and  O_16 
ROOT
HETATM    1  C   UNK N   1      35.997  14.736   8.560  0.00  0.00     0.082 C 
HETATM    2  C   UNK N   1      34.713  15.084   9.324  0.00  0.00     0.200 C 
HETATM    3  O   UNK N   1      34.329  14.006  10.167  0.00  0.00    -0.342 OA
HETATM    4  C   UNK N   1      35.347  13.699  11.107  0.00  0.00     0.180 C 
HETATM    5  C   UNK N   1      35.541  14.870  12.089  0.00  0.00     0.180 C 
HETATM    6  C   UNK N   1      35.894  16.145  11.324  0.00  0.00     0.183 C 
HETATM    7  C   UNK N   1      34.879  16.349  10.196  0.00  0.00     0.211 C 
ENDROOT
BRANCH   2   8
HETATM    8  O   UNK N   1      33.754  15.395   8.319  0.00  0.00    -0.257 OA
BRANCH   8   9
HETATM    9  P   UNK N   1      32.162  15.928   8.853  0.00  0.00     0.393 P 
HETATM   10  O   UNK N   1      31.194  15.535   7.706  0.00  0.00    -0.631 OA
BRANCH   9  11
HETATM   11  O   UNK N   1      32.078  17.659   8.938  0.00  0.00    -0.307 OA
HETATM   12  H   UNK N   1      32.129  18.488   9.438  0.00  0.00     0.222 HD
ENDBRANCH   9  11
BRANCH   9  13
HETATM   13  O   UNK N   1      31.501  15.189  10.281  0.00  0.00    -0.307 OA
HETATM   14  H   UNK N   1      30.679  15.526  10.667  0.00  0.00     0.222 HD
ENDBRANCH   9  13
ENDBRANCH   8   9
ENDBRANCH   2   8
BRANCH   7  15
HETATM   15  O   UNK N   1      35.213  17.469   9.430  0.00  0.00    -0.387 OA
HETATM   16  H   UNK N   1      35.129  17.444   8.465  0.00  0.00     0.210 HD
ENDBRANCH   7  15
BRANCH   4  17
HETATM   17  C   UNK N   1      34.950  12.421  11.836  0.00  0.00     0.198 C 
BRANCH  17  18
HETATM   18  O   UNK N   1      34.371  12.715  13.073  0.00  0.00    -0.398 OA
HETATM   19  H   UNK N   1      34.849  13.205  13.760  0.00  0.00     0.209 HD
ENDBRANCH  17  18
ENDBRANCH   4  17
BRANCH   6  20
HETATM   20  O   UNK N   1      37.194  16.068  10.809  0.00  0.00    -0.390 OA
HETATM   21  H   UNK N   1      37.890  16.560  10.345  0.00  0.00     0.210 HD
ENDBRANCH   6  20
BRANCH   5  22
HETATM   22  O   UNK N   1      36.550  14.589  13.014  0.00  0.00    -0.390 OA
HETATM   23  H   UNK N   1      37.221  15.259  13.222  0.00  0.00     0.210 HD
ENDBRANCH   5  22
TORSDOF 9
ENDMDL
MODEL 2
REMARK VINA RESULT:      -5.1      3.000      5.481
REMARK  9 active torsions:
REMARK  status: ('A' for Active; 'I' for Inactive)
REMARK    1  A    between atoms: C_2  and  O_13 
REMARK    2  A    between atoms: C_4  and  C_5 
REMARK    3  A    between atoms: C_5  and  O_6 
REMARK    4  A    between atoms: C_7  and  O_8 
REMARK    5  A    between atoms: C_9  and  O_10 
REMARK    6  A    between atoms: C_11  and  O_12 
REMARK    7  A    between atoms: O_13  and  P_14 
REMARK    8  A    between atoms: P_14  and  O_15 
REMARK    9  A    between atoms: P_14  and  O_16 
ROOT
HETATM    1  C   UNK N   1      34.584  17.923   8.075  0.00  0.00     0.082 C 
HETATM    2  C   UNK N   1      34.080  16.475   8.047  0.00  0.00     0.200 C 
HETATM    3  O   UNK N   1      32.761  16.398   8.572  0.00  0.00    -0.342 OA
HETATM    4  C   UNK N   1      31.863  17.206   7.825  0.00  0.00     0.180 C 
HETATM    5  C   UNK N   1      31.711  16.659   6.394  0.00  0.00     0.180 C 
HETATM    6  C   UNK N   1      33.074  16.607   5.704  0.00  0.00     0.183 C 
HETATM    7  C   UNK N   1      34.070  15.888   6.617  0.00  0.00     0.211 C 
ENDROOT
BRANCH   2   8
HETATM    8  O   UNK N   1      35.036  15.731   8.795  0.00  0.00    -0.257 OA
BRANCH   8   9
HETATM    9  P   UNK N   1      34.845  15.689  10.545  0.00  0.00     0.393 P 
HETATM   10  O   UNK N   1      35.935  14.707  11.051  0.00  0.00    -0.631 OA
BRANCH   9  11
HETATM   11  O   UNK N   1      33.338  14.955  10.992  0.00  0.00    -0.307 OA
HETATM   12  H   UNK N   1      32.390  15.014  11.188  0.00  0.00     0.222 HD
ENDBRANCH   9  11
BRANCH   9  13
HETATM   13  O   UNK N   1      35.118  17.165  11.421  0.00  0.00    -0.307 OA
HETATM   14  H   UNK N   1      34.367  17.703  11.714  0.00  0.00     0.222 HD
ENDBRANCH   9  13
ENDBRANCH   8   9
ENDBRANCH   2   8
BRANCH   7  15
HETATM   15  O   UNK N   1      35.346  15.885   6.048  0.00  0.00    -0.387 OA
HETATM   16  H   UNK N   1      35.454  15.820   5.087  0.00  0.00     0.210 HD
ENDBRANCH   7  15
BRANCH   4  17
HETATM   17  C   UNK N   1      30.526  17.228   8.557  0.00  0.00     0.198 C 
BRANCH  17  18
HETATM   18  O   UNK N   1      30.502  18.244   9.515  0.00  0.00    -0.398 OA
HETATM   19  H   UNK N   1      30.852  19.130   9.334  0.00  0.00     0.209 HD
ENDBRANCH  17  18
ENDBRANCH   4  17
BRANCH   6  20
HETATM   20  O   UNK N   1      33.525  17.898   5.403  0.00  0.00    -0.390 OA
HETATM   21  H   UNK N   1      33.312  18.843   5.461  0.00  0.00     0.210 HD
ENDBRANCH   6  20
BRANCH   5  22
HETATM   22  O   UNK N   1      30.839  17.452   5.642  0.00  0.00    -0.390 OA
HETATM   23  H   UNK N   1      31.085  17.730   4.745  0.00  0.00     0.210 HD
ENDBRANCH   5  22
TORSDOF 9
ENDMDL
MODEL 3
REMARK VINA RESULT:      -5.0      1.938      3.299
REMARK  9 active torsions:
REMARK  status: ('A' for Active; 'I' for Inactive)
REMARK    1  A    between atoms: C_2  and  O_13 
REMARK    2  A    between atoms: C_4  and  C_5 
REMARK    3  A    between atoms: C_5  and  O_6 
REMARK    4  A    between atoms: C_7  and  O_8 
REMARK    5  A    between atoms: C_9  and  O_10 
REMARK    6  A    between atoms: C_11  and  O_12 
REMARK    7  A    between atoms: O_13  and  P_14 
REMARK    8  A    between atoms: P_14  and  O_15 
REMARK    9  A    between atoms: P_14  and  O_16 
ROOT
HETATM    1  C   UNK N   1      35.284  16.474  11.325  0.00  0.00     0.082 C 
HETATM    2  C   UNK N   1      35.044  15.878   9.932  0.00  0.00     0.200 C 
HETATM    3  O   UNK N   1      36.258  15.375   9.391  0.00  0.00    -0.342 OA
HETATM    4  C   UNK N   1      36.815  14.369  10.225  0.00  0.00     0.180 C 
HETATM    5  C   UNK N   1      35.899  13.133  10.260  0.00  0.00     0.180 C 
HETATM    6  C   UNK N   1      34.508  13.523  10.759  0.00  0.00     0.183 C 
HETATM    7  C   UNK N   1      34.009  14.729   9.960  0.00  0.00     0.211 C 
ENDROOT
BRANCH   2   8
HETATM    8  O   UNK N   1      34.471  16.933   9.167  0.00  0.00    -0.257 OA
BRANCH   8   9
HETATM    9  P   UNK N   1      34.261  16.664   7.440  0.00  0.00     0.393 P 
HETATM   10  O   UNK N   1      34.473  18.052   6.781  0.00  0.00    -0.631 OA
BRANCH   9  11
HETATM   11  O   UNK N   1      32.620  16.238   7.069  0.00  0.00    -0.307 OA
HETATM   12  H   UNK N   1      31.849  16.258   6.480  0.00  0.00     0.222 HD
ENDBRANCH   9  11
BRANCH   9  13
HETATM   13  O   UNK N   1      35.387  15.605   6.646  0.00  0.00    -0.307 OA
HETATM   14  H   UNK N   1      35.104  15.075   5.885  0.00  0.00     0.222 HD
ENDBRANCH   9  13
ENDBRANCH   8   9
ENDBRANCH   2   8
BRANCH   7  15
HETATM   15  O   UNK N   1      32.769  15.158  10.438  0.00  0.00    -0.387 OA
HETATM   16  H   UNK N   1      32.628  16.090  10.668  0.00  0.00     0.210 HD
ENDBRANCH   7  15
BRANCH   4  17
HETATM   17  C   UNK N   1      38.199  14.022   9.688  0.00  0.00     0.198 C 
BRANCH  17  18
HETATM   18  O   UNK N   1      39.001  13.485  10.696  0.00  0.00    -0.398 OA
HETATM   19  H   UNK N   1      39.527  12.680  10.561  0.00  0.00     0.209 HD
ENDBRANCH  17  18
ENDBRANCH   4  17
BRANCH   6  20
HETATM   20  O   UNK N   1      34.538  13.816  12.128  0.00  0.00    -0.390 OA
HETATM   21  H   UNK N   1      34.106  13.651  12.981  0.00  0.00     0.210 HD
ENDBRANCH   6  20
BRANCH   5  22
HETATM   22  O   UNK N   1      36.427  12.138  11.088  0.00  0.00    -0.390 OA
HETATM   23  H   UNK N   1      36.815  12.373  11.946  0.00  0.00     0.210 HD
ENDBRANCH   5  22
TORSDOF 9
ENDMDL
MODEL 4
REMARK VINA RESULT:      -4.9      2.436      5.281
REMARK  9 active torsions:
REMARK  status: ('A' for Active; 'I' for Inactive)
REMARK    1  A    between atoms: C_2  and  O_13 
REMARK    2  A    between atoms: C_4  and  C_5 
REMARK    3  A    between atoms: C_5  and  O_6 
REMARK    4  A    between atoms: C_7  and  O_8 
REMARK    5  A    between atoms: C_9  and  O_10 
REMARK    6  A    between atoms: C_11  and  O_12 
REMARK    7  A    between atoms: O_13  and  P_14 
REMARK    8  A    between atoms: P_14  and  O_15 
REMARK    9  A    between atoms: P_14  and  O_16 
ROOT
HETATM    1  C   UNK N   1      34.807  14.216   7.595  0.00  0.00     0.082 C 
HETATM    2  C   UNK N   1      34.450  14.731   8.995  0.00  0.00     0.200 C 
HETATM    3  O   UNK N   1      34.745  16.117   9.105  0.00  0.00    -0.342 OA
HETATM    4  C   UNK N   1      34.022  16.874   8.145  0.00  0.00     0.180 C 
HETATM    5  C   UNK N   1      32.512  16.805   8.434  0.00  0.00     0.180 C 
HETATM    6  C   UNK N   1      32.040  15.351   8.425  0.00  0.00     0.183 C 
HETATM    7  C   UNK N   1      32.955  14.522   9.329  0.00  0.00     0.211 C 
ENDROOT
BRANCH   2   8
HETATM    8  O   UNK N   1      35.195  13.915   9.894  0.00  0.00    -0.257 OA
BRANCH   8   9
HETATM    9  P   UNK N   1      36.722  14.553  10.494  0.00  0.00     0.393 P 
HETATM   10  O   UNK N   1      37.746  14.303   9.355  0.00  0.00    -0.631 OA
BRANCH   9  11
HETATM   11  O   UNK N   1      37.307  13.618  11.834  0.00  0.00    -0.307 OA
HETATM   12  H   UNK N   1      37.153  13.038  12.597  0.00  0.00     0.222 HD
ENDBRANCH   9  11
BRANCH   9  13
HETATM   13  O   UNK N   1      36.812  16.258  10.822  0.00  0.00    -0.307 OA
HETATM   14  H   UNK N   1      37.674  16.695  10.889  0.00  0.00     0.222 HD
ENDBRANCH   9  13
ENDBRANCH   8   9
ENDBRANCH   2   8
BRANCH   7  15
HETATM   15  O   UNK N   1      32.597  13.173   9.289  0.00  0.00    -0.387 OA
HETATM   16  H   UNK N   1      33.197  12.496   9.638  0.00  0.00     0.210 HD
ENDBRANCH   7  15
BRANCH   4  17
HETATM   17  C   UNK N   1      34.533  18.309   8.192  0.00  0.00     0.198 C 
BRANCH  17  18
HETATM   18  O   UNK N   1      35.419  18.486   9.256  0.00  0.00    -0.398 OA
HETATM   19  H   UNK N   1      35.318  18.007  10.094  0.00  0.00     0.209 HD
ENDBRANCH  17  18
ENDBRANCH   4  17
BRANCH   6  20
HETATM   20  O   UNK N   1      32.041  14.840   7.122  0.00  0.00    -0.390 OA
HETATM   21  H   UNK N   1      32.092  15.074   6.181  0.00  0.00     0.210 HD
ENDBRANCH   6  20
BRANCH   5  22
HETATM   22  O   UNK N   1      31.784  17.535   7.490  0.00  0.00    -0.390 OA
HETATM   23  H   UNK N   1      31.330  18.352   7.751  0.00  0.00     0.210 HD
ENDBRANCH   5  22
TORSDOF 9
ENDMDL
MODEL 5
REMARK VINA RESULT:      -4.9     11.655     13.901
REMARK  9 active torsions:
REMARK  status: ('A' for Active; 'I' for Inactive)
REMARK    1  A    between atoms: C_2  and  O_13 
REMARK    2  A    between atoms: C_4  and  C_5 
REMARK    3  A    between atoms: C_5  and  O_6 
REMARK    4  A    between atoms: C_7  and  O_8 
REMARK    5  A    between atoms: C_9  and  O_10 
REMARK    6  A    between atoms: C_11  and  O_12 
REMARK    7  A    between atoms: O_13  and  P_14 
REMARK    8  A    between atoms: P_14  and  O_15 
REMARK    9  A    between atoms: P_14  and  O_16 
ROOT
HETATM    1  C   UNK N   1      43.568  20.893   1.797  0.00  0.00     0.082 C 
HETATM    2  C   UNK N   1      42.404  21.269   2.723  0.00  0.00     0.200 C 
HETATM    3  O   UNK N   1      41.850  22.521   2.341  0.00  0.00    -0.342 OA
HETATM    4  C   UNK N   1      41.373  22.487   1.004  0.00  0.00     0.180 C 
HETATM    5  C   UNK N   1      40.184  21.517   0.883  0.00  0.00     0.180 C 
HETATM    6  C   UNK N   1      40.599  20.117   1.333  0.00  0.00     0.183 C 
HETATM    7  C   UNK N   1      41.277  20.211   2.701  0.00  0.00     0.211 C 
ENDROOT
BRANCH   2   8
HETATM    8  O   UNK N   1      42.954  21.263   4.036  0.00  0.00    -0.257 OA
BRANCH   8   9
HETATM    9  P   UNK N   1      44.066  22.562   4.456  0.00  0.00     0.393 P 
HETATM   10  O   UNK N   1      43.859  22.802   5.975  0.00  0.00    -0.631 OA
BRANCH   9  11
HETATM   11  O   UNK N   1      43.601  24.053   3.700  0.00  0.00    -0.307 OA
HETATM   12  H   UNK N   1      43.531  24.623   2.918  0.00  0.00     0.222 HD
ENDBRANCH   9  11
BRANCH   9  13
HETATM   13  O   UNK N   1      45.768  22.259   4.270  0.00  0.00    -0.307 OA
HETATM   14  H   UNK N   1      46.094  21.350   4.191  0.00  0.00     0.222 HD
ENDBRANCH   9  13
ENDBRANCH   8   9
ENDBRANCH   2   8
BRANCH   7  15
HETATM   15  O   UNK N   1      41.734  18.957   3.112  0.00  0.00    -0.387 OA
HETATM   16  H   UNK N   1      41.791  18.741   4.056  0.00  0.00     0.210 HD
ENDBRANCH   7  15
BRANCH   4  17
HETATM   17  C   UNK N   1      40.979  23.904   0.605  0.00  0.00     0.198 C 
BRANCH  17  18
HETATM   18  O   UNK N   1      41.981  24.813   0.949  0.00  0.00    -0.398 OA
HETATM   19  H   UNK N   1      42.619  25.146   0.298  0.00  0.00     0.209 HD
ENDBRANCH  17  18
ENDBRANCH   4  17
BRANCH   6  20
HETATM   20  O   UNK N   1      41.459  19.532   0.395  0.00  0.00    -0.390 OA
HETATM   21  H   UNK N   1      41.834  18.693   0.082  0.00  0.00     0.210 HD
ENDBRANCH   6  20
BRANCH   5  22
HETATM   22  O   UNK N   1      39.710  21.462  -0.431  0.00  0.00    -0.390 OA
HETATM   23  H   UNK N   1      40.311  21.224  -1.155  0.00  0.00     0.210 HD
ENDBRANCH   5  22
TORSDOF 9
ENDMDL
MODEL 6
REMARK VINA RESULT:      -4.9      4.256      7.017
REMARK  9 active torsions:
REMARK  status: ('A' for Active; 'I' for Inactive)
REMARK    1  A    between atoms: C_2  and  O_13 
REMARK    2  A    between atoms: C_4  and  C_5 
REMARK    3  A    between atoms: C_5  and  O_6 
REMARK    4  A    between atoms: C_7  and  O_8 
REMARK    5  A    between atoms: C_9  and  O_10 
REMARK    6  A    between atoms: C_11  and  O_12 
REMARK    7  A    between atoms: O_13  and  P_14 
REMARK    8  A    between atoms: P_14  and  O_15 
REMARK    9  A    between atoms: P_14  and  O_16 
ROOT
HETATM    1  C   UNK N   1      31.353  16.330   8.809  0.00  0.00     0.082 C 
HETATM    2  C   UNK N   1      31.398  17.715   8.152  0.00  0.00     0.200 C 
HETATM    3  O   UNK N   1      31.426  17.593   6.737  0.00  0.00    -0.342 OA
HETATM    4  C   UNK N   1      30.283  16.901   6.257  0.00  0.00     0.180 C 
HETATM    5  C   UNK N   1      29.008  17.723   6.520  0.00  0.00     0.180 C 
HETATM    6  C   UNK N   1      28.866  18.008   8.015  0.00  0.00     0.183 C 
HETATM    7  C   UNK N   1      30.181  18.585   8.543  0.00  0.00     0.211 C 
ENDROOT
BRANCH   2   8
HETATM    8  O   UNK N   1      32.552  18.348   8.695  0.00  0.00    -0.257 OA
BRANCH   8   9
HETATM    9  P   UNK N   1      34.115  17.910   8.013  0.00  0.00     0.393 P 
HETATM   10  O   UNK N   1      35.073  19.065   8.409  0.00  0.00    -0.631 OA
BRANCH   9  11
HETATM   11  O   UNK N   1      34.071  17.940   6.278  0.00  0.00    -0.307 OA
HETATM   12  H   UNK N   1      33.964  18.415   5.439  0.00  0.00     0.222 HD
ENDBRANCH   9  11
BRANCH   9  13
HETATM   13  O   UNK N   1      34.876  16.463   8.604  0.00  0.00    -0.307 OA
HETATM   14  H   UNK N   1      34.697  16.152   9.504  0.00  0.00     0.222 HD
ENDBRANCH   9  13
ENDBRANCH   8   9
ENDBRANCH   2   8
BRANCH   7  15
HETATM   15  O   UNK N   1      30.111  18.791   9.922  0.00  0.00    -0.387 OA
HETATM   16  H   UNK N   1      29.593  18.193  10.482  0.00  0.00     0.210 HD
ENDBRANCH   7  15
BRANCH   4  17
HETATM   17  C   UNK N   1      30.478  16.638   4.769  0.00  0.00     0.198 C 
BRANCH  17  18
HETATM   18  O   UNK N   1      29.929  17.670   4.006  0.00  0.00    -0.398 OA
HETATM   19  H   UNK N   1      29.791  18.560   4.368  0.00  0.00     0.209 HD
ENDBRANCH  17  18
ENDBRANCH   4  17
BRANCH   6  20
HETATM   20  O   UNK N   1      28.525  16.841   8.710  0.00  0.00    -0.390 OA
HETATM   21  H   UNK N   1      27.847  16.156   8.820  0.00  0.00     0.210 HD
ENDBRANCH   6  20
BRANCH   5  22
HETATM   22  O   UNK N   1      27.871  17.049   6.065  0.00  0.00    -0.390 OA
HETATM   23  H   UNK N   1      27.164  17.537   5.614  0.00  0.00     0.210 HD
ENDBRANCH   5  22
TORSDOF 9
ENDMDL
MODEL 7
REMARK VINA RESULT:      -4.8      2.313      4.240
REMARK  9 active torsions:
REMARK  status: ('A' for Active; 'I' for Inactive)
REMARK    1  A    between atoms: C_2  and  O_13 
REMARK    2  A    between atoms: C_4  and  C_5 
REMARK    3  A    between atoms: C_5  and  O_6 
REMARK    4  A    between atoms: C_7  and  O_8 
REMARK    5  A    between atoms: C_9  and  O_10 
REMARK    6  A    between atoms: C_11  and  O_12 
REMARK    7  A    between atoms: O_13  and  P_14 
REMARK    8  A    between atoms: P_14  and  O_15 
REMARK    9  A    between atoms: P_14  and  O_16 
ROOT
HETATM    1  C   UNK N   1      31.931  14.892   8.772  0.00  0.00     0.082 C 
HETATM    2  C   UNK N   1      33.341  14.611   8.237  0.00  0.00     0.200 C 
HETATM    3  O   UNK N   1      33.948  15.812   7.782  0.00  0.00    -0.342 OA
HETATM    4  C   UNK N   1      34.042  16.769   8.827  0.00  0.00     0.180 C 
HETATM    5  C   UNK N   1      35.003  16.275   9.923  0.00  0.00     0.180 C 
HETATM    6  C   UNK N   1      34.525  14.933  10.476  0.00  0.00     0.183 C 
HETATM    7  C   UNK N   1      34.256  13.978   9.311  0.00  0.00     0.211 C 
ENDROOT
BRANCH   2   8
HETATM    8  O   UNK N   1      33.165  13.636   7.215  0.00  0.00    -0.257 OA
BRANCH   8   9
HETATM    9  P   UNK N   1      32.352  14.145   5.738  0.00  0.00     0.393 P 
HETATM   10  O   UNK N   1      33.039  13.348   4.597  0.00  0.00    -0.631 OA
BRANCH   9  11
HETATM   11  O   UNK N   1      32.685  15.811   5.383  0.00  0.00    -0.307 OA
HETATM   12  H   UNK N   1      33.232  16.499   4.973  0.00  0.00     0.222 HD
ENDBRANCH   9  11
BRANCH   9  13
HETATM   13  O   UNK N   1      30.658  13.789   5.587  0.00  0.00    -0.307 OA
HETATM   14  H   UNK N   1      30.080  14.378   5.078  0.00  0.00     0.222 HD
ENDBRANCH   9  13
ENDBRANCH   8   9
ENDBRANCH   2   8
BRANCH   7  15
HETATM   15  O   UNK N   1      33.748  12.763   9.776  0.00  0.00    -0.387 OA
HETATM   16  H   UNK N   1      34.126  11.925   9.469  0.00  0.00     0.210 HD
ENDBRANCH   7  15
BRANCH   4  17
HETATM   17  C   UNK N   1      34.516  18.086   8.222  0.00  0.00     0.198 C 
BRANCH  17  18
HETATM   18  O   UNK N   1      34.464  18.038   6.828  0.00  0.00    -0.398 OA
HETATM   19  H   UNK N   1      34.335  18.836   6.291  0.00  0.00     0.209 HD
ENDBRANCH  17  18
ENDBRANCH   4  17
BRANCH   6  20
HETATM   20  O   UNK N   1      33.371  15.102  11.251  0.00  0.00    -0.390 OA
HETATM   21  H   UNK N   1      32.456  14.806  11.380  0.00  0.00     0.210 HD
ENDBRANCH   6  20
BRANCH   5  22
HETATM   22  O   UNK N   1      35.096  17.201  10.966  0.00  0.00    -0.390 OA
HETATM   23  H   UNK N   1      35.134  16.895  11.886  0.00  0.00     0.210 HD
ENDBRANCH   5  22
TORSDOF 9
ENDMDL
MODEL 8
REMARK VINA RESULT:      -4.8      4.397      6.505
REMARK  9 active torsions:
REMARK  status: ('A' for Active; 'I' for Inactive)
REMARK    1  A    between atoms: C_2  and  O_13 
REMARK    2  A    between atoms: C_4  and  C_5 
REMARK    3  A    between atoms: C_5  and  O_6 
REMARK    4  A    between atoms: C_7  and  O_8 
REMARK    5  A    between atoms: C_9  and  O_10 
REMARK    6  A    between atoms: C_11  and  O_12 
REMARK    7  A    between atoms: O_13  and  P_14 
REMARK    8  A    between atoms: P_14  and  O_15 
REMARK    9  A    between atoms: P_14  and  O_16 
ROOT
HETATM    1  C   UNK N   1      32.943  17.420   4.210  0.00  0.00     0.082 C 
HETATM    2  C   UNK N   1      32.940  17.164   5.722  0.00  0.00     0.200 C 
HETATM    3  O   UNK N   1      31.707  17.579   6.293  0.00  0.00    -0.342 OA
HETATM    4  C   UNK N   1      30.612  16.886   5.714  0.00  0.00     0.180 C 
HETATM    5  C   UNK N   1      30.681  15.388   6.062  0.00  0.00     0.180 C 
HETATM    6  C   UNK N   1      32.002  14.794   5.572  0.00  0.00     0.183 C 
HETATM    7  C   UNK N   1      33.157  15.671   6.061  0.00  0.00     0.211 C 
ENDROOT
BRANCH   2   8
HETATM    8  O   UNK N   1      34.070  17.872   6.223  0.00  0.00    -0.257 OA
BRANCH   8   9
HETATM    9  P   UNK N   1      34.259  17.968   7.970  0.00  0.00     0.393 P 
HETATM   10  O   UNK N   1      34.937  16.634   8.382  0.00  0.00    -0.631 OA
BRANCH   9  11
HETATM   11  O   UNK N   1      32.718  17.951   8.768  0.00  0.00    -0.307 OA
HETATM   12  H   UNK N   1      32.052  18.366   9.340  0.00  0.00     0.222 HD
ENDBRANCH   9  11
BRANCH   9  13
HETATM   13  O   UNK N   1      35.288  19.217   8.603  0.00  0.00    -0.307 OA
HETATM   14  H   UNK N   1      36.239  19.206   8.415  0.00  0.00     0.222 HD
ENDBRANCH   9  13
ENDBRANCH   8   9
ENDBRANCH   2   8
BRANCH   7  15
HETATM   15  O   UNK N   1      34.377  15.199   5.572  0.00  0.00    -0.387 OA
HETATM   16  H   UNK N   1      35.193  15.337   6.075  0.00  0.00     0.210 HD
ENDBRANCH   7  15
BRANCH   4  17
HETATM   17  C   UNK N   1      29.325  17.518   6.230  0.00  0.00     0.198 C 
BRANCH  17  18
HETATM   18  O   UNK N   1      28.897  16.889   7.401  0.00  0.00    -0.398 OA
HETATM   19  H   UNK N   1      27.961  16.702   7.571  0.00  0.00     0.209 HD
ENDBRANCH  17  18
ENDBRANCH   4  17
BRANCH   6  20
HETATM   20  O   UNK N   1      32.013  14.699   4.175  0.00  0.00    -0.390 OA
HETATM   21  H   UNK N   1      31.484  14.823   3.370  0.00  0.00     0.210 HD
ENDBRANCH   6  20
BRANCH   5  22
HETATM   22  O   UNK N   1      29.616  14.687   5.488  0.00  0.00    -0.390 OA
HETATM   23  H   UNK N   1      28.725  14.764   5.863  0.00  0.00     0.210 HD
ENDBRANCH   5  22
TORSDOF 9
ENDMDL
MODEL 9
REMARK VINA RESULT:      -4.8      2.133      3.333
REMARK  9 active torsions:
REMARK  status: ('A' for Active; 'I' for Inactive)
REMARK    1  A    between atoms: C_2  and  O_13 
REMARK    2  A    between atoms: C_4  and  C_5 
REMARK    3  A    between atoms: C_5  and  O_6 
REMARK    4  A    between atoms: C_7  and  O_8 
REMARK    5  A    between atoms: C_9  and  O_10 
REMARK    6  A    between atoms: C_11  and  O_12 
REMARK    7  A    between atoms: O_13  and  P_14 
REMARK    8  A    between atoms: P_14  and  O_15 
REMARK    9  A    between atoms: P_14  and  O_16 
ROOT
HETATM    1  C   UNK N   1      37.576  13.338  11.248  0.00  0.00     0.082 C 
HETATM    2  C   UNK N   1      36.155  13.838  11.539  0.00  0.00     0.200 C 
HETATM    3  O   UNK N   1      35.196  12.871  11.135  0.00  0.00    -0.342 OA
HETATM    4  C   UNK N   1      35.391  11.638  11.813  0.00  0.00     0.180 C 
HETATM    5  C   UNK N   1      35.118  11.806  13.319  0.00  0.00     0.180 C 
HETATM    6  C   UNK N   1      36.034  12.881  13.902  0.00  0.00     0.183 C 
HETATM    7  C   UNK N   1      35.940  14.141  13.039  0.00  0.00     0.211 C 
ENDROOT
BRANCH   2   8
HETATM    8  O   UNK N   1      36.046  15.077  10.845  0.00  0.00    -0.257 OA
BRANCH   8   9
HETATM    9  P   UNK N   1      34.460  15.521  10.222  0.00  0.00     0.393 P 
HETATM   10  O   UNK N   1      34.394  14.907   8.798  0.00  0.00    -0.631 OA
BRANCH   9  11
HETATM   11  O   UNK N   1      34.342  17.234   9.977  0.00  0.00    -0.307 OA
HETATM   12  H   UNK N   1      33.830  18.027   9.750  0.00  0.00     0.222 HD
ENDBRANCH   9  11
BRANCH   9  13
HETATM   13  O   UNK N   1      33.064  14.900  11.051  0.00  0.00    -0.307 OA
HETATM   14  H   UNK N   1      33.162  14.192  11.706  0.00  0.00     0.222 HD
ENDBRANCH   9  13
ENDBRANCH   8   9
ENDBRANCH   2   8
BRANCH   7  15
HETATM   15  O   UNK N   1      36.819  15.123  13.503  0.00  0.00    -0.387 OA
HETATM   16  H   UNK N   1      37.032  15.890  12.950  0.00  0.00     0.210 HD
ENDBRANCH   7  15
BRANCH   4  17
HETATM   17  C   UNK N   1      34.461  10.603  11.190  0.00  0.00     0.198 C 
BRANCH  17  18
HETATM   18  O   UNK N   1      33.386  10.329  12.037  0.00  0.00    -0.398 OA
HETATM   19  H   UNK N   1      33.513   9.973  12.931  0.00  0.00     0.209 HD
ENDBRANCH  17  18
ENDBRANCH   4  17
BRANCH   6  20
HETATM   20  O   UNK N   1      37.356  12.423  13.964  0.00  0.00    -0.390 OA
HETATM   21  H   UNK N   1      38.110  12.264  14.554  0.00  0.00     0.210 HD
ENDBRANCH   6  20
BRANCH   5  22
HETATM   22  O   UNK N   1      35.319  10.603  14.003  0.00  0.00    -0.390 OA
HETATM   23  H   UNK N   1      35.226  10.571  14.969  0.00  0.00     0.210 HD
ENDBRANCH   5  22
TORSDOF 9
ENDMDL
