MODEL 1
REMARK VINA RESULT:      -7.0      0.000      0.000
REMARK  14 active torsions:
REMARK  status: ('A' for Active; 'I' for Inactive)
REMARK    1  A    between atoms: C_3  and  N_1 
REMARK    2  A    between atoms: C_9  and  O_16 
REMARK       I    between atoms: C_13  and  N_19 
REMARK    3  A    between atoms: C_14  and  C_20 
REMARK    4  A    between atoms: C_15  and  O_21 
REMARK    5  A    between atoms: C_20  and  O_22 
REMARK    6  A    between atoms: O_22  and  P_23 
REMARK    7  A    between atoms: P_23  and  O_24 
REMARK    8  A    between atoms: P_23  and  O_25 
REMARK    9  A    between atoms: O_24  and  P_27 
REMARK   10  A    between atoms: P_27  and  O_28 
REMARK   11  A    between atoms: P_27  and  O_29 
REMARK   12  A    between atoms: O_28  and  P_31 
REMARK   13  A    between atoms: P_31  and  O_32 
REMARK   14  A    between atoms: P_31  and  O_33 
ROOT
HETATM    1  C   UNK N   1      36.018  14.398  11.921  0.00  0.00     0.262 C 
HETATM    2  O   UNK N   1      36.799  14.372  10.737  0.00  0.00    -0.353 OA
HETATM    3  C   UNK N   1      34.919  15.471  11.844  0.00  0.00     0.198 C 
HETATM    4  C   UNK N   1      36.153  15.249   9.857  0.00  0.00     0.180 C 
HETATM    5  C   UNK N   1      35.543  16.305  10.773  0.00  0.00     0.182 C 
ENDROOT
BRANCH   4   6
HETATM    6  C   UNK N   1      35.166  14.380   9.058  0.00  0.00     0.215 C 
BRANCH   6   7
HETATM    7  O   UNK N   1      34.790  14.952   7.844  0.00  0.00    -0.294 OA
BRANCH   7   8
HETATM    8  P   UNK N   1      33.068  14.816   7.783  0.00  0.00     0.401 P 
HETATM    9  O   UNK N   1      32.590  15.282   6.375  0.00  0.00    -0.631 OA
BRANCH   8  10
HETATM   10  O   UNK N   1      32.357  15.848   8.986  0.00  0.00    -0.195 OA
BRANCH  10  11
HETATM   11  P   UNK N   1      31.384  16.939   8.067  0.00  0.00     0.410 P 
HETATM   12  O   UNK N   1      32.546  17.915   8.400  0.00  0.00    -0.631 OA
BRANCH  11  13
HETATM   13  O   UNK N   1      30.418  18.249   8.662  0.00  0.00    -0.195 OA
BRANCH  13  14
HETATM   14  P   UNK N   1      28.987  17.460   9.258  0.00  0.00     0.399 P 
HETATM   15  O   UNK N   1      28.620  17.721   7.771  0.00  0.00    -0.631 OA
BRANCH  14  16
HETATM   16  O   UNK N   1      29.222  18.967  10.084  0.00  0.00    -0.307 OA
HETATM   17  H   UNK N   1      29.112  19.913   9.895  0.00  0.00     0.222 HD
ENDBRANCH  14  16
BRANCH  14  18
HETATM   18  O   UNK N   1      27.488  18.323   9.367  0.00  0.00    -0.307 OA
HETATM   19  H   UNK N   1      27.037  18.469  10.213  0.00  0.00     0.222 HD
ENDBRANCH  14  18
ENDBRANCH  13  14
ENDBRANCH  11  13
BRANCH  11  20
HETATM   20  O   UNK N   1      30.683  16.559   9.612  0.00  0.00    -0.307 OA
HETATM   21  H   UNK N   1      30.455  17.167  10.334  0.00  0.00     0.222 HD
ENDBRANCH  11  20
ENDBRANCH  10  11
ENDBRANCH   8  10
BRANCH   8  22
HETATM   22  O   UNK N   1      32.595  13.157   7.974  0.00  0.00    -0.307 OA
HETATM   23  H   UNK N   1      32.820  12.282   7.622  0.00  0.00     0.222 HD
ENDBRANCH   8  22
ENDBRANCH   7   8
ENDBRANCH   6   7
ENDBRANCH   4   6
BRANCH   5  24
HETATM   24  O   UNK N   1      34.654  17.181  10.147  0.00  0.00    -0.390 OA
HETATM   25  H   UNK N   1      34.825  18.134  10.081  0.00  0.00     0.210 HD
ENDBRANCH   5  24
BRANCH   1  26
HETATM   26  N   UNK N   1      35.601  13.058  12.348  0.00  0.00    -0.297 N 
HETATM   27  C   UNK N   1      35.333  12.618  13.583  0.00  0.00     0.159 A 
HETATM   28  C   UNK N   1      35.202  11.280  13.567  0.00  0.00     0.147 A 
HETATM   29  N   UNK N   1      35.249  13.345  14.724  0.00  0.00    -0.174 N 
HETATM   30  C   UNK N   1      35.006  10.587  14.749  0.00  0.00     0.290 A 
HETATM   31  N   UNK N   1      35.355  10.820  12.310  0.00  0.00    -0.345 N 
HETATM   32  N   UNK N   1      34.902  11.318  15.915  0.00  0.00    -0.154 N 
HETATM   33  O   UNK N   1      34.951   9.372  14.772  0.00  0.00    -0.265 OA
HETATM   34  C   UNK N   1      35.008  12.687  15.896  0.00  0.00     0.680 A 
HETATM   35  H   UNK N   1      34.751  10.854  16.769  0.00  0.00     0.187 HD
HETATM   36  N   UNK N   1      34.879  13.419  17.092  0.00  0.00    -0.234 N 
HETATM   37  H   UNK N   1      34.616  14.368  17.065  0.00  0.00     0.174 HD
HETATM   38  H   UNK N   1      35.052  12.981  17.956  0.00  0.00     0.174 HD
HETATM   39  C   UNK N   1      35.611  11.939  11.574  0.00  0.00     0.188 A 
ATOM     40  HN  UNK N   1      35.293   9.857  11.983  1.00  0.00     0.167 HD
ATOM     41  HN  UNK N   1      35.364  14.359  14.707  1.00  0.00     0.186 HD
ENDBRANCH   1  26
BRANCH   3  42
HETATM   42  O   UNK N   1      33.708  14.944  11.375  0.00  0.00    -0.388 OA
HETATM   43  H   UNK N   1      33.084  14.365  10.910  0.00  0.00     0.210 HD
ENDBRANCH   3  42
TORSDOF 14
ENDMDL
MODEL 2
REMARK VINA RESULT:      -7.0      4.266      7.362
REMARK  14 active torsions:
REMARK  status: ('A' for Active; 'I' for Inactive)
REMARK    1  A    between atoms: C_3  and  N_1 
REMARK    2  A    between atoms: C_9  and  O_16 
REMARK       I    between atoms: C_13  and  N_19 
REMARK    3  A    between atoms: C_14  and  C_20 
REMARK    4  A    between atoms: C_15  and  O_21 
REMARK    5  A    between atoms: C_20  and  O_22 
REMARK    6  A    between atoms: O_22  and  P_23 
REMARK    7  A    between atoms: P_23  and  O_24 
REMARK    8  A    between atoms: P_23  and  O_25 
REMARK    9  A    between atoms: O_24  and  P_27 
REMARK   10  A    between atoms: P_27  and  O_28 
REMARK   11  A    between atoms: P_27  and  O_29 
REMARK   12  A    between atoms: O_28  and  P_31 
REMARK   13  A    between atoms: P_31  and  O_32 
REMARK   14  A    between atoms: P_31  and  O_33 
ROOT
HETATM    1  C   UNK N   1      32.504  16.678   7.064  0.00  0.00     0.262 C 
HETATM    2  O   UNK N   1      32.324  16.558   8.466  0.00  0.00    -0.353 OA
HETATM    3  C   UNK N   1      33.691  17.597   6.728  0.00  0.00     0.198 C 
HETATM    4  C   UNK N   1      33.426  17.213   9.030  0.00  0.00     0.180 C 
HETATM    5  C   UNK N   1      33.744  18.321   8.033  0.00  0.00     0.182 C 
ENDROOT
BRANCH   4   6
HETATM    6  C   UNK N   1      34.500  16.127   9.218  0.00  0.00     0.215 C 
BRANCH   6   7
HETATM    7  O   UNK N   1      34.264  15.305  10.317  0.00  0.00    -0.294 OA
BRANCH   7   8
HETATM    8  P   UNK N   1      35.820  14.741  10.817  0.00  0.00     0.401 P 
HETATM    9  O   UNK N   1      36.876  15.245   9.788  0.00  0.00    -0.631 OA
BRANCH   8  10
HETATM   10  O   UNK N   1      35.836  13.004  10.832  0.00  0.00    -0.195 OA
BRANCH  10  11
HETATM   11  P   UNK N   1      36.339  12.613  12.438  0.00  0.00     0.410 P 
HETATM   12  O   UNK N   1      36.282  11.168  11.871  0.00  0.00    -0.631 OA
BRANCH  11  13
HETATM   13  O   UNK N   1      35.384  11.912  13.702  0.00  0.00    -0.195 OA
BRANCH  13  14
HETATM   14  P   UNK N   1      36.094  12.559  15.153  0.00  0.00     0.399 P 
HETATM   15  O   UNK N   1      34.747  13.331  15.076  0.00  0.00    -0.631 OA
BRANCH  14  16
HETATM   16  O   UNK N   1      37.081  12.953  13.782  0.00  0.00    -0.307 OA
HETATM   17  H   UNK N   1      36.970  13.381  12.918  0.00  0.00     0.222 HD
ENDBRANCH  14  16
BRANCH  14  18
HETATM   18  O   UNK N   1      36.585  14.220  15.225  0.00  0.00    -0.307 OA
HETATM   19  H   UNK N   1      37.390  14.500  15.688  0.00  0.00     0.222 HD
ENDBRANCH  14  18
ENDBRANCH  13  14
ENDBRANCH  11  13
BRANCH  11  20
HETATM   20  O   UNK N   1      34.693  13.170  12.371  0.00  0.00    -0.307 OA
HETATM   21  H   UNK N   1      33.937  12.753  11.926  0.00  0.00     0.222 HD
ENDBRANCH  11  20
ENDBRANCH  10  11
ENDBRANCH   8  10
BRANCH   8  22
HETATM   22  O   UNK N   1      36.229  15.418  12.361  0.00  0.00    -0.307 OA
HETATM   23  H   UNK N   1      35.791  15.747  13.162  0.00  0.00     0.222 HD
ENDBRANCH   8  22
ENDBRANCH   7   8
ENDBRANCH   6   7
ENDBRANCH   4   6
BRANCH   5  24
HETATM   24  O   UNK N   1      34.951  18.986   8.262  0.00  0.00    -0.390 OA
HETATM   25  H   UNK N   1      35.606  19.127   7.560  0.00  0.00     0.210 HD
ENDBRANCH   5  24
BRANCH   1  26
HETATM   26  N   UNK N   1      32.461  15.380   6.381  0.00  0.00    -0.297 N 
HETATM   27  C   UNK N   1      32.677  14.160   6.888  0.00  0.00     0.159 A 
HETATM   28  C   UNK N   1      32.757  13.264   5.888  0.00  0.00     0.147 A 
HETATM   29  N   UNK N   1      32.851  13.819   8.188  0.00  0.00    -0.174 N 
HETATM   30  C   UNK N   1      33.061  11.942   6.163  0.00  0.00     0.290 A 
HETATM   31  N   UNK N   1      32.567  13.880   4.706  0.00  0.00    -0.345 N 
HETATM   32  N   UNK N   1      33.226  11.580   7.484  0.00  0.00    -0.154 N 
HETATM   33  O   UNK N   1      33.207  11.125   5.273  0.00  0.00    -0.265 OA
HETATM   34  C   UNK N   1      33.106  12.511   8.487  0.00  0.00     0.680 A 
HETATM   35  H   UNK N   1      33.431  10.645   7.711  0.00  0.00     0.187 HD
HETATM   36  N   UNK N   1      33.256  12.120   9.831  0.00  0.00    -0.234 N 
HETATM   37  H   UNK N   1      32.854  12.660  10.551  0.00  0.00     0.174 HD
HETATM   38  H   UNK N   1      33.763  11.306  10.052  0.00  0.00     0.174 HD
HETATM   39  C   UNK N   1      32.395  15.192   5.036  0.00  0.00     0.188 A 
ATOM     40  HN  UNK N   1      32.553  13.462   3.776  1.00  0.00     0.167 HD
ATOM     41  HN  UNK N   1      32.796  14.523   8.925  1.00  0.00     0.186 HD
ENDBRANCH   1  26
BRANCH   3  42
HETATM   42  O   UNK N   1      34.876  16.872   6.550  0.00  0.00    -0.388 OA
HETATM   43  H   UNK N   1      35.583  16.225   6.704  0.00  0.00     0.210 HD
ENDBRANCH   3  42
TORSDOF 14
ENDMDL
MODEL 3
REMARK VINA RESULT:      -6.9     13.300     15.662
REMARK  14 active torsions:
REMARK  status: ('A' for Active; 'I' for Inactive)
REMARK    1  A    between atoms: C_3  and  N_1 
REMARK    2  A    between atoms: C_9  and  O_16 
REMARK       I    between atoms: C_13  and  N_19 
REMARK    3  A    between atoms: C_14  and  C_20 
REMARK    4  A    between atoms: C_15  and  O_21 
REMARK    5  A    between atoms: C_20  and  O_22 
REMARK    6  A    between atoms: O_22  and  P_23 
REMARK    7  A    between atoms: P_23  and  O_24 
REMARK    8  A    between atoms: P_23  and  O_25 
REMARK    9  A    between atoms: O_24  and  P_27 
REMARK   10  A    between atoms: P_27  and  O_28 
REMARK   11  A    between atoms: P_27  and  O_29 
REMARK   12  A    between atoms: O_28  and  P_31 
REMARK   13  A    between atoms: P_31  and  O_32 
REMARK   14  A    between atoms: P_31  and  O_33 
ROOT
HETATM    1  C   UNK N   1      21.086  15.069   1.508  0.00  0.00     0.262 C 
HETATM    2  O   UNK N   1      22.134  14.545   2.308  0.00  0.00    -0.353 OA
HETATM    3  C   UNK N   1      19.866  14.133   1.499  0.00  0.00     0.198 C 
HETATM    4  C   UNK N   1      21.584  13.419   2.934  0.00  0.00     0.180 C 
HETATM    5  C   UNK N   1      20.579  12.889   1.917  0.00  0.00     0.182 C 
ENDROOT
BRANCH   4   6
HETATM    6  C   UNK N   1      21.009  13.927   4.267  0.00  0.00     0.215 C 
BRANCH   6   7
HETATM    7  O   UNK N   1      20.839  12.917   5.212  0.00  0.00    -0.294 OA
BRANCH   7   8
HETATM    8  P   UNK N   1      21.867  13.343   6.535  0.00  0.00     0.401 P 
HETATM    9  O   UNK N   1      23.176  12.506   6.427  0.00  0.00    -0.631 OA
BRANCH   8  10
HETATM   10  O   UNK N   1      21.078  12.959   8.035  0.00  0.00    -0.195 OA
BRANCH  10  11
HETATM   11  P   UNK N   1      20.771  14.504   8.744  0.00  0.00     0.410 P 
HETATM   12  O   UNK N   1      20.124  13.627   9.851  0.00  0.00    -0.631 OA
BRANCH  11  13
HETATM   13  O   UNK N   1      19.256  15.340   8.839  0.00  0.00    -0.195 OA
BRANCH  13  14
HETATM   14  P   UNK N   1      19.705  17.013   8.687  0.00  0.00     0.399 P 
HETATM   15  O   UNK N   1      19.005  16.739   7.327  0.00  0.00    -0.631 OA
BRANCH  14  16
HETATM   16  O   UNK N   1      21.125  16.028   8.832  0.00  0.00    -0.307 OA
HETATM   17  H   UNK N   1      21.856  15.735   8.263  0.00  0.00     0.222 HD
ENDBRANCH  14  16
BRANCH  14  18
HETATM   18  O   UNK N   1      20.894  17.501   7.524  0.00  0.00    -0.307 OA
HETATM   19  H   UNK N   1      20.659  17.993   6.722  0.00  0.00     0.222 HD
ENDBRANCH  14  18
ENDBRANCH  13  14
ENDBRANCH  11  13
BRANCH  11  20
HETATM   20  O   UNK N   1      19.796  14.210   7.334  0.00  0.00    -0.307 OA
HETATM   21  H   UNK N   1      20.045  14.310   6.401  0.00  0.00     0.222 HD
ENDBRANCH  11  20
ENDBRANCH  10  11
ENDBRANCH   8  10
BRANCH   8  22
HETATM   22  O   UNK N   1      22.306  15.019   6.431  0.00  0.00    -0.307 OA
HETATM   23  H   UNK N   1      21.933  15.892   6.630  0.00  0.00     0.222 HD
ENDBRANCH   8  22
ENDBRANCH   7   8
ENDBRANCH   6   7
ENDBRANCH   4   6
BRANCH   5  24
HETATM   24  O   UNK N   1      19.734  11.886   2.397  0.00  0.00    -0.390 OA
HETATM   25  H   UNK N   1      20.064  11.130   2.907  0.00  0.00     0.210 HD
ENDBRANCH   5  24
BRANCH   1  26
HETATM   26  N   UNK N   1      20.828  16.487   1.783  0.00  0.00    -0.297 N 
HETATM   27  C   UNK N   1      21.289  17.243   2.786  0.00  0.00     0.159 A 
HETATM   28  C   UNK N   1      20.642  18.422   2.797  0.00  0.00     0.147 A 
HETATM   29  N   UNK N   1      22.219  16.913   3.715  0.00  0.00    -0.174 N 
HETATM   30  C   UNK N   1      20.890  19.342   3.801  0.00  0.00     0.290 A 
HETATM   31  N   UNK N   1      19.762  18.470   1.778  0.00  0.00    -0.345 N 
HETATM   32  N   UNK N   1      21.847  19.023   4.744  0.00  0.00    -0.154 N 
HETATM   33  O   UNK N   1      20.272  20.386   3.874  0.00  0.00    -0.265 OA
HETATM   34  C   UNK N   1      22.514  17.824   4.689  0.00  0.00     0.680 A 
HETATM   35  H   UNK N   1      22.053  19.662   5.463  0.00  0.00     0.187 HD
HETATM   36  N   UNK N   1      23.502  17.525   5.647  0.00  0.00    -0.234 N 
HETATM   37  H   UNK N   1      24.204  16.864   5.443  0.00  0.00     0.174 HD
HETATM   38  H   UNK N   1      23.491  17.977   6.521  0.00  0.00     0.174 HD
HETATM   39  C   UNK N   1      19.888  17.256   1.170  0.00  0.00     0.188 A 
ATOM     40  HN  UNK N   1      19.143  19.238   1.520  1.00  0.00     0.167 HD
ATOM     41  HN  UNK N   1      22.686  16.006   3.689  1.00  0.00     0.186 HD
ENDBRANCH   1  26
BRANCH   3  42
HETATM   42  O   UNK N   1      18.932  14.486   2.482  0.00  0.00    -0.388 OA
HETATM   43  H   UNK N   1      18.557  14.881   3.284  0.00  0.00     0.210 HD
ENDBRANCH   3  42
TORSDOF 14
ENDMDL
MODEL 4
REMARK VINA RESULT:      -6.9      5.305      8.420
REMARK  14 active torsions:
REMARK  status: ('A' for Active; 'I' for Inactive)
REMARK    1  A    between atoms: C_3  and  N_1 
REMARK    2  A    between atoms: C_9  and  O_16 
REMARK       I    between atoms: C_13  and  N_19 
REMARK    3  A    between atoms: C_14  and  C_20 
REMARK    4  A    between atoms: C_15  and  O_21 
REMARK    5  A    between atoms: C_20  and  O_22 
REMARK    6  A    between atoms: O_22  and  P_23 
REMARK    7  A    between atoms: P_23  and  O_24 
REMARK    8  A    between atoms: P_23  and  O_25 
REMARK    9  A    between atoms: O_24  and  P_27 
REMARK   10  A    between atoms: P_27  and  O_28 
REMARK   11  A    between atoms: P_27  and  O_29 
REMARK   12  A    between atoms: O_28  and  P_31 
REMARK   13  A    between atoms: P_31  and  O_32 
REMARK   14  A    between atoms: P_31  and  O_33 
ROOT
HETATM    1  C   UNK N   1      32.428  16.828   6.606  0.00  0.00     0.262 C 
HETATM    2  O   UNK N   1      33.612  17.576   6.829  0.00  0.00    -0.353 OA
HETATM    3  C   UNK N   1      32.738  15.337   6.392  0.00  0.00     0.198 C 
HETATM    4  C   UNK N   1      34.630  16.621   6.933  0.00  0.00     0.180 C 
HETATM    5  C   UNK N   1      34.174  15.496   6.010  0.00  0.00     0.182 C 
ENDROOT
BRANCH   4   6
HETATM    6  C   UNK N   1      34.728  16.283   8.431  0.00  0.00     0.215 C 
BRANCH   6   7
HETATM    7  O   UNK N   1      35.371  15.072   8.680  0.00  0.00    -0.294 OA
BRANCH   7   8
HETATM    8  P   UNK N   1      34.878  14.604  10.270  0.00  0.00     0.401 P 
HETATM    9  O   UNK N   1      35.753  15.378  11.300  0.00  0.00    -0.631 OA
BRANCH   8  10
HETATM   10  O   UNK N   1      35.136  12.900  10.483  0.00  0.00    -0.195 OA
BRANCH  10  11
HETATM   11  P   UNK N   1      36.122  12.809  11.899  0.00  0.00     0.410 P 
HETATM   12  O   UNK N   1      36.120  11.297  11.541  0.00  0.00    -0.631 OA
BRANCH  11  13
HETATM   13  O   UNK N   1      35.674  12.206  13.461  0.00  0.00    -0.195 OA
BRANCH  13  14
HETATM   14  P   UNK N   1      36.644  13.150  14.553  0.00  0.00     0.399 P 
HETATM   15  O   UNK N   1      35.224  13.734  14.791  0.00  0.00    -0.631 OA
BRANCH  14  16
HETATM   16  O   UNK N   1      37.139  13.442  12.917  0.00  0.00    -0.307 OA
HETATM   17  H   UNK N   1      37.660  12.990  12.234  0.00  0.00     0.222 HD
ENDBRANCH  14  16
BRANCH  14  18
HETATM   18  O   UNK N   1      36.865  14.848  14.289  0.00  0.00    -0.307 OA
HETATM   19  H   UNK N   1      36.224  15.507  14.597  0.00  0.00     0.222 HD
ENDBRANCH  14  18
ENDBRANCH  13  14
ENDBRANCH  11  13
BRANCH  11  20
HETATM   20  O   UNK N   1      34.461  13.170  12.264  0.00  0.00    -0.307 OA
HETATM   21  H   UNK N   1      33.830  13.687  11.738  0.00  0.00     0.222 HD
ENDBRANCH  11  20
ENDBRANCH  10  11
ENDBRANCH   8  10
BRANCH   8  22
HETATM   22  O   UNK N   1      33.225  15.060  10.537  0.00  0.00    -0.307 OA
HETATM   23  H   UNK N   1      32.602  15.176  11.271  0.00  0.00     0.222 HD
ENDBRANCH   8  22
ENDBRANCH   7   8
ENDBRANCH   6   7
ENDBRANCH   4   6
BRANCH   5  24
HETATM   24  O   UNK N   1      34.919  14.319   6.107  0.00  0.00    -0.390 OA
HETATM   25  H   UNK N   1      35.190  13.811   5.326  0.00  0.00     0.210 HD
ENDBRANCH   5  24
BRANCH   1  26
HETATM   26  N   UNK N   1      31.371  17.150   7.572  0.00  0.00    -0.297 N 
HETATM   27  C   UNK N   1      30.047  17.002   7.444  0.00  0.00     0.159 A 
HETATM   28  C   UNK N   1      29.424  17.617   8.464  0.00  0.00     0.147 A 
HETATM   29  N   UNK N   1      29.373  16.388   6.441  0.00  0.00    -0.174 N 
HETATM   30  C   UNK N   1      28.041  17.672   8.502  0.00  0.00     0.290 A 
HETATM   31  N   UNK N   1      30.334  18.157   9.297  0.00  0.00    -0.345 N 
HETATM   32  N   UNK N   1      27.344  17.038   7.495  0.00  0.00    -0.154 N 
HETATM   33  O   UNK N   1      27.453  18.280   9.377  0.00  0.00    -0.265 OA
HETATM   34  C   UNK N   1      28.008  16.389   6.482  0.00  0.00     0.680 A 
HETATM   35  H   UNK N   1      26.360  17.050   7.502  0.00  0.00     0.187 HD
HETATM   36  N   UNK N   1      27.279  15.729   5.474  0.00  0.00    -0.234 N 
HETATM   37  H   UNK N   1      27.698  15.002   4.957  0.00  0.00     0.174 HD
HETATM   38  H   UNK N   1      26.351  15.995   5.284  0.00  0.00     0.174 HD
HETATM   39  C   UNK N   1      31.534  17.863   8.718  0.00  0.00     0.188 A 
ATOM     40  HN  UNK N   1      30.166  18.669  10.163  1.00  0.00     0.167 HD
ATOM     41  HN  UNK N   1      29.872  15.939   5.673  1.00  0.00     0.186 HD
ENDBRANCH   1  26
BRANCH   3  42
HETATM   42  O   UNK N   1      32.653  14.611   7.587  0.00  0.00    -0.388 OA
HETATM   43  H   UNK N   1      32.276  14.098   8.318  0.00  0.00     0.210 HD
ENDBRANCH   3  42
TORSDOF 14
ENDMDL
MODEL 5
REMARK VINA RESULT:      -6.9      5.290      8.610
REMARK  14 active torsions:
REMARK  status: ('A' for Active; 'I' for Inactive)
REMARK    1  A    between atoms: C_3  and  N_1 
REMARK    2  A    between atoms: C_9  and  O_16 
REMARK       I    between atoms: C_13  and  N_19 
REMARK    3  A    between atoms: C_14  and  C_20 
REMARK    4  A    between atoms: C_15  and  O_21 
REMARK    5  A    between atoms: C_20  and  O_22 
REMARK    6  A    between atoms: O_22  and  P_23 
REMARK    7  A    between atoms: P_23  and  O_24 
REMARK    8  A    between atoms: P_23  and  O_25 
REMARK    9  A    between atoms: O_24  and  P_27 
REMARK   10  A    between atoms: P_27  and  O_28 
REMARK   11  A    between atoms: P_27  and  O_29 
REMARK   12  A    between atoms: O_28  and  P_31 
REMARK   13  A    between atoms: P_31  and  O_32 
REMARK   14  A    between atoms: P_31  and  O_33 
ROOT
HETATM    1  C   UNK N   1      32.363  15.964   6.566  0.00  0.00     0.262 C 
HETATM    2  O   UNK N   1      33.597  16.643   6.400  0.00  0.00    -0.353 OA
HETATM    3  C   UNK N   1      32.580  14.505   7.001  0.00  0.00     0.198 C 
HETATM    4  C   UNK N   1      34.569  15.748   6.864  0.00  0.00     0.180 C 
HETATM    5  C   UNK N   1      33.992  14.376   6.532  0.00  0.00     0.182 C 
ENDROOT
BRANCH   4   6
HETATM    6  C   UNK N   1      34.751  16.074   8.357  0.00  0.00     0.215 C 
BRANCH   6   7
HETATM    7  O   UNK N   1      35.322  15.030   9.081  0.00  0.00    -0.294 OA
BRANCH   7   8
HETATM    8  P   UNK N   1      35.065  15.425  10.744  0.00  0.00     0.401 P 
HETATM    9  O   UNK N   1      35.253  16.961  10.917  0.00  0.00    -0.631 OA
BRANCH   8  10
HETATM   10  O   UNK N   1      36.237  14.603  11.728  0.00  0.00    -0.195 OA
BRANCH  10  11
HETATM   11  P   UNK N   1      36.989  13.498  10.633  0.00  0.00     0.410 P 
HETATM   12  O   UNK N   1      37.588  12.937  11.951  0.00  0.00    -0.631 OA
BRANCH  11  13
HETATM   13  O   UNK N   1      38.647  13.471  10.134  0.00  0.00    -0.195 OA
BRANCH  13  14
HETATM   14  P   UNK N   1      38.578  12.795   8.533  0.00  0.00     0.399 P 
HETATM   15  O   UNK N   1      39.052  14.248   8.253  0.00  0.00    -0.631 OA
BRANCH  14  16
HETATM   16  O   UNK N   1      36.994  12.813   9.239  0.00  0.00    -0.307 OA
HETATM   17  H   UNK N   1      36.226  12.222   9.291  0.00  0.00     0.222 HD
ENDBRANCH  14  16
BRANCH  14  18
HETATM   18  O   UNK N   1      37.418  13.374   7.384  0.00  0.00    -0.307 OA
HETATM   19  H   UNK N   1      36.884  12.773   6.841  0.00  0.00     0.222 HD
ENDBRANCH  14  18
ENDBRANCH  13  14
ENDBRANCH  11  13
BRANCH  11  20
HETATM   20  O   UNK N   1      37.639  15.106  10.512  0.00  0.00    -0.307 OA
HETATM   21  H   UNK N   1      38.532  15.411  10.744  0.00  0.00     0.222 HD
ENDBRANCH  11  20
ENDBRANCH  10  11
ENDBRANCH   8  10
BRANCH   8  22
HETATM   22  O   UNK N   1      33.435  15.042  11.200  0.00  0.00    -0.307 OA
HETATM   23  H   UNK N   1      32.551  15.440  11.181  0.00  0.00     0.222 HD
ENDBRANCH   8  22
ENDBRANCH   7   8
ENDBRANCH   6   7
ENDBRANCH   4   6
BRANCH   5  24
HETATM   24  O   UNK N   1      34.680  13.300   7.096  0.00  0.00    -0.390 OA
HETATM   25  H   UNK N   1      34.557  12.387   6.789  0.00  0.00     0.210 HD
ENDBRANCH   5  24
BRANCH   1  26
HETATM   26  N   UNK N   1      31.393  16.746   7.340  0.00  0.00    -0.297 N 
HETATM   27  C   UNK N   1      30.072  16.862   7.155  0.00  0.00     0.159 A 
HETATM   28  C   UNK N   1      29.591  17.841   7.942  0.00  0.00     0.147 A 
HETATM   29  N   UNK N   1      29.292  16.173   6.287  0.00  0.00    -0.174 N 
HETATM   30  C   UNK N   1      28.257  18.204   7.861  0.00  0.00     0.290 A 
HETATM   31  N   UNK N   1      30.587  18.365   8.681  0.00  0.00    -0.345 N 
HETATM   32  N   UNK N   1      27.449  17.499   6.993  0.00  0.00    -0.154 N 
HETATM   33  O   UNK N   1      27.810  19.129   8.512  0.00  0.00    -0.265 OA
HETATM   34  C   UNK N   1      27.963  16.483   6.225  0.00  0.00     0.680 A 
HETATM   35  H   UNK N   1      26.494  17.727   6.923  0.00  0.00     0.187 HD
HETATM   36  N   UNK N   1      27.119  15.760   5.359  0.00  0.00    -0.234 N 
HETATM   37  H   UNK N   1      27.368  14.851   5.072  0.00  0.00     0.174 HD
HETATM   38  H   UNK N   1      26.280  16.164   5.041  0.00  0.00     0.174 HD
HETATM   39  C   UNK N   1      31.696  17.678   8.283  0.00  0.00     0.188 A 
ATOM     40  HN  UNK N   1      30.527  19.107   9.377  1.00  0.00     0.167 HD
ATOM     41  HN  UNK N   1      29.687  15.444   5.694  1.00  0.00     0.186 HD
ENDBRANCH   1  26
BRANCH   3  42
HETATM   42  O   UNK N   1      32.538  14.366   8.395  0.00  0.00    -0.388 OA
HETATM   43  H   UNK N   1      32.230  14.444   9.311  0.00  0.00     0.210 HD
ENDBRANCH   3  42
TORSDOF 14
ENDMDL
MODEL 6
REMARK VINA RESULT:      -6.7      5.485      8.502
REMARK  14 active torsions:
REMARK  status: ('A' for Active; 'I' for Inactive)
REMARK    1  A    between atoms: C_3  and  N_1 
REMARK    2  A    between atoms: C_9  and  O_16 
REMARK       I    between atoms: C_13  and  N_19 
REMARK    3  A    between atoms: C_14  and  C_20 
REMARK    4  A    between atoms: C_15  and  O_21 
REMARK    5  A    between atoms: C_20  and  O_22 
REMARK    6  A    between atoms: O_22  and  P_23 
REMARK    7  A    between atoms: P_23  and  O_24 
REMARK    8  A    between atoms: P_23  and  O_25 
REMARK    9  A    between atoms: O_24  and  P_27 
REMARK   10  A    between atoms: P_27  and  O_28 
REMARK   11  A    between atoms: P_27  and  O_29 
REMARK   12  A    between atoms: O_28  and  P_31 
REMARK   13  A    between atoms: P_31  and  O_32 
REMARK   14  A    between atoms: P_31  and  O_33 
ROOT
HETATM    1  C   UNK N   1      32.189  17.147   6.233  0.00  0.00     0.262 C 
HETATM    2  O   UNK N   1      31.687  16.243   7.204  0.00  0.00    -0.353 OA
HETATM    3  C   UNK N   1      33.364  17.969   6.787  0.00  0.00     0.198 C 
HETATM    4  C   UNK N   1      32.581  16.332   8.278  0.00  0.00     0.180 C 
HETATM    5  C   UNK N   1      33.062  17.778   8.237  0.00  0.00     0.182 C 
ENDROOT
BRANCH   4   6
HETATM    6  C   UNK N   1      33.642  15.247   8.022  0.00  0.00     0.215 C 
BRANCH   6   7
HETATM    7  O   UNK N   1      34.826  15.459   8.726  0.00  0.00    -0.294 OA
BRANCH   7   8
HETATM    8  P   UNK N   1      34.555  14.790  10.297  0.00  0.00     0.401 P 
HETATM    9  O   UNK N   1      35.452  15.556  11.315  0.00  0.00    -0.631 OA
BRANCH   8  10
HETATM   10  O   UNK N   1      35.006  13.113  10.303  0.00  0.00    -0.195 OA
BRANCH  10  11
HETATM   11  P   UNK N   1      36.049  12.974  11.673  0.00  0.00     0.410 P 
HETATM   12  O   UNK N   1      36.126  11.499  11.193  0.00  0.00    -0.631 OA
BRANCH  11  13
HETATM   13  O   UNK N   1      35.699  12.222  13.195  0.00  0.00    -0.195 OA
BRANCH  13  14
HETATM   14  P   UNK N   1      36.661  13.129  14.326  0.00  0.00     0.399 P 
HETATM   15  O   UNK N   1      35.226  13.642  14.632  0.00  0.00    -0.631 OA
BRANCH  14  16
HETATM   16  O   UNK N   1      37.105  13.545  12.702  0.00  0.00    -0.307 OA
HETATM   17  H   UNK N   1      37.506  14.298  12.239  0.00  0.00     0.222 HD
ENDBRANCH  14  16
BRANCH  14  18
HETATM   18  O   UNK N   1      36.814  14.848  14.169  0.00  0.00    -0.307 OA
HETATM   19  H   UNK N   1      37.152  15.264  13.361  0.00  0.00     0.222 HD
ENDBRANCH  14  18
ENDBRANCH  13  14
ENDBRANCH  11  13
BRANCH  11  20
HETATM   20  O   UNK N   1      34.384  13.197  12.122  0.00  0.00    -0.307 OA
HETATM   21  H   UNK N   1      33.857  12.676  12.749  0.00  0.00     0.222 HD
ENDBRANCH  11  20
ENDBRANCH  10  11
ENDBRANCH   8  10
BRANCH   8  22
HETATM   22  O   UNK N   1      32.903  15.031  10.769  0.00  0.00    -0.307 OA
HETATM   23  H   UNK N   1      32.053  14.565  10.739  0.00  0.00     0.222 HD
ENDBRANCH   8  22
ENDBRANCH   7   8
ENDBRANCH   6   7
ENDBRANCH   4   6
BRANCH   5  24
HETATM   24  O   UNK N   1      34.137  18.062   9.082  0.00  0.00    -0.390 OA
HETATM   25  H   UNK N   1      34.025  18.199  10.036  0.00  0.00     0.210 HD
ENDBRANCH   5  24
BRANCH   1  26
HETATM   26  N   UNK N   1      32.387  16.512   4.925  0.00  0.00    -0.297 N 
HETATM   27  C   UNK N   1      32.413  15.208   4.624  0.00  0.00     0.159 A 
HETATM   28  C   UNK N   1      32.838  15.046   3.358  0.00  0.00     0.147 A 
HETATM   29  N   UNK N   1      32.125  14.162   5.436  0.00  0.00    -0.174 N 
HETATM   30  C   UNK N   1      33.028  13.774   2.847  0.00  0.00     0.290 A 
HETATM   31  N   UNK N   1      33.070  16.248   2.797  0.00  0.00    -0.345 N 
HETATM   32  N   UNK N   1      32.722  12.701   3.659  0.00  0.00    -0.154 N 
HETATM   33  O   UNK N   1      33.475  13.599   1.729  0.00  0.00    -0.265 OA
HETATM   34  C   UNK N   1      32.260  12.897   4.937  0.00  0.00     0.680 A 
HETATM   35  H   UNK N   1      32.837  11.785   3.318  0.00  0.00     0.187 HD
HETATM   36  N   UNK N   1      31.933  11.791   5.745  0.00  0.00    -0.234 N 
HETATM   37  H   UNK N   1      31.306  11.896   6.497  0.00  0.00     0.174 HD
HETATM   38  H   UNK N   1      32.333  10.911   5.557  0.00  0.00     0.174 HD
HETATM   39  C   UNK N   1      32.794  17.140   3.790  0.00  0.00     0.188 A 
ATOM     40  HN  UNK N   1      33.382  16.446   1.847  1.00  0.00     0.167 HD
ATOM     41  HN  UNK N   1      31.816  14.315   6.396  1.00  0.00     0.186 HD
ENDBRANCH   1  26
BRANCH   3  42
HETATM   42  O   UNK N   1      34.599  17.379   6.488  0.00  0.00    -0.388 OA
HETATM   43  H   UNK N   1      35.556  17.218   6.478  0.00  0.00     0.210 HD
ENDBRANCH   3  42
TORSDOF 14
ENDMDL
MODEL 7
REMARK VINA RESULT:      -6.7      2.270      3.006
REMARK  14 active torsions:
REMARK  status: ('A' for Active; 'I' for Inactive)
REMARK    1  A    between atoms: C_3  and  N_1 
REMARK    2  A    between atoms: C_9  and  O_16 
REMARK       I    between atoms: C_13  and  N_19 
REMARK    3  A    between atoms: C_14  and  C_20 
REMARK    4  A    between atoms: C_15  and  O_21 
REMARK    5  A    between atoms: C_20  and  O_22 
REMARK    6  A    between atoms: O_22  and  P_23 
REMARK    7  A    between atoms: P_23  and  O_24 
REMARK    8  A    between atoms: P_23  and  O_25 
REMARK    9  A    between atoms: O_24  and  P_27 
REMARK   10  A    between atoms: P_27  and  O_28 
REMARK   11  A    between atoms: P_27  and  O_29 
REMARK   12  A    between atoms: O_28  and  P_31 
REMARK   13  A    between atoms: P_31  and  O_32 
REMARK   14  A    between atoms: P_31  and  O_33 
ROOT
HETATM    1  C   UNK N   1      36.432  14.386  12.007  0.00  0.00     0.262 C 
HETATM    2  O   UNK N   1      37.128  14.458  10.773  0.00  0.00    -0.353 OA
HETATM    3  C   UNK N   1      35.080  15.114  11.931  0.00  0.00     0.198 C 
HETATM    4  C   UNK N   1      36.223  15.045   9.880  0.00  0.00     0.180 C 
HETATM    5  C   UNK N   1      35.397  15.980  10.756  0.00  0.00     0.182 C 
ENDROOT
BRANCH   4   6
HETATM    6  C   UNK N   1      35.471  13.873   9.225  0.00  0.00     0.215 C 
BRANCH   6   7
HETATM    7  O   UNK N   1      34.254  14.249   8.659  0.00  0.00    -0.294 OA
BRANCH   7   8
HETATM    8  P   UNK N   1      33.470  12.771   8.223  0.00  0.00     0.401 P 
HETATM    9  O   UNK N   1      34.540  11.805   7.634  0.00  0.00    -0.631 OA
BRANCH   8  10
HETATM   10  O   UNK N   1      32.267  13.084   7.010  0.00  0.00    -0.195 OA
BRANCH  10  11
HETATM   11  P   UNK N   1      32.273  14.805   6.861  0.00  0.00     0.410 P 
HETATM   12  O   UNK N   1      30.943  14.529   6.109  0.00  0.00    -0.631 OA
BRANCH  11  13
HETATM   13  O   UNK N   1      32.615  15.742   5.444  0.00  0.00    -0.195 OA
BRANCH  13  14
HETATM   14  P   UNK N   1      33.368  17.176   6.077  0.00  0.00     0.399 P 
HETATM   15  O   UNK N   1      34.555  16.474   5.362  0.00  0.00    -0.631 OA
BRANCH  14  16
HETATM   16  O   UNK N   1      32.789  16.185   7.378  0.00  0.00    -0.307 OA
HETATM   17  H   UNK N   1      33.154  15.756   8.169  0.00  0.00     0.222 HD
ENDBRANCH  14  16
BRANCH  14  18
HETATM   18  O   UNK N   1      34.568  17.062   7.322  0.00  0.00    -0.307 OA
HETATM   19  H   UNK N   1      35.497  16.862   7.127  0.00  0.00     0.222 HD
ENDBRANCH  14  18
ENDBRANCH  13  14
ENDBRANCH  11  13
BRANCH  11  20
HETATM   20  O   UNK N   1      33.491  14.046   5.880  0.00  0.00    -0.307 OA
HETATM   21  H   UNK N   1      33.519  13.130   5.560  0.00  0.00     0.222 HD
ENDBRANCH  11  20
ENDBRANCH  10  11
ENDBRANCH   8  10
BRANCH   8  22
HETATM   22  O   UNK N   1      32.801  12.015   9.635  0.00  0.00    -0.307 OA
HETATM   23  H   UNK N   1      32.060  11.440   9.882  0.00  0.00     0.222 HD
ENDBRANCH   8  22
ENDBRANCH   7   8
ENDBRANCH   6   7
ENDBRANCH   4   6
BRANCH   5  24
HETATM   24  O   UNK N   1      34.271  16.524  10.133  0.00  0.00    -0.390 OA
HETATM   25  H   UNK N   1      34.084  16.388   9.191  0.00  0.00     0.210 HD
ENDBRANCH   5  24
BRANCH   1  26
HETATM   26  N   UNK N   1      36.420  13.029  12.564  0.00  0.00    -0.297 N 
HETATM   27  C   UNK N   1      36.225  12.647  13.832  0.00  0.00     0.159 A 
HETATM   28  C   UNK N   1      36.510  11.338  13.957  0.00  0.00     0.147 A 
HETATM   29  N   UNK N   1      35.855  13.416  14.884  0.00  0.00    -0.174 N 
HETATM   30  C   UNK N   1      36.464  10.733  15.202  0.00  0.00     0.290 A 
HETATM   31  N   UNK N   1      36.870  10.832  12.762  0.00  0.00    -0.345 N 
HETATM   32  N   UNK N   1      36.072  11.503  16.278  0.00  0.00    -0.154 N 
HETATM   33  O   UNK N   1      36.781   9.569  15.354  0.00  0.00    -0.265 OA
HETATM   34  C   UNK N   1      35.757  12.830  16.114  0.00  0.00     0.680 A 
HETATM   35  H   UNK N   1      36.019  11.097  17.173  0.00  0.00     0.187 HD
HETATM   36  N   UNK N   1      35.339  13.595  17.220  0.00  0.00    -0.234 N 
HETATM   37  H   UNK N   1      34.801  14.409  17.082  0.00  0.00     0.174 HD
HETATM   38  H   UNK N   1      35.585  13.316  18.131  0.00  0.00     0.174 HD
HETATM   39  C   UNK N   1      36.816  11.900  11.916  0.00  0.00     0.188 A 
ATOM     40  HN  UNK N   1      37.125   9.870  12.540  1.00  0.00     0.167 HD
ATOM     41  HN  UNK N   1      35.656  14.409  14.761  1.00  0.00     0.186 HD
ENDBRANCH   1  26
BRANCH   3  42
HETATM   42  O   UNK N   1      34.036  14.240  11.596  0.00  0.00    -0.388 OA
HETATM   43  H   UNK N   1      33.239  13.695  11.683  0.00  0.00     0.210 HD
ENDBRANCH   3  42
TORSDOF 14
ENDMDL
MODEL 8
REMARK VINA RESULT:      -6.6     13.040     15.841
REMARK  14 active torsions:
REMARK  status: ('A' for Active; 'I' for Inactive)
REMARK    1  A    between atoms: C_3  and  N_1 
REMARK    2  A    between atoms: C_9  and  O_16 
REMARK       I    between atoms: C_13  and  N_19 
REMARK    3  A    between atoms: C_14  and  C_20 
REMARK    4  A    between atoms: C_15  and  O_21 
REMARK    5  A    between atoms: C_20  and  O_22 
REMARK    6  A    between atoms: O_22  and  P_23 
REMARK    7  A    between atoms: P_23  and  O_24 
REMARK    8  A    between atoms: P_23  and  O_25 
REMARK    9  A    between atoms: O_24  and  P_27 
REMARK   10  A    between atoms: P_27  and  O_28 
REMARK   11  A    between atoms: P_27  and  O_29 
REMARK   12  A    between atoms: O_28  and  P_31 
REMARK   13  A    between atoms: P_31  and  O_32 
REMARK   14  A    between atoms: P_31  and  O_33 
ROOT
HETATM    1  C   UNK N   1      21.132  15.179   1.252  0.00  0.00     0.262 C 
HETATM    2  O   UNK N   1      21.868  14.462   2.230  0.00  0.00    -0.353 OA
HETATM    3  C   UNK N   1      19.892  14.392   0.795  0.00  0.00     0.198 C 
HETATM    4  C   UNK N   1      21.076  13.348   2.535  0.00  0.00     0.180 C 
HETATM    5  C   UNK N   1      20.357  13.039   1.226  0.00  0.00     0.182 C 
ENDROOT
BRANCH   4   6
HETATM    6  C   UNK N   1      20.193  13.780   3.719  0.00  0.00     0.215 C 
BRANCH   6   7
HETATM    7  O   UNK N   1      20.917  14.343   4.767  0.00  0.00    -0.294 OA
BRANCH   7   8
HETATM    8  P   UNK N   1      19.735  14.967   5.864  0.00  0.00     0.401 P 
HETATM    9  O   UNK N   1      19.954  16.503   5.997  0.00  0.00    -0.631 OA
BRANCH   8  10
HETATM   10  O   UNK N   1      19.942  14.234   7.425  0.00  0.00    -0.195 OA
BRANCH  10  11
HETATM   11  P   UNK N   1      21.394  13.313   7.256  0.00  0.00     0.410 P 
HETATM   12  O   UNK N   1      20.978  12.802   8.663  0.00  0.00    -0.631 OA
BRANCH  11  13
HETATM   13  O   UNK N   1      22.911  13.577   8.050  0.00  0.00    -0.195 OA
BRANCH  13  14
HETATM   14  P   UNK N   1      24.080  13.021   6.889  0.00  0.00     0.399 P 
HETATM   15  O   UNK N   1      24.288  14.560   6.850  0.00  0.00    -0.631 OA
BRANCH  14  16
HETATM   16  O   UNK N   1      22.477  12.626   6.354  0.00  0.00    -0.307 OA
HETATM   17  H   UNK N   1      21.566  12.866   6.585  0.00  0.00     0.222 HD
ENDBRANCH  14  16
BRANCH  14  18
HETATM   18  O   UNK N   1      23.898  13.403   5.208  0.00  0.00    -0.307 OA
HETATM   19  H   UNK N   1      24.454  14.063   4.766  0.00  0.00     0.222 HD
ENDBRANCH  14  18
ENDBRANCH  13  14
ENDBRANCH  11  13
BRANCH  11  20
HETATM   20  O   UNK N   1      21.702  15.008   7.484  0.00  0.00    -0.307 OA
HETATM   21  H   UNK N   1      22.491  15.514   7.230  0.00  0.00     0.222 HD
ENDBRANCH  11  20
ENDBRANCH  10  11
ENDBRANCH   8  10
BRANCH   8  22
HETATM   22  O   UNK N   1      18.141  14.717   5.224  0.00  0.00    -0.307 OA
HETATM   23  H   UNK N   1      17.553  15.085   4.547  0.00  0.00     0.222 HD
ENDBRANCH   8  22
ENDBRANCH   7   8
ENDBRANCH   6   7
ENDBRANCH   4   6
BRANCH   5  24
HETATM   24  O   UNK N   1      19.333  12.095   1.329  0.00  0.00    -0.390 OA
HETATM   25  H   UNK N   1      19.511  11.146   1.426  0.00  0.00     0.210 HD
ENDBRANCH   5  24
BRANCH   1  26
HETATM   26  N   UNK N   1      20.922  16.582   1.626  0.00  0.00    -0.297 N 
HETATM   27  C   UNK N   1      21.328  17.224   2.727  0.00  0.00     0.159 A 
HETATM   28  C   UNK N   1      20.743  18.434   2.785  0.00  0.00     0.147 A 
HETATM   29  N   UNK N   1      22.152  16.765   3.700  0.00  0.00    -0.174 N 
HETATM   30  C   UNK N   1      20.946  19.252   3.884  0.00  0.00     0.290 A 
HETATM   31  N   UNK N   1      19.963  18.617   1.703  0.00  0.00    -0.345 N 
HETATM   32  N   UNK N   1      21.796  18.802   4.873  0.00  0.00    -0.154 N 
HETATM   33  O   UNK N   1      20.377  20.321   3.994  0.00  0.00    -0.265 OA
HETATM   34  C   UNK N   1      22.404  17.574   4.771  0.00  0.00     0.680 A 
HETATM   35  H   UNK N   1      21.968  19.366   5.661  0.00  0.00     0.187 HD
HETATM   36  N   UNK N   1      23.285  17.140   5.781  0.00  0.00    -0.234 N 
HETATM   37  H   UNK N   1      23.968  16.459   5.581  0.00  0.00     0.174 HD
HETATM   38  H   UNK N   1      23.218  17.518   6.687  0.00  0.00     0.174 HD
HETATM   39  C   UNK N   1      20.081  17.452   1.004  0.00  0.00     0.188 A 
ATOM     40  HN  UNK N   1      19.409  19.438   1.461  1.00  0.00     0.167 HD
ATOM     41  HN  UNK N   1      22.573  15.838   3.635  1.00  0.00     0.186 HD
ENDBRANCH   1  26
BRANCH   3  42
HETATM   42  O   UNK N   1      18.752  14.747   1.528  0.00  0.00    -0.388 OA
HETATM   43  H   UNK N   1      17.943  14.660   2.056  0.00  0.00     0.210 HD
ENDBRANCH   3  42
TORSDOF 14
ENDMDL
MODEL 9
REMARK VINA RESULT:      -6.6      4.992      8.063
REMARK  14 active torsions:
REMARK  status: ('A' for Active; 'I' for Inactive)
REMARK    1  A    between atoms: C_3  and  N_1 
REMARK    2  A    between atoms: C_9  and  O_16 
REMARK       I    between atoms: C_13  and  N_19 
REMARK    3  A    between atoms: C_14  and  C_20 
REMARK    4  A    between atoms: C_15  and  O_21 
REMARK    5  A    between atoms: C_20  and  O_22 
REMARK    6  A    between atoms: O_22  and  P_23 
REMARK    7  A    between atoms: P_23  and  O_24 
REMARK    8  A    between atoms: P_23  and  O_25 
REMARK    9  A    between atoms: O_24  and  P_27 
REMARK   10  A    between atoms: P_27  and  O_28 
REMARK   11  A    between atoms: P_27  and  O_29 
REMARK   12  A    between atoms: O_28  and  P_31 
REMARK   13  A    between atoms: P_31  and  O_32 
REMARK   14  A    between atoms: P_31  and  O_33 
ROOT
HETATM    1  C   UNK N   1      33.074  16.055   6.867  0.00  0.00     0.262 C 
HETATM    2  O   UNK N   1      34.335  16.655   7.116  0.00  0.00    -0.353 OA
HETATM    3  C   UNK N   1      33.155  14.522   6.957  0.00  0.00     0.198 C 
HETATM    4  C   UNK N   1      35.165  15.602   7.519  0.00  0.00     0.180 C 
HETATM    5  C   UNK N   1      34.630  14.398   6.751  0.00  0.00     0.182 C 
ENDROOT
BRANCH   4   6
HETATM    6  C   UNK N   1      35.046  15.547   9.053  0.00  0.00     0.215 C 
BRANCH   6   7
HETATM    7  O   UNK N   1      36.107  14.881   9.662  0.00  0.00    -0.294 OA
BRANCH   7   8
HETATM    8  P   UNK N   1      35.452  14.189  11.105  0.00  0.00     0.401 P 
HETATM    9  O   UNK N   1      35.765  15.147  12.293  0.00  0.00    -0.631 OA
BRANCH   8  10
HETATM   10  O   UNK N   1      36.203  12.653  11.409  0.00  0.00    -0.195 OA
BRANCH  10  11
HETATM   11  P   UNK N   1      34.952  11.510  11.074  0.00  0.00     0.410 P 
HETATM   12  O   UNK N   1      36.036  10.507  11.554  0.00  0.00    -0.631 OA
BRANCH  11  13
HETATM   13  O   UNK N   1      34.853  10.414   9.736  0.00  0.00    -0.195 OA
BRANCH  13  14
HETATM   14  P   UNK N   1      33.142  10.235   9.483  0.00  0.00     0.399 P 
HETATM   15  O   UNK N   1      33.562  11.109   8.269  0.00  0.00    -0.631 OA
BRANCH  14  16
HETATM   16  O   UNK N   1      33.437  11.094  10.961  0.00  0.00    -0.307 OA
HETATM   17  H   UNK N   1      33.085  11.874  11.419  0.00  0.00     0.222 HD
ENDBRANCH  14  16
BRANCH  14  18
HETATM   18  O   UNK N   1      32.089  11.607   9.599  0.00  0.00    -0.307 OA
HETATM   19  H   UNK N   1      31.860  12.011  10.451  0.00  0.00     0.222 HD
ENDBRANCH  14  18
ENDBRANCH  13  14
ENDBRANCH  11  13
BRANCH  11  20
HETATM   20  O   UNK N   1      35.619  12.212   9.630  0.00  0.00    -0.307 OA
HETATM   21  H   UNK N   1      35.190  12.817   9.004  0.00  0.00     0.222 HD
ENDBRANCH  11  20
ENDBRANCH  10  11
ENDBRANCH   8  10
BRANCH   8  22
HETATM   22  O   UNK N   1      33.726  14.064  10.973  0.00  0.00    -0.307 OA
HETATM   23  H   UNK N   1      33.022  14.230  10.327  0.00  0.00     0.222 HD
ENDBRANCH   8  22
ENDBRANCH   7   8
ENDBRANCH   6   7
ENDBRANCH   4   6
BRANCH   5  24
HETATM   24  O   UNK N   1      35.156  13.168   7.150  0.00  0.00    -0.390 OA
HETATM   25  H   UNK N   1      36.069  13.071   7.464  0.00  0.00     0.210 HD
ENDBRANCH   5  24
BRANCH   1  26
HETATM   26  N   UNK N   1      31.988  16.703   7.611  0.00  0.00    -0.297 N 
HETATM   27  C   UNK N   1      30.683  16.746   7.319  0.00  0.00     0.159 A 
HETATM   28  C   UNK N   1      30.067  17.621   8.134  0.00  0.00     0.147 A 
HETATM   29  N   UNK N   1      30.030  16.081   6.335  0.00  0.00    -0.174 N 
HETATM   30  C   UNK N   1      28.722  17.899   7.964  0.00  0.00     0.290 A 
HETATM   31  N   UNK N   1      30.958  18.147   8.996  0.00  0.00    -0.345 N 
HETATM   32  N   UNK N   1      28.042  17.217   6.976  0.00  0.00    -0.154 N 
HETATM   33  O   UNK N   1      28.156  18.735   8.642  0.00  0.00    -0.265 OA
HETATM   34  C   UNK N   1      28.691  16.305   6.180  0.00  0.00     0.680 A 
HETATM   35  H   UNK N   1      27.083  17.385   6.840  0.00  0.00     0.187 HD
HETATM   36  N   UNK N   1      27.977  15.602   5.190  0.00  0.00    -0.234 N 
HETATM   37  H   UNK N   1      28.315  14.739   4.856  0.00  0.00     0.174 HD
HETATM   38  H   UNK N   1      27.140  15.974   4.831  0.00  0.00     0.174 HD
HETATM   39  C   UNK N   1      32.143  17.571   8.646  0.00  0.00     0.188 A 
ATOM     40  HN  UNK N   1      30.786  18.822   9.740  1.00  0.00     0.167 HD
ATOM     41  HN  UNK N   1      30.526  15.431   5.724  1.00  0.00     0.186 HD
ENDBRANCH   1  26
BRANCH   3  42
HETATM   42  O   UNK N   1      32.825  14.058   8.238  0.00  0.00    -0.388 OA
HETATM   43  H   UNK N   1      32.708  13.455   8.988  0.00  0.00     0.210 HD
ENDBRANCH   3  42
TORSDOF 14
ENDMDL
