MODEL 1
REMARK VINA RESULT:      -6.7      0.000      0.000
REMARK  21 active torsions:
REMARK  status: ('A' for Active; 'I' for Inactive)
REMARK    1  A    between atoms: C_10  and  C_4 
REMARK    2  A    between atoms: O_31  and  C_4 
REMARK    3  A    between atoms: C_11  and  C_5 
REMARK    4  A    between atoms: O_32  and  C_5 
REMARK    5  A    between atoms: C_12  and  C_6 
REMARK    6  A    between atoms: O_33  and  C_6 
REMARK    7  A    between atoms: O_34  and  C_7 
REMARK    8  A    between atoms: O_35  and  C_8 
REMARK    9  A    between atoms: O_36  and  C_9 
REMARK   10  A    between atoms: C_13  and  N_25 
REMARK   11  A    between atoms: C_14  and  N_27 
REMARK   12  A    between atoms: C_15  and  N_29 
REMARK   13  A    between atoms: C_16  and  O_37 
REMARK   14  A    between atoms: C_17  and  O_38 
REMARK   15  A    between atoms: C_18  and  O_39 
REMARK   16  A    between atoms: C_19  and  O_40 
REMARK   17  A    between atoms: C_20  and  O_45 
REMARK   18  A    between atoms: C_21  and  O_46 
REMARK   19  A    between atoms: C_22  and  O_41 
REMARK   20  A    between atoms: C_23  and  O_46 
REMARK   21  A    between atoms: C_24  and  O_45 
ROOT
HETATM    1  C   UNK N   1      28.514  16.829   7.320  0.00  0.00     0.180 C 
HETATM    2  C   UNK N   1      29.648  15.002   5.392  0.00  0.00     0.169 C 
HETATM    3  C   UNK N   1      28.232  15.590   5.074  0.00  0.00     0.177 C 
HETATM    4  C   UNK N   1      27.829  16.850   5.916  0.00  0.00     0.186 C 
HETATM    5  C   UNK N   1      30.479  16.014   6.202  0.00  0.00     0.286 C 
HETATM    6  O   UNK N   1      29.760  16.190   7.403  0.00  0.00    -0.349 OA
ENDROOT
BRANCH   4   7
HETATM    7  O   UNK N   1      26.389  16.921   5.950  0.00  0.00    -0.348 OA
BRANCH   7   8
HETATM    8  C   UNK N   1      25.717  18.070   5.411  0.00  0.00     0.286 C 
HETATM    9  C   UNK N   1      25.543  17.958   3.879  0.00  0.00     0.169 C 
HETATM   10  C   UNK N   1      24.837  19.216   3.331  0.00  0.00     0.177 C 
HETATM   11  C   UNK N   1      25.684  20.425   3.717  0.00  0.00     0.180 C 
HETATM   12  C   UNK N   1      25.836  20.487   5.259  0.00  0.00     0.179 C 
HETATM   13  O   UNK N   1      26.319  19.281   5.843  0.00  0.00    -0.349 OA
BRANCH   9  14
HETATM   14  N   UNK N   1      24.894  16.719   3.464  0.00  0.00    -0.363 N 
HETATM   15  C   UNK N   1      25.401  15.778   2.731  0.00  0.00     0.107 C 
HETATM   16  C   UNK N   1      24.577  14.576   2.428  0.00  0.00     0.097 C 
ATOM     17  HN  UNK N   1      23.936  16.579   3.783  1.00  0.00     0.162 HD
BRANCH  15  18
HETATM   18  O   UNK N   1      26.645  15.862   2.227  0.00  0.00    -0.350 OA
HETATM   19  H   UNK N   1      27.501  15.534   2.031  0.00  0.00     0.219 HD
ENDBRANCH  15  18
ENDBRANCH   9  14
BRANCH  10  20
HETATM   20  O   UNK N   1      23.552  19.367   3.864  0.00  0.00    -0.391 OA
HETATM   21  H   UNK N   1      23.089  19.863   4.557  0.00  0.00     0.210 HD
ENDBRANCH  10  20
BRANCH  11  22
HETATM   22  O   UNK N   1      26.935  20.339   3.095  0.00  0.00    -0.390 OA
HETATM   23  H   UNK N   1      27.799  19.902   3.156  0.00  0.00     0.210 HD
ENDBRANCH  11  22
BRANCH  12  24
HETATM   24  C   UNK N   1      26.840  21.588   5.635  0.00  0.00     0.198 C 
BRANCH  24  25
HETATM   25  O   UNK N   1      27.860  21.114   6.462  0.00  0.00    -0.398 OA
HETATM   26  H   UNK N   1      28.790  21.282   6.249  0.00  0.00     0.209 HD
ENDBRANCH  24  25
ENDBRANCH  12  24
ENDBRANCH   7   8
ENDBRANCH   4   7
BRANCH   1  27
HETATM   27  C   UNK N   1      28.734  18.222   7.925  0.00  0.00     0.198 C 
BRANCH  27  28
HETATM   28  O   UNK N   1      27.546  18.795   8.382  0.00  0.00    -0.398 OA
HETATM   29  H   UNK N   1      26.628  19.031   8.589  0.00  0.00     0.209 HD
ENDBRANCH  27  28
ENDBRANCH   1  27
BRANCH   3  30
HETATM   30  O   UNK N   1      27.288  14.567   5.211  0.00  0.00    -0.391 OA
HETATM   31  H   UNK N   1      26.776  13.812   4.881  0.00  0.00     0.210 HD
ENDBRANCH   3  30
BRANCH   2  32
HETATM   32  N   UNK N   1      30.295  14.560   4.165  0.00  0.00    -0.363 N 
HETATM   33  C   UNK N   1      31.015  13.491   4.080  0.00  0.00     0.107 C 
HETATM   34  C   UNK N   1      31.631  13.122   2.777  0.00  0.00     0.097 C 
ATOM     35  HN  UNK N   1      30.172  15.126   3.326  1.00  0.00     0.162 HD
BRANCH  33  36
HETATM   36  O   UNK N   1      31.199  12.687   5.148  0.00  0.00    -0.350 OA
HETATM   37  H   UNK N   1      31.295  11.759   5.229  0.00  0.00     0.219 HD
ENDBRANCH  33  36
ENDBRANCH   2  32
BRANCH   5  38
HETATM   38  O   UNK N   1      31.818  15.545   6.487  0.00  0.00    -0.348 OA
BRANCH  38  39
HETATM   39  C   UNK N   1      32.667  16.530   7.114  0.00  0.00     0.186 C 
HETATM   40  C   UNK N   1      33.820  17.107   6.241  0.00  0.00     0.179 C 
HETATM   41  O   UNK N   1      34.334  18.304   6.835  0.00  0.00    -0.349 OA
HETATM   42  C   UNK N   1      34.381  18.304   8.262  0.00  0.00     0.282 C 
HETATM   43  C   UNK N   1      34.559  16.865   8.814  0.00  0.00     0.169 C 
HETATM   44  C   UNK N   1      33.312  16.002   8.425  0.00  0.00     0.177 C 
BRANCH  40  45
HETATM   45  C   UNK N   1      33.419  17.454   4.831  0.00  0.00     0.198 C 
BRANCH  45  46
HETATM   46  O   UNK N   1      33.161  16.300   4.089  0.00  0.00    -0.398 OA
HETATM   47  H   UNK N   1      33.279  16.053   3.158  0.00  0.00     0.209 HD
ENDBRANCH  45  46
ENDBRANCH  40  45
BRANCH  42  48
HETATM   48  O   UNK N   1      35.436  19.129   8.646  0.00  0.00    -0.369 OA
HETATM   49  H   UNK N   1      35.611  19.952   8.164  0.00  0.00     0.212 HD
ENDBRANCH  42  48
BRANCH  43  50
HETATM   50  N   UNK N   1      34.819  16.819  10.244  0.00  0.00    -0.363 N 
HETATM   51  C   UNK N   1      35.643  15.986  10.790  0.00  0.00     0.107 C 
HETATM   52  C   UNK N   1      35.860  16.025  12.262  0.00  0.00     0.097 C 
ATOM     53  HN  UNK N   1      34.326  17.478  10.846  1.00  0.00     0.162 HD
BRANCH  51  54
HETATM   54  O   UNK N   1      36.293  15.059  10.056  0.00  0.00    -0.350 OA
HETATM   55  H   UNK N   1      37.139  14.911   9.682  0.00  0.00     0.219 HD
ENDBRANCH  51  54
ENDBRANCH  43  50
BRANCH  44  56
HETATM   56  O   UNK N   1      32.345  16.017   9.437  0.00  0.00    -0.391 OA
HETATM   57  H   UNK N   1      32.031  15.936  10.351  0.00  0.00     0.210 HD
ENDBRANCH  44  56
ENDBRANCH  38  39
ENDBRANCH   5  38
TORSDOF 21
ENDMDL
MODEL 2
REMARK VINA RESULT:      -6.7      3.374      6.096
REMARK  21 active torsions:
REMARK  status: ('A' for Active; 'I' for Inactive)
REMARK    1  A    between atoms: C_10  and  C_4 
REMARK    2  A    between atoms: O_31  and  C_4 
REMARK    3  A    between atoms: C_11  and  C_5 
REMARK    4  A    between atoms: O_32  and  C_5 
REMARK    5  A    between atoms: C_12  and  C_6 
REMARK    6  A    between atoms: O_33  and  C_6 
REMARK    7  A    between atoms: O_34  and  C_7 
REMARK    8  A    between atoms: O_35  and  C_8 
REMARK    9  A    between atoms: O_36  and  C_9 
REMARK   10  A    between atoms: C_13  and  N_25 
REMARK   11  A    between atoms: C_14  and  N_27 
REMARK   12  A    between atoms: C_15  and  N_29 
REMARK   13  A    between atoms: C_16  and  O_37 
REMARK   14  A    between atoms: C_17  and  O_38 
REMARK   15  A    between atoms: C_18  and  O_39 
REMARK   16  A    between atoms: C_19  and  O_40 
REMARK   17  A    between atoms: C_20  and  O_45 
REMARK   18  A    between atoms: C_21  and  O_46 
REMARK   19  A    between atoms: C_22  and  O_41 
REMARK   20  A    between atoms: C_23  and  O_46 
REMARK   21  A    between atoms: C_24  and  O_45 
ROOT
HETATM    1  C   UNK N   1      25.933  15.648   4.376  0.00  0.00     0.180 C 
HETATM    2  C   UNK N   1      25.891  18.447   5.090  0.00  0.00     0.169 C 
HETATM    3  C   UNK N   1      24.513  17.707   5.013  0.00  0.00     0.177 C 
HETATM    4  C   UNK N   1      24.596  16.141   5.017  0.00  0.00     0.186 C 
HETATM    5  C   UNK N   1      27.000  17.471   5.524  0.00  0.00     0.286 C 
HETATM    6  O   UNK N   1      27.042  16.497   4.503  0.00  0.00    -0.349 OA
ENDROOT
BRANCH   4   7
HETATM    7  O   UNK N   1      23.403  15.630   4.388  0.00  0.00    -0.348 OA
BRANCH   7   8
HETATM    8  C   UNK N   1      22.323  15.138   5.197  0.00  0.00     0.286 C 
HETATM    9  C   UNK N   1      21.210  16.198   5.362  0.00  0.00     0.169 C 
HETATM   10  C   UNK N   1      20.077  15.644   6.252  0.00  0.00     0.177 C 
HETATM   11  C   UNK N   1      20.692  15.256   7.593  0.00  0.00     0.180 C 
HETATM   12  C   UNK N   1      21.806  14.200   7.372  0.00  0.00     0.179 C 
HETATM   13  O   UNK N   1      22.791  14.587   6.418  0.00  0.00    -0.349 OA
BRANCH   9  14
HETATM   14  N   UNK N   1      20.725  16.725   4.092  0.00  0.00    -0.363 N 
HETATM   15  C   UNK N   1      20.661  17.969   3.734  0.00  0.00     0.107 C 
HETATM   16  C   UNK N   1      20.146  18.305   2.379  0.00  0.00     0.097 C 
ATOM     17  HN  UNK N   1      20.400  16.040   3.410  1.00  0.00     0.162 HD
BRANCH  15  18
HETATM   18  O   UNK N   1      21.034  18.965   4.558  0.00  0.00    -0.350 OA
HETATM   19  H   UNK N   1      21.585  19.369   5.199  0.00  0.00     0.219 HD
ENDBRANCH  15  18
ENDBRANCH   9  14
BRANCH  10  20
HETATM   20  O   UNK N   1      19.469  14.520   5.682  0.00  0.00    -0.391 OA
HETATM   21  H   UNK N   1      19.606  13.563   5.601  0.00  0.00     0.210 HD
ENDBRANCH  10  20
BRANCH  11  22
HETATM   22  O   UNK N   1      21.204  16.396   8.223  0.00  0.00    -0.390 OA
HETATM   23  H   UNK N   1      21.302  16.821   9.088  0.00  0.00     0.210 HD
ENDBRANCH  11  22
BRANCH  12  24
HETATM   24  C   UNK N   1      22.550  13.949   8.693  0.00  0.00     0.198 C 
BRANCH  24  25
HETATM   25  O   UNK N   1      21.707  14.039   9.801  0.00  0.00    -0.398 OA
HETATM   26  H   UNK N   1      22.053  14.298  10.669  0.00  0.00     0.209 HD
ENDBRANCH  24  25
ENDBRANCH  12  24
ENDBRANCH   7   8
ENDBRANCH   4   7
BRANCH   1  27
HETATM   27  C   UNK N   1      26.407  14.286   4.898  0.00  0.00     0.198 C 
BRANCH  27  28
HETATM   28  O   UNK N   1      25.375  13.560   5.498  0.00  0.00    -0.398 OA
HETATM   29  H   UNK N   1      24.552  13.244   5.901  0.00  0.00     0.209 HD
ENDBRANCH  27  28
ENDBRANCH   1  27
BRANCH   3  30
HETATM   30  O   UNK N   1      23.823  18.174   3.890  0.00  0.00    -0.391 OA
HETATM   31  H   UNK N   1      23.505  18.874   3.298  0.00  0.00     0.210 HD
ENDBRANCH   3  30
BRANCH   2  32
HETATM   32  N   UNK N   1      25.781  19.625   5.937  0.00  0.00    -0.363 N 
HETATM   33  C   UNK N   1      26.499  20.687   5.783  0.00  0.00     0.107 C 
HETATM   34  C   UNK N   1      26.308  21.843   6.701  0.00  0.00     0.097 C 
ATOM     35  HN  UNK N   1      25.099  19.610   6.696  1.00  0.00     0.162 HD
BRANCH  33  36
HETATM   36  O   UNK N   1      27.405  20.779   4.787  0.00  0.00    -0.350 OA
HETATM   37  H   UNK N   1      28.341  20.743   4.780  0.00  0.00     0.219 HD
ENDBRANCH  33  36
ENDBRANCH   2  32
BRANCH   5  38
HETATM   38  O   UNK N   1      28.292  18.108   5.658  0.00  0.00    -0.348 OA
BRANCH  38  39
HETATM   39  C   UNK N   1      29.173  17.462   6.602  0.00  0.00     0.186 C 
HETATM   40  C   UNK N   1      29.455  18.232   7.926  0.00  0.00     0.179 C 
HETATM   41  O   UNK N   1      30.020  17.345   8.898  0.00  0.00    -0.349 OA
HETATM   42  C   UNK N   1      30.916  16.363   8.379  0.00  0.00     0.282 C 
HETATM   43  C   UNK N   1      31.621  16.875   7.096  0.00  0.00     0.169 C 
HETATM   44  C   UNK N   1      30.552  17.116   5.976  0.00  0.00     0.177 C 
BRANCH  40  45
HETATM   45  C   UNK N   1      28.236  18.854   8.555  0.00  0.00     0.198 C 
BRANCH  45  46
HETATM   46  O   UNK N   1      27.525  17.913   9.301  0.00  0.00    -0.398 OA
HETATM   47  H   UNK N   1      27.775  17.131   9.820  0.00  0.00     0.209 HD
ENDBRANCH  45  46
ENDBRANCH  40  45
BRANCH  42  48
HETATM   48  O   UNK N   1      31.838  16.066   9.379  0.00  0.00    -0.369 OA
HETATM   49  H   UNK N   1      31.724  15.273   9.927  0.00  0.00     0.212 HD
ENDBRANCH  42  48
BRANCH  43  50
HETATM   50  N   UNK N   1      32.693  16.007   6.635  0.00  0.00    -0.363 N 
HETATM   51  C   UNK N   1      33.865  16.439   6.302  0.00  0.00     0.107 C 
HETATM   52  C   UNK N   1      34.907  15.472   5.860  0.00  0.00     0.097 C 
ATOM     53  HN  UNK N   1      32.511  15.005   6.573  1.00  0.00     0.162 HD
BRANCH  51  54
HETATM   54  O   UNK N   1      34.158  17.756   6.318  0.00  0.00    -0.350 OA
HETATM   55  H   UNK N   1      34.843  18.337   6.054  0.00  0.00     0.219 HD
ENDBRANCH  51  54
ENDBRANCH  43  50
BRANCH  44  56
HETATM   56  O   UNK N   1      30.404  15.988   5.161  0.00  0.00    -0.391 OA
HETATM   57  H   UNK N   1      29.947  15.427   4.516  0.00  0.00     0.210 HD
ENDBRANCH  44  56
ENDBRANCH  38  39
ENDBRANCH   5  38
TORSDOF 21
ENDMDL
MODEL 3
REMARK VINA RESULT:      -6.5      6.112     10.746
REMARK  21 active torsions:
REMARK  status: ('A' for Active; 'I' for Inactive)
REMARK    1  A    between atoms: C_10  and  C_4 
REMARK    2  A    between atoms: O_31  and  C_4 
REMARK    3  A    between atoms: C_11  and  C_5 
REMARK    4  A    between atoms: O_32  and  C_5 
REMARK    5  A    between atoms: C_12  and  C_6 
REMARK    6  A    between atoms: O_33  and  C_6 
REMARK    7  A    between atoms: O_34  and  C_7 
REMARK    8  A    between atoms: O_35  and  C_8 
REMARK    9  A    between atoms: O_36  and  C_9 
REMARK   10  A    between atoms: C_13  and  N_25 
REMARK   11  A    between atoms: C_14  and  N_27 
REMARK   12  A    between atoms: C_15  and  N_29 
REMARK   13  A    between atoms: C_16  and  O_37 
REMARK   14  A    between atoms: C_17  and  O_38 
REMARK   15  A    between atoms: C_18  and  O_39 
REMARK   16  A    between atoms: C_19  and  O_40 
REMARK   17  A    between atoms: C_20  and  O_45 
REMARK   18  A    between atoms: C_21  and  O_46 
REMARK   19  A    between atoms: C_22  and  O_41 
REMARK   20  A    between atoms: C_23  and  O_46 
REMARK   21  A    between atoms: C_24  and  O_45 
ROOT
HETATM    1  C   UNK N   1      19.563  16.366   1.595  0.00  0.00     0.180 C 
HETATM    2  C   UNK N   1      19.861  16.564   4.461  0.00  0.00     0.169 C 
HETATM    3  C   UNK N   1      19.781  15.126   3.848  0.00  0.00     0.177 C 
HETATM    4  C   UNK N   1      20.017  15.047   2.300  0.00  0.00     0.186 C 
HETATM    5  C   UNK N   1      20.519  17.536   3.465  0.00  0.00     0.286 C 
HETATM    6  O   UNK N   1      19.655  17.546   2.348  0.00  0.00    -0.349 OA
ENDROOT
BRANCH   4   7
HETATM    7  O   UNK N   1      19.375  13.852   1.811  0.00  0.00    -0.348 OA
BRANCH   7   8
HETATM    8  C   UNK N   1      20.153  12.839   1.156  0.00  0.00     0.286 C 
HETATM    9  C   UNK N   1      20.199  11.535   1.986  0.00  0.00     0.169 C 
HETATM   10  C   UNK N   1      21.059  10.476   1.264  0.00  0.00     0.177 C 
HETATM   11  C   UNK N   1      22.450  11.070   1.065  0.00  0.00     0.180 C 
HETATM   12  C   UNK N   1      22.349  12.377   0.237  0.00  0.00     0.179 C 
HETATM   13  O   UNK N   1      21.427  13.326   0.764  0.00  0.00    -0.349 OA
BRANCH   9  14
HETATM   14  N   UNK N   1      18.877  11.038   2.349  0.00  0.00    -0.363 N 
HETATM   15  C   UNK N   1      18.308  11.104   3.511  0.00  0.00     0.107 C 
HETATM   16  C   UNK N   1      16.938  10.548   3.677  0.00  0.00     0.097 C 
ATOM     17  HN  UNK N   1      18.342  10.587   1.607  1.00  0.00     0.162 HD
BRANCH  15  18
HETATM   18  O   UNK N   1      18.926  11.650   4.574  0.00  0.00    -0.350 OA
HETATM   19  H   UNK N   1      19.635  11.753   5.177  0.00  0.00     0.219 HD
ENDBRANCH  15  18
ENDBRANCH   9  14
BRANCH  10  20
HETATM   20  O   UNK N   1      20.524  10.131   0.018  0.00  0.00    -0.391 OA
HETATM   21  H   UNK N   1      19.723   9.740  -0.364  0.00  0.00     0.210 HD
ENDBRANCH  10  20
BRANCH  11  22
HETATM   22  O   UNK N   1      23.039  11.313   2.311  0.00  0.00    -0.390 OA
HETATM   23  H   UNK N   1      22.874  11.717   3.177  0.00  0.00     0.210 HD
ENDBRANCH  11  22
BRANCH  12  24
HETATM   24  C   UNK N   1      23.719  13.072   0.198  0.00  0.00     0.198 C 
BRANCH  24  25
HETATM   25  O   UNK N   1      23.830  14.076   1.162  0.00  0.00    -0.398 OA
HETATM   26  H   UNK N   1      24.646  14.184   1.674  0.00  0.00     0.209 HD
ENDBRANCH  24  25
ENDBRANCH  12  24
ENDBRANCH   7   8
ENDBRANCH   4   7
BRANCH   1  27
HETATM   27  C   UNK N   1      20.313  16.662   0.290  0.00  0.00     0.198 C 
BRANCH  27  28
HETATM   28  O   UNK N   1      20.289  18.019  -0.040  0.00  0.00    -0.398 OA
HETATM   29  H   UNK N   1      20.369  18.985  -0.075  0.00  0.00     0.209 HD
ENDBRANCH  27  28
ENDBRANCH   1  27
BRANCH   3  30
HETATM   30  O   UNK N   1      18.550  14.563   4.201  0.00  0.00    -0.391 OA
HETATM   31  H   UNK N   1      17.626  14.615   4.492  0.00  0.00     0.210 HD
ENDBRANCH   3  30
BRANCH   2  32
HETATM   32  N   UNK N   1      20.518  16.521   5.759  0.00  0.00    -0.363 N 
HETATM   33  C   UNK N   1      19.893  16.318   6.872  0.00  0.00     0.107 C 
HETATM   34  C   UNK N   1      20.658  16.287   8.148  0.00  0.00     0.097 C 
ATOM     35  HN  UNK N   1      21.528  16.657   5.792  1.00  0.00     0.162 HD
BRANCH  33  36
HETATM   36  O   UNK N   1      18.561  16.109   6.896  0.00  0.00    -0.350 OA
HETATM   37  H   UNK N   1      17.839  16.602   6.557  0.00  0.00     0.219 HD
ENDBRANCH  33  36
ENDBRANCH   2  32
BRANCH   5  38
HETATM   38  O   UNK N   1      20.663  18.875   3.994  0.00  0.00    -0.348 OA
BRANCH  38  39
HETATM   39  C   UNK N   1      21.960  19.464   3.763  0.00  0.00     0.186 C 
HETATM   40  C   UNK N   1      22.224  20.024   2.334  0.00  0.00     0.179 C 
HETATM   41  O   UNK N   1      23.366  20.887   2.347  0.00  0.00    -0.349 OA
HETATM   42  C   UNK N   1      24.424  20.485   3.218  0.00  0.00     0.282 C 
HETATM   43  C   UNK N   1      24.445  18.944   3.393  0.00  0.00     0.169 C 
HETATM   44  C   UNK N   1      23.119  18.480   4.086  0.00  0.00     0.177 C 
BRANCH  40  45
HETATM   45  C   UNK N   1      21.081  20.816   1.756  0.00  0.00     0.198 C 
BRANCH  45  46
HETATM   46  O   UNK N   1      21.121  20.802   0.361  0.00  0.00    -0.398 OA
HETATM   47  H   UNK N   1      21.620  21.299  -0.307  0.00  0.00     0.209 HD
ENDBRANCH  45  46
ENDBRANCH  40  45
BRANCH  42  48
HETATM   48  O   UNK N   1      25.617  20.950   2.671  0.00  0.00    -0.369 OA
HETATM   49  H   UNK N   1      26.466  20.670   3.047  0.00  0.00     0.212 HD
ENDBRANCH  42  48
BRANCH  43  50
HETATM   50  N   UNK N   1      25.618  18.455   4.101  0.00  0.00    -0.363 N 
HETATM   51  C   UNK N   1      26.270  17.394   3.751  0.00  0.00     0.107 C 
HETATM   52  C   UNK N   1      27.471  16.982   4.525  0.00  0.00     0.097 C 
ATOM     53  HN  UNK N   1      25.944  18.978   4.914  1.00  0.00     0.162 HD
BRANCH  51  54
HETATM   54  O   UNK N   1      25.865  16.633   2.713  0.00  0.00    -0.350 OA
HETATM   55  H   UNK N   1      25.075  16.399   2.266  0.00  0.00     0.219 HD
ENDBRANCH  51  54
ENDBRANCH  43  50
BRANCH  44  56
HETATM   56  O   UNK N   1      23.268  18.404   5.475  0.00  0.00    -0.391 OA
HETATM   57  H   UNK N   1      22.951  18.381   6.391  0.00  0.00     0.210 HD
ENDBRANCH  44  56
ENDBRANCH  38  39
ENDBRANCH   5  38
TORSDOF 21
ENDMDL
MODEL 4
REMARK VINA RESULT:      -6.5      2.658      5.653
REMARK  21 active torsions:
REMARK  status: ('A' for Active; 'I' for Inactive)
REMARK    1  A    between atoms: C_10  and  C_4 
REMARK    2  A    between atoms: O_31  and  C_4 
REMARK    3  A    between atoms: C_11  and  C_5 
REMARK    4  A    between atoms: O_32  and  C_5 
REMARK    5  A    between atoms: C_12  and  C_6 
REMARK    6  A    between atoms: O_33  and  C_6 
REMARK    7  A    between atoms: O_34  and  C_7 
REMARK    8  A    between atoms: O_35  and  C_8 
REMARK    9  A    between atoms: O_36  and  C_9 
REMARK   10  A    between atoms: C_13  and  N_25 
REMARK   11  A    between atoms: C_14  and  N_27 
REMARK   12  A    between atoms: C_15  and  N_29 
REMARK   13  A    between atoms: C_16  and  O_37 
REMARK   14  A    between atoms: C_17  and  O_38 
REMARK   15  A    between atoms: C_18  and  O_39 
REMARK   16  A    between atoms: C_19  and  O_40 
REMARK   17  A    between atoms: C_20  and  O_45 
REMARK   18  A    between atoms: C_21  and  O_46 
REMARK   19  A    between atoms: C_22  and  O_41 
REMARK   20  A    between atoms: C_23  and  O_46 
REMARK   21  A    between atoms: C_24  and  O_45 
ROOT
HETATM    1  C   UNK N   1      27.592  16.287   3.480  0.00  0.00     0.180 C 
HETATM    2  C   UNK N   1      26.848  18.636   4.986  0.00  0.00     0.169 C 
HETATM    3  C   UNK N   1      25.696  17.846   4.278  0.00  0.00     0.177 C 
HETATM    4  C   UNK N   1      26.070  16.394   3.817  0.00  0.00     0.186 C 
HETATM    5  C   UNK N   1      27.980  17.678   5.401  0.00  0.00     0.286 C 
HETATM    6  O   UNK N   1      28.455  17.136   4.188  0.00  0.00    -0.349 OA
ENDROOT
BRANCH   4   7
HETATM    7  O   UNK N   1      25.187  16.029   2.737  0.00  0.00    -0.348 OA
BRANCH   7   8
HETATM    8  C   UNK N   1      23.883  15.503   3.026  0.00  0.00     0.286 C 
HETATM    9  C   UNK N   1      23.513  14.346   2.069  0.00  0.00     0.169 C 
HETATM   10  C   UNK N   1      22.100  13.818   2.395  0.00  0.00     0.177 C 
HETATM   11  C   UNK N   1      21.130  14.989   2.268  0.00  0.00     0.180 C 
HETATM   12  C   UNK N   1      21.549  16.123   3.239  0.00  0.00     0.179 C 
HETATM   13  O   UNK N   1      22.907  16.530   3.104  0.00  0.00    -0.349 OA
BRANCH   9  14
HETATM   14  N   UNK N   1      24.518  13.288   2.031  0.00  0.00    -0.363 N 
HETATM   15  C   UNK N   1      24.737  12.451   1.067  0.00  0.00     0.107 C 
HETATM   16  C   UNK N   1      25.826  11.449   1.214  0.00  0.00     0.097 C 
ATOM     17  HN  UNK N   1      25.112  13.197   2.855  1.00  0.00     0.162 HD
BRANCH  15  18
HETATM   18  O   UNK N   1      23.999  12.455  -0.059  0.00  0.00    -0.350 OA
HETATM   19  H   UNK N   1      23.744  12.779  -0.900  0.00  0.00     0.219 HD
ENDBRANCH  15  18
ENDBRANCH   9  14
BRANCH  10  20
HETATM   20  O   UNK N   1      22.024  13.296   3.691  0.00  0.00    -0.391 OA
HETATM   21  H   UNK N   1      22.147  12.457   4.162  0.00  0.00     0.210 HD
ENDBRANCH  10  20
BRANCH  11  22
HETATM   22  O   UNK N   1      21.116  15.445   0.945  0.00  0.00    -0.390 OA
HETATM   23  H   UNK N   1      20.884  15.183   0.041  0.00  0.00     0.210 HD
ENDBRANCH  11  22
BRANCH  12  24
HETATM   24  C   UNK N   1      20.690  17.370   2.978  0.00  0.00     0.198 C 
BRANCH  24  25
HETATM   25  O   UNK N   1      19.369  17.047   2.666  0.00  0.00    -0.398 OA
HETATM   26  H   UNK N   1      18.791  17.690   2.227  0.00  0.00     0.209 HD
ENDBRANCH  24  25
ENDBRANCH  12  24
ENDBRANCH   7   8
ENDBRANCH   4   7
BRANCH   1  27
HETATM   27  C   UNK N   1      28.171  14.878   3.665  0.00  0.00     0.198 C 
BRANCH  27  28
HETATM   28  O   UNK N   1      27.197  13.884   3.543  0.00  0.00    -0.398 OA
HETATM   29  H   UNK N   1      26.627  13.147   3.274  0.00  0.00     0.209 HD
ENDBRANCH  27  28
ENDBRANCH   1  27
BRANCH   3  30
HETATM   30  O   UNK N   1      25.229  18.613   3.206  0.00  0.00    -0.391 OA
HETATM   31  H   UNK N   1      24.705  18.746   2.400  0.00  0.00     0.210 HD
ENDBRANCH   3  30
BRANCH   2  32
HETATM   32  N   UNK N   1      26.314  19.423   6.087  0.00  0.00    -0.363 N 
HETATM   33  C   UNK N   1      26.749  20.597   6.405  0.00  0.00     0.107 C 
HETATM   34  C   UNK N   1      26.131  21.325   7.548  0.00  0.00     0.097 C 
ATOM     35  HN  UNK N   1      25.553  19.026   6.638  1.00  0.00     0.162 HD
BRANCH  33  36
HETATM   36  O   UNK N   1      27.738  21.189   5.705  0.00  0.00    -0.350 OA
HETATM   37  H   UNK N   1      28.610  21.443   5.936  0.00  0.00     0.219 HD
ENDBRANCH  33  36
ENDBRANCH   2  32
BRANCH   5  38
HETATM   38  O   UNK N   1      29.055  18.344   6.103  0.00  0.00    -0.348 OA
BRANCH  38  39
HETATM   39  C   UNK N   1      29.797  17.487   6.996  0.00  0.00     0.186 C 
HETATM   40  C   UNK N   1      29.996  18.008   8.451  0.00  0.00     0.179 C 
HETATM   41  O   UNK N   1      30.406  16.934   9.305  0.00  0.00    -0.349 OA
HETATM   42  C   UNK N   1      31.284  15.981   8.706  0.00  0.00     0.282 C 
HETATM   43  C   UNK N   1      32.143  16.636   7.593  0.00  0.00     0.169 C 
HETATM   44  C   UNK N   1      31.206  17.138   6.442  0.00  0.00     0.177 C 
BRANCH  40  45
HETATM   45  C   UNK N   1      28.764  18.615   9.068  0.00  0.00     0.198 C 
BRANCH  45  46
HETATM   46  O   UNK N   1      27.620  17.907   8.695  0.00  0.00    -0.398 OA
HETATM   47  H   UNK N   1      26.680  17.968   8.927  0.00  0.00     0.209 HD
ENDBRANCH  45  46
ENDBRANCH  40  45
BRANCH  42  48
HETATM   48  O   UNK N   1      32.084  15.454   9.718  0.00  0.00    -0.369 OA
HETATM   49  H   UNK N   1      31.701  14.855  10.378  0.00  0.00     0.212 HD
ENDBRANCH  42  48
BRANCH  43  50
HETATM   50  N   UNK N   1      33.197  15.772   7.087  0.00  0.00    -0.363 N 
HETATM   51  C   UNK N   1      34.330  16.214   6.647  0.00  0.00     0.107 C 
HETATM   52  C   UNK N   1      35.358  15.252   6.166  0.00  0.00     0.097 C 
ATOM     53  HN  UNK N   1      33.034  14.765   7.079  1.00  0.00     0.162 HD
BRANCH  51  54
HETATM   54  O   UNK N   1      34.591  17.537   6.589  0.00  0.00    -0.350 OA
HETATM   55  H   UNK N   1      35.324  18.116   6.508  0.00  0.00     0.219 HD
ENDBRANCH  51  54
ENDBRANCH  43  50
BRANCH  44  56
HETATM   56  O   UNK N   1      31.066  16.173   5.440  0.00  0.00    -0.391 OA
HETATM   57  H   UNK N   1      31.112  15.276   5.073  0.00  0.00     0.210 HD
ENDBRANCH  44  56
ENDBRANCH  38  39
ENDBRANCH   5  38
TORSDOF 21
ENDMDL
MODEL 5
REMARK VINA RESULT:      -6.5      2.079      2.725
REMARK  21 active torsions:
REMARK  status: ('A' for Active; 'I' for Inactive)
REMARK    1  A    between atoms: C_10  and  C_4 
REMARK    2  A    between atoms: O_31  and  C_4 
REMARK    3  A    between atoms: C_11  and  C_5 
REMARK    4  A    between atoms: O_32  and  C_5 
REMARK    5  A    between atoms: C_12  and  C_6 
REMARK    6  A    between atoms: O_33  and  C_6 
REMARK    7  A    between atoms: O_34  and  C_7 
REMARK    8  A    between atoms: O_35  and  C_8 
REMARK    9  A    between atoms: O_36  and  C_9 
REMARK   10  A    between atoms: C_13  and  N_25 
REMARK   11  A    between atoms: C_14  and  N_27 
REMARK   12  A    between atoms: C_15  and  N_29 
REMARK   13  A    between atoms: C_16  and  O_37 
REMARK   14  A    between atoms: C_17  and  O_38 
REMARK   15  A    between atoms: C_18  and  O_39 
REMARK   16  A    between atoms: C_19  and  O_40 
REMARK   17  A    between atoms: C_20  and  O_45 
REMARK   18  A    between atoms: C_21  and  O_46 
REMARK   19  A    between atoms: C_22  and  O_41 
REMARK   20  A    between atoms: C_23  and  O_46 
REMARK   21  A    between atoms: C_24  and  O_45 
ROOT
HETATM    1  C   UNK N   1      30.441  16.380   7.560  0.00  0.00     0.180 C 
HETATM    2  C   UNK N   1      31.963  14.899   5.603  0.00  0.00     0.169 C 
HETATM    3  C   UNK N   1      30.447  15.140   5.296  0.00  0.00     0.177 C 
HETATM    4  C   UNK N   1      29.762  16.258   6.158  0.00  0.00     0.186 C 
HETATM    5  C   UNK N   1      32.537  16.068   6.426  0.00  0.00     0.286 C 
HETATM    6  O   UNK N   1      31.803  16.053   7.631  0.00  0.00    -0.349 OA
ENDROOT
BRANCH   4   7
HETATM    7  O   UNK N   1      28.346  15.987   6.196  0.00  0.00    -0.348 OA
BRANCH   7   8
HETATM    8  C   UNK N   1      27.417  16.975   5.726  0.00  0.00     0.286 C 
HETATM    9  C   UNK N   1      27.363  17.013   4.181  0.00  0.00     0.169 C 
HETATM   10  C   UNK N   1      26.371  18.098   3.711  0.00  0.00     0.177 C 
HETATM   11  C   UNK N   1      26.834  19.430   4.294  0.00  0.00     0.180 C 
HETATM   12  C   UNK N   1      26.879  19.337   5.841  0.00  0.00     0.179 C 
HETATM   13  O   UNK N   1      27.641  18.238   6.333  0.00  0.00    -0.349 OA
BRANCH   9  14
HETATM   14  N   UNK N   1      27.101  15.709   3.583  0.00  0.00    -0.363 N 
HETATM   15  C   UNK N   1      27.825  15.091   2.705  0.00  0.00     0.107 C 
HETATM   16  C   UNK N   1      27.392  13.751   2.226  0.00  0.00     0.097 C 
ATOM     17  HN  UNK N   1      26.253  15.232   3.888  1.00  0.00     0.162 HD
BRANCH  15  18
HETATM   18  O   UNK N   1      28.951  15.632   2.205  0.00  0.00    -0.350 OA
HETATM   19  H   UNK N   1      29.586  16.313   2.100  0.00  0.00     0.219 HD
ENDBRANCH  15  18
ENDBRANCH   9  14
BRANCH  10  20
HETATM   20  O   UNK N   1      25.067  17.835   4.144  0.00  0.00    -0.391 OA
HETATM   21  H   UNK N   1      24.215  18.287   4.252  0.00  0.00     0.210 HD
ENDBRANCH  10  20
BRANCH  11  22
HETATM   22  O   UNK N   1      28.092  19.757   3.776  0.00  0.00    -0.390 OA
HETATM   23  H   UNK N   1      28.595  20.477   3.365  0.00  0.00     0.210 HD
ENDBRANCH  11  22
BRANCH  12  24
HETATM   24  C   UNK N   1      27.522  20.608   6.417  0.00  0.00     0.198 C 
BRANCH  24  25
HETATM   25  O   UNK N   1      27.025  21.769   5.822  0.00  0.00    -0.398 OA
HETATM   26  H   UNK N   1      26.215  21.745   5.289  0.00  0.00     0.209 HD
ENDBRANCH  24  25
ENDBRANCH  12  24
ENDBRANCH   7   8
ENDBRANCH   4   7
BRANCH   1  27
HETATM   27  C   UNK N   1      30.329  17.778   8.184  0.00  0.00     0.198 C 
BRANCH  27  28
HETATM   28  O   UNK N   1      29.045  18.043   8.665  0.00  0.00    -0.398 OA
HETATM   29  H   UNK N   1      28.152  18.377   8.840  0.00  0.00     0.209 HD
ENDBRANCH  27  28
ENDBRANCH   1  27
BRANCH   3  30
HETATM   30  O   UNK N   1      29.772  13.922   5.421  0.00  0.00    -0.391 OA
HETATM   31  H   UNK N   1      29.103  13.271   5.154  0.00  0.00     0.210 HD
ENDBRANCH   3  30
BRANCH   2  32
HETATM   32  N   UNK N   1      32.689  14.639   4.369  0.00  0.00    -0.363 N 
HETATM   33  C   UNK N   1      33.699  13.837   4.287  0.00  0.00     0.107 C 
HETATM   34  C   UNK N   1      34.372  13.635   2.975  0.00  0.00     0.097 C 
ATOM     35  HN  UNK N   1      32.383  15.116   3.521  1.00  0.00     0.162 HD
BRANCH  33  36
HETATM   36  O   UNK N   1      34.141  13.159   5.367  0.00  0.00    -0.350 OA
HETATM   37  H   UNK N   1      34.250  12.244   5.535  0.00  0.00     0.219 HD
ENDBRANCH  33  36
ENDBRANCH   2  32
BRANCH   5  38
HETATM   38  O   UNK N   1      33.950  15.924   6.701  0.00  0.00    -0.348 OA
BRANCH  38  39
HETATM   39  C   UNK N   1      34.272  15.848   8.106  0.00  0.00     0.186 C 
HETATM   40  C   UNK N   1      35.021  17.071   8.712  0.00  0.00     0.179 C 
HETATM   41  O   UNK N   1      34.948  17.033  10.142  0.00  0.00    -0.349 OA
HETATM   42  C   UNK N   1      35.017  15.730  10.721  0.00  0.00     0.282 C 
HETATM   43  C   UNK N   1      35.838  14.765   9.826  0.00  0.00     0.169 C 
HETATM   44  C   UNK N   1      35.110  14.586   8.451  0.00  0.00     0.177 C 
BRANCH  40  45
HETATM   45  C   UNK N   1      34.481  18.409   8.280  0.00  0.00     0.198 C 
BRANCH  45  46
HETATM   46  O   UNK N   1      35.372  19.433   8.603  0.00  0.00    -0.398 OA
HETATM   47  H   UNK N   1      36.243  19.464   9.030  0.00  0.00     0.209 HD
ENDBRANCH  45  46
ENDBRANCH  40  45
BRANCH  42  48
HETATM   48  O   UNK N   1      35.590  15.862  11.983  0.00  0.00    -0.369 OA
HETATM   49  H   UNK N   1      36.458  16.284  12.082  0.00  0.00     0.212 HD
ENDBRANCH  42  48
BRANCH  43  50
HETATM   50  N   UNK N   1      36.117  13.484  10.456  0.00  0.00    -0.363 N 
HETATM   51  C   UNK N   1      37.304  13.104  10.800  0.00  0.00     0.107 C 
HETATM   52  C   UNK N   1      37.491  11.783  11.457  0.00  0.00     0.097 C 
ATOM     53  HN  UNK N   1      35.335  12.854  10.636  1.00  0.00     0.162 HD
BRANCH  51  54
HETATM   54  O   UNK N   1      38.386  13.871  10.549  0.00  0.00    -0.350 OA
HETATM   55  H   UNK N   1      38.603  14.686  10.140  0.00  0.00     0.219 HD
ENDBRANCH  51  54
ENDBRANCH  43  50
BRANCH  44  56
HETATM   56  O   UNK N   1      34.261  13.474   8.464  0.00  0.00    -0.391 OA
HETATM   57  H   UNK N   1      34.054  12.530   8.536  0.00  0.00     0.210 HD
ENDBRANCH  44  56
ENDBRANCH  38  39
ENDBRANCH   5  38
TORSDOF 21
ENDMDL
MODEL 6
REMARK VINA RESULT:      -6.4      3.252      5.872
REMARK  21 active torsions:
REMARK  status: ('A' for Active; 'I' for Inactive)
REMARK    1  A    between atoms: C_10  and  C_4 
REMARK    2  A    between atoms: O_31  and  C_4 
REMARK    3  A    between atoms: C_11  and  C_5 
REMARK    4  A    between atoms: O_32  and  C_5 
REMARK    5  A    between atoms: C_12  and  C_6 
REMARK    6  A    between atoms: O_33  and  C_6 
REMARK    7  A    between atoms: O_34  and  C_7 
REMARK    8  A    between atoms: O_35  and  C_8 
REMARK    9  A    between atoms: O_36  and  C_9 
REMARK   10  A    between atoms: C_13  and  N_25 
REMARK   11  A    between atoms: C_14  and  N_27 
REMARK   12  A    between atoms: C_15  and  N_29 
REMARK   13  A    between atoms: C_16  and  O_37 
REMARK   14  A    between atoms: C_17  and  O_38 
REMARK   15  A    between atoms: C_18  and  O_39 
REMARK   16  A    between atoms: C_19  and  O_40 
REMARK   17  A    between atoms: C_20  and  O_45 
REMARK   18  A    between atoms: C_21  and  O_46 
REMARK   19  A    between atoms: C_22  and  O_41 
REMARK   20  A    between atoms: C_23  and  O_46 
REMARK   21  A    between atoms: C_24  and  O_45 
ROOT
HETATM    1  C   UNK N   1      23.818  17.039   4.904  0.00  0.00     0.180 C 
HETATM    2  C   UNK N   1      26.156  15.910   3.639  0.00  0.00     0.169 C 
HETATM    3  C   UNK N   1      24.773  15.262   3.294  0.00  0.00     0.177 C 
HETATM    4  C   UNK N   1      23.519  16.126   3.671  0.00  0.00     0.186 C 
HETATM    5  C   UNK N   1      25.986  17.411   3.936  0.00  0.00     0.286 C 
HETATM    6  O   UNK N   1      25.146  17.461   5.069  0.00  0.00    -0.349 OA
ENDROOT
BRANCH   4   7
HETATM    7  O   UNK N   1      22.398  15.236   3.840  0.00  0.00    -0.348 OA
BRANCH   7   8
HETATM    8  C   UNK N   1      21.202  15.440   3.073  0.00  0.00     0.286 C 
HETATM    9  C   UNK N   1      21.411  15.074   1.586  0.00  0.00     0.169 C 
HETATM   10  C   UNK N   1      20.113  15.324   0.789  0.00  0.00     0.177 C 
HETATM   11  C   UNK N   1      19.743  16.794   0.962  0.00  0.00     0.180 C 
HETATM   12  C   UNK N   1      19.553  17.112   2.468  0.00  0.00     0.179 C 
HETATM   13  O   UNK N   1      20.657  16.734   3.284  0.00  0.00    -0.349 OA
BRANCH   9  14
HETATM   14  N   UNK N   1      21.942  13.728   1.395  0.00  0.00    -0.363 N 
HETATM   15  C   UNK N   1      23.006  13.392   0.737  0.00  0.00     0.107 C 
HETATM   16  C   UNK N   1      23.391  11.957   0.670  0.00  0.00     0.097 C 
ATOM     17  HN  UNK N   1      21.416  12.968   1.826  1.00  0.00     0.162 HD
BRANCH  15  18
HETATM   18  O   UNK N   1      23.765  14.304   0.102  0.00  0.00    -0.350 OA
HETATM   19  H   UNK N   1      24.536  14.821  -0.022  0.00  0.00     0.219 HD
ENDBRANCH  15  18
ENDBRANCH   9  14
BRANCH  10  20
HETATM   20  O   UNK N   1      19.059  14.527   1.246  0.00  0.00    -0.391 OA
HETATM   21  H   UNK N   1      18.673  14.211   2.078  0.00  0.00     0.210 HD
ENDBRANCH  10  20
BRANCH  11  22
HETATM   22  O   UNK N   1      20.743  17.599   0.405  0.00  0.00    -0.390 OA
HETATM   23  H   UNK N   1      21.205  17.792  -0.426  0.00  0.00     0.210 HD
ENDBRANCH  11  22
BRANCH  12  24
HETATM   24  C   UNK N   1      19.367  18.626   2.657  0.00  0.00     0.198 C 
BRANCH  24  25
HETATM   25  O   UNK N   1      18.083  19.049   2.308  0.00  0.00    -0.398 OA
HETATM   26  H   UNK N   1      17.772  18.985   1.392  0.00  0.00     0.209 HD
ENDBRANCH  24  25
ENDBRANCH  12  24
ENDBRANCH   7   8
ENDBRANCH   4   7
BRANCH   1  27
HETATM   27  C   UNK N   1      22.980  18.323   4.944  0.00  0.00     0.198 C 
BRANCH  27  28
HETATM   28  O   UNK N   1      21.688  18.099   5.425  0.00  0.00    -0.398 OA
HETATM   29  H   UNK N   1      20.752  17.884   5.555  0.00  0.00     0.209 HD
ENDBRANCH  27  28
ENDBRANCH   1  27
BRANCH   3  30
HETATM   30  O   UNK N   1      24.714  14.000   3.892  0.00  0.00    -0.391 OA
HETATM   31  H   UNK N   1      24.912  13.367   4.602  0.00  0.00     0.210 HD
ENDBRANCH   3  30
BRANCH   2  32
HETATM   32  N   UNK N   1      27.120  15.625   2.586  0.00  0.00    -0.363 N 
HETATM   33  C   UNK N   1      28.023  14.706   2.672  0.00  0.00     0.107 C 
HETATM   34  C   UNK N   1      28.961  14.489   1.536  0.00  0.00     0.097 C 
ATOM     35  HN  UNK N   1      27.079  16.183   1.733  1.00  0.00     0.162 HD
BRANCH  33  36
HETATM   36  O   UNK N   1      28.118  13.920   3.764  0.00  0.00    -0.350 OA
HETATM   37  H   UNK N   1      27.973  13.004   3.895  0.00  0.00     0.219 HD
ENDBRANCH  33  36
ENDBRANCH   2  32
BRANCH   5  38
HETATM   38  O   UNK N   1      27.240  18.076   4.217  0.00  0.00    -0.348 OA
BRANCH  38  39
HETATM   39  C   UNK N   1      27.581  18.124   5.619  0.00  0.00     0.186 C 
HETATM   40  C   UNK N   1      27.840  19.537   6.221  0.00  0.00     0.179 C 
HETATM   41  O   UNK N   1      27.798  19.476   7.651  0.00  0.00    -0.349 OA
HETATM   42  C   UNK N   1      28.342  18.288   8.226  0.00  0.00     0.282 C 
HETATM   43  C   UNK N   1      29.450  17.687   7.321  0.00  0.00     0.169 C 
HETATM   44  C   UNK N   1      28.825  17.254   5.952  0.00  0.00     0.177 C 
BRANCH  40  45
HETATM   45  C   UNK N   1      26.845  20.585   5.797  0.00  0.00     0.198 C 
BRANCH  45  46
HETATM   46  O   UNK N   1      25.538  20.151   6.024  0.00  0.00    -0.398 OA
HETATM   47  H   UNK N   1      24.663  20.563   5.936  0.00  0.00     0.209 HD
ENDBRANCH  45  46
ENDBRANCH  40  45
BRANCH  42  48
HETATM   48  O   UNK N   1      28.840  18.621   9.484  0.00  0.00    -0.369 OA
HETATM   49  H   UNK N   1      28.562  18.119  10.266  0.00  0.00     0.212 HD
ENDBRANCH  42  48
BRANCH  43  50
HETATM   50  N   UNK N   1      30.182  16.596   7.945  0.00  0.00    -0.363 N 
HETATM   51  C   UNK N   1      31.272  16.766   8.621  0.00  0.00     0.107 C 
HETATM   52  C   UNK N   1      31.942  15.591   9.240  0.00  0.00     0.097 C 
ATOM     53  HN  UNK N   1      29.816  15.649   7.845  1.00  0.00     0.162 HD
BRANCH  51  54
HETATM   54  O   UNK N   1      31.833  17.986   8.753  0.00  0.00    -0.350 OA
HETATM   55  H   UNK N   1      32.680  18.374   8.855  0.00  0.00     0.219 HD
ENDBRANCH  51  54
ENDBRANCH  43  50
BRANCH  44  56
HETATM   56  O   UNK N   1      28.439  15.910   5.970  0.00  0.00    -0.391 OA
HETATM   57  H   UNK N   1      28.582  14.955   5.881  0.00  0.00     0.210 HD
ENDBRANCH  44  56
ENDBRANCH  38  39
ENDBRANCH   5  38
TORSDOF 21
ENDMDL
MODEL 7
REMARK VINA RESULT:      -6.3      2.699      8.795
REMARK  21 active torsions:
REMARK  status: ('A' for Active; 'I' for Inactive)
REMARK    1  A    between atoms: C_10  and  C_4 
REMARK    2  A    between atoms: O_31  and  C_4 
REMARK    3  A    between atoms: C_11  and  C_5 
REMARK    4  A    between atoms: O_32  and  C_5 
REMARK    5  A    between atoms: C_12  and  C_6 
REMARK    6  A    between atoms: O_33  and  C_6 
REMARK    7  A    between atoms: O_34  and  C_7 
REMARK    8  A    between atoms: O_35  and  C_8 
REMARK    9  A    between atoms: O_36  and  C_9 
REMARK   10  A    between atoms: C_13  and  N_25 
REMARK   11  A    between atoms: C_14  and  N_27 
REMARK   12  A    between atoms: C_15  and  N_29 
REMARK   13  A    between atoms: C_16  and  O_37 
REMARK   14  A    between atoms: C_17  and  O_38 
REMARK   15  A    between atoms: C_18  and  O_39 
REMARK   16  A    between atoms: C_19  and  O_40 
REMARK   17  A    between atoms: C_20  and  O_45 
REMARK   18  A    between atoms: C_21  and  O_46 
REMARK   19  A    between atoms: C_22  and  O_41 
REMARK   20  A    between atoms: C_23  and  O_46 
REMARK   21  A    between atoms: C_24  and  O_45 
ROOT
HETATM    1  C   UNK N   1      33.639  15.325   5.627  0.00  0.00     0.180 C 
HETATM    2  C   UNK N   1      31.830  13.174   4.961  0.00  0.00     0.169 C 
HETATM    3  C   UNK N   1      32.954  12.866   6.007  0.00  0.00     0.177 C 
HETATM    4  C   UNK N   1      33.649  14.126   6.630  0.00  0.00     0.186 C 
HETATM    5  C   UNK N   1      31.405  14.651   5.050  0.00  0.00     0.286 C 
HETATM    6  O   UNK N   1      32.569  15.380   4.723  0.00  0.00    -0.349 OA
ENDROOT
BRANCH   4   7
HETATM    7  O   UNK N   1      34.959  13.733   7.086  0.00  0.00    -0.348 OA
BRANCH   7   8
HETATM    8  C   UNK N   1      35.282  13.808   8.482  0.00  0.00     0.286 C 
HETATM    9  C   UNK N   1      34.338  12.925   9.331  0.00  0.00     0.169 C 
HETATM   10  C   UNK N   1      34.700  13.044  10.827  0.00  0.00     0.177 C 
HETATM   11  C   UNK N   1      34.594  14.517  11.210  0.00  0.00     0.180 C 
HETATM   12  C   UNK N   1      35.551  15.358  10.327  0.00  0.00     0.179 C 
HETATM   13  O   UNK N   1      35.381  15.151   8.928  0.00  0.00    -0.349 OA
BRANCH   9  14
HETATM   14  N   UNK N   1      34.278  11.541   8.871  0.00  0.00    -0.363 N 
HETATM   15  C   UNK N   1      33.276  10.726   8.971  0.00  0.00     0.107 C 
HETATM   16  C   UNK N   1      33.408   9.349   8.423  0.00  0.00     0.097 C 
ATOM     17  HN  UNK N   1      35.118  11.175   8.424  1.00  0.00     0.162 HD
BRANCH  15  18
HETATM   18  O   UNK N   1      32.124  11.086   9.567  0.00  0.00    -0.350 OA
HETATM   19  H   UNK N   1      31.195  11.074   9.684  0.00  0.00     0.219 HD
ENDBRANCH  15  18
ENDBRANCH   9  14
BRANCH  10  20
HETATM   20  O   UNK N   1      35.999  12.594  11.086  0.00  0.00    -0.391 OA
HETATM   21  H   UNK N   1      36.883  12.946  11.275  0.00  0.00     0.210 HD
ENDBRANCH  10  20
BRANCH  11  22
HETATM   22  O   UNK N   1      33.270  14.946  11.061  0.00  0.00    -0.390 OA
HETATM   23  H   UNK N   1      32.482  14.840  10.506  0.00  0.00     0.210 HD
ENDBRANCH  11  22
BRANCH  12  24
HETATM   24  C   UNK N   1      35.308  16.854  10.581  0.00  0.00     0.198 C 
BRANCH  24  25
HETATM   25  O   UNK N   1      34.250  17.355   9.820  0.00  0.00    -0.398 OA
HETATM   26  H   UNK N   1      34.194  17.175   8.869  0.00  0.00     0.209 HD
ENDBRANCH  24  25
ENDBRANCH  12  24
ENDBRANCH   7   8
ENDBRANCH   4   7
BRANCH   1  27
HETATM   27  C   UNK N   1      33.666  16.701   6.304  0.00  0.00     0.198 C 
BRANCH  27  28
HETATM   28  O   UNK N   1      34.883  16.955   6.941  0.00  0.00    -0.398 OA
HETATM   29  H   UNK N   1      35.812  17.081   7.189  0.00  0.00     0.209 HD
ENDBRANCH  27  28
ENDBRANCH   1  27
BRANCH   3  30
HETATM   30  O   UNK N   1      33.890  12.014   5.413  0.00  0.00    -0.391 OA
HETATM   31  H   UNK N   1      34.561  11.795   4.746  0.00  0.00     0.210 HD
ENDBRANCH   3  30
BRANCH   2  32
HETATM   32  N   UNK N   1      30.729  12.236   5.117  0.00  0.00    -0.363 N 
HETATM   33  C   UNK N   1      30.685  11.080   4.543  0.00  0.00     0.107 C 
HETATM   34  C   UNK N   1      29.514  10.189   4.770  0.00  0.00     0.097 C 
ATOM     35  HN  UNK N   1      29.947  12.507   5.714  1.00  0.00     0.162 HD
BRANCH  33  36
HETATM   36  O   UNK N   1      31.696  10.652   3.758  0.00  0.00    -0.350 OA
HETATM   37  H   UNK N   1      32.523  11.031   3.533  0.00  0.00     0.219 HD
ENDBRANCH  33  36
ENDBRANCH   2  32
BRANCH   5  38
HETATM   38  O   UNK N   1      30.335  14.986   4.136  0.00  0.00    -0.348 OA
BRANCH  38  39
HETATM   39  C   UNK N   1      29.132  15.453   4.783  0.00  0.00     0.186 C 
HETATM   40  C   UNK N   1      27.783  14.974   4.168  0.00  0.00     0.179 C 
HETATM   41  O   UNK N   1      26.715  15.193   5.096  0.00  0.00    -0.349 OA
HETATM   42  C   UNK N   1      26.820  16.385   5.876  0.00  0.00     0.282 C 
HETATM   43  C   UNK N   1      27.600  17.485   5.109  0.00  0.00     0.169 C 
HETATM   44  C   UNK N   1      29.069  17.004   4.861  0.00  0.00     0.177 C 
BRANCH  40  45
HETATM   45  C   UNK N   1      27.752  13.514   3.799  0.00  0.00     0.198 C 
BRANCH  45  46
HETATM   46  O   UNK N   1      28.678  13.236   2.792  0.00  0.00    -0.398 OA
HETATM   47  H   UNK N   1      28.915  13.664   1.953  0.00  0.00     0.209 HD
ENDBRANCH  45  46
ENDBRANCH  40  45
BRANCH  42  48
HETATM   48  O   UNK N   1      25.526  16.800   6.182  0.00  0.00    -0.369 OA
HETATM   49  H   UNK N   1      25.193  16.725   7.090  0.00  0.00     0.212 HD
ENDBRANCH  42  48
BRANCH  43  50
HETATM   50  N   UNK N   1      27.565  18.784   5.762  0.00  0.00    -0.363 N 
HETATM   51  C   UNK N   1      27.586  19.905   5.117  0.00  0.00     0.107 C 
HETATM   52  C   UNK N   1      27.527  21.187   5.870  0.00  0.00     0.097 C 
ATOM     53  HN  UNK N   1      27.519  18.812   6.781  1.00  0.00     0.162 HD
BRANCH  51  54
HETATM   54  O   UNK N   1      27.691  19.938   3.772  0.00  0.00    -0.350 OA
HETATM   55  H   UNK N   1      27.806  20.561   3.081  0.00  0.00     0.219 HD
ENDBRANCH  51  54
ENDBRANCH  43  50
BRANCH  44  56
HETATM   56  O   UNK N   1      29.927  17.435   5.878  0.00  0.00    -0.391 OA
HETATM   57  H   UNK N   1      30.682  17.925   6.240  0.00  0.00     0.210 HD
ENDBRANCH  44  56
ENDBRANCH  38  39
ENDBRANCH   5  38
TORSDOF 21
ENDMDL
MODEL 8
REMARK VINA RESULT:      -6.2      3.293      7.159
REMARK  21 active torsions:
REMARK  status: ('A' for Active; 'I' for Inactive)
REMARK    1  A    between atoms: C_10  and  C_4 
REMARK    2  A    between atoms: O_31  and  C_4 
REMARK    3  A    between atoms: C_11  and  C_5 
REMARK    4  A    between atoms: O_32  and  C_5 
REMARK    5  A    between atoms: C_12  and  C_6 
REMARK    6  A    between atoms: O_33  and  C_6 
REMARK    7  A    between atoms: O_34  and  C_7 
REMARK    8  A    between atoms: O_35  and  C_8 
REMARK    9  A    between atoms: O_36  and  C_9 
REMARK   10  A    between atoms: C_13  and  N_25 
REMARK   11  A    between atoms: C_14  and  N_27 
REMARK   12  A    between atoms: C_15  and  N_29 
REMARK   13  A    between atoms: C_16  and  O_37 
REMARK   14  A    between atoms: C_17  and  O_38 
REMARK   15  A    between atoms: C_18  and  O_39 
REMARK   16  A    between atoms: C_19  and  O_40 
REMARK   17  A    between atoms: C_20  and  O_45 
REMARK   18  A    between atoms: C_21  and  O_46 
REMARK   19  A    between atoms: C_22  and  O_41 
REMARK   20  A    between atoms: C_23  and  O_46 
REMARK   21  A    between atoms: C_24  and  O_45 
ROOT
HETATM    1  C   UNK N   1      24.512  15.854   3.702  0.00  0.00     0.180 C 
HETATM    2  C   UNK N   1      25.253  18.460   4.702  0.00  0.00     0.169 C 
HETATM    3  C   UNK N   1      23.802  17.961   5.013  0.00  0.00     0.177 C 
HETATM    4  C   UNK N   1      23.569  16.423   4.810  0.00  0.00     0.186 C 
HETATM    5  C   UNK N   1      26.225  17.269   4.620  0.00  0.00     0.286 C 
HETATM    6  O   UNK N   1      25.751  16.492   3.541  0.00  0.00    -0.349 OA
ENDROOT
BRANCH   4   7
HETATM    7  O   UNK N   1      22.163  16.214   4.569  0.00  0.00    -0.348 OA
BRANCH   7   8
HETATM    8  C   UNK N   1      21.731  15.587   3.352  0.00  0.00     0.286 C 
HETATM    9  C   UNK N   1      20.513  16.316   2.739  0.00  0.00     0.169 C 
HETATM   10  C   UNK N   1      20.064  15.605   1.445  0.00  0.00     0.177 C 
HETATM   11  C   UNK N   1      19.737  14.159   1.804  0.00  0.00     0.180 C 
HETATM   12  C   UNK N   1      20.985  13.476   2.420  0.00  0.00     0.179 C 
HETATM   13  O   UNK N   1      21.553  14.188   3.515  0.00  0.00    -0.349 OA
BRANCH   9  14
HETATM   14  N   UNK N   1      20.733  17.746   2.553  0.00  0.00    -0.363 N 
HETATM   15  C   UNK N   1      19.831  18.670   2.454  0.00  0.00     0.107 C 
HETATM   16  C   UNK N   1      20.262  20.084   2.280  0.00  0.00     0.097 C 
ATOM     17  HN  UNK N   1      21.704  18.051   2.492  1.00  0.00     0.162 HD
BRANCH  15  18
HETATM   18  O   UNK N   1      18.516  18.387   2.490  0.00  0.00    -0.350 OA
HETATM   19  H   UNK N   1      17.773  17.852   2.690  0.00  0.00     0.219 HD
ENDBRANCH  15  18
ENDBRANCH   9  14
BRANCH  10  20
HETATM   20  O   UNK N   1      21.064  15.621   0.467  0.00  0.00    -0.391 OA
HETATM   21  H   UNK N   1      21.590  15.006  -0.067  0.00  0.00     0.210 HD
ENDBRANCH  10  20
BRANCH  11  22
HETATM   22  O   UNK N   1      18.659  14.129   2.697  0.00  0.00    -0.390 OA
HETATM   23  H   UNK N   1      17.820  13.680   2.879  0.00  0.00     0.210 HD
ENDBRANCH  11  22
BRANCH  12  24
HETATM   24  C   UNK N   1      20.604  12.086   2.953  0.00  0.00     0.198 C 
BRANCH  24  25
HETATM   25  O   UNK N   1      21.465  11.089   2.491  0.00  0.00    -0.398 OA
HETATM   26  H   UNK N   1      22.419  11.251   2.420  0.00  0.00     0.209 HD
ENDBRANCH  24  25
ENDBRANCH  12  24
ENDBRANCH   7   8
ENDBRANCH   4   7
BRANCH   1  27
HETATM   27  C   UNK N   1      24.845  14.366   3.873  0.00  0.00     0.198 C 
BRANCH  27  28
HETATM   28  O   UNK N   1      24.131  13.780   4.920  0.00  0.00    -0.398 OA
HETATM   29  H   UNK N   1      23.473  13.499   5.575  0.00  0.00     0.209 HD
ENDBRANCH  27  28
ENDBRANCH   1  27
BRANCH   3  30
HETATM   30  O   UNK N   1      22.903  18.713   4.252  0.00  0.00    -0.391 OA
HETATM   31  H   UNK N   1      22.337  18.863   3.478  0.00  0.00     0.210 HD
ENDBRANCH   3  30
BRANCH   2  32
HETATM   32  N   UNK N   1      25.651  19.476   5.665  0.00  0.00    -0.363 N 
HETATM   33  C   UNK N   1      26.365  20.509   5.363  0.00  0.00     0.107 C 
HETATM   34  C   UNK N   1      26.716  21.496   6.421  0.00  0.00     0.097 C 
ATOM     35  HN  UNK N   1      25.349  19.366   6.633  1.00  0.00     0.162 HD
BRANCH  33  36
HETATM   36  O   UNK N   1      26.779  20.725   4.097  0.00  0.00    -0.350 OA
HETATM   37  H   UNK N   1      27.100  20.149   3.431  0.00  0.00     0.219 HD
ENDBRANCH  33  36
ENDBRANCH   2  32
BRANCH   5  38
HETATM   38  O   UNK N   1      27.593  17.672   4.380  0.00  0.00    -0.348 OA
BRANCH  38  39
HETATM   39  C   UNK N   1      28.578  16.810   4.988  0.00  0.00     0.186 C 
HETATM   40  C   UNK N   1      29.500  17.459   6.062  0.00  0.00     0.179 C 
HETATM   41  O   UNK N   1      30.153  16.442   6.829  0.00  0.00    -0.349 OA
HETATM   42  C   UNK N   1      30.536  15.278   6.096  0.00  0.00     0.282 C 
HETATM   43  C   UNK N   1      30.822  15.623   4.611  0.00  0.00     0.169 C 
HETATM   44  C   UNK N   1      29.507  16.144   3.936  0.00  0.00     0.177 C 
BRANCH  40  45
HETATM   45  C   UNK N   1      28.782  18.353   7.039  0.00  0.00     0.198 C 
BRANCH  45  46
HETATM   46  O   UNK N   1      27.622  17.739   7.514  0.00  0.00    -0.398 OA
HETATM   47  H   UNK N   1      26.690  18.006   7.574  0.00  0.00     0.209 HD
ENDBRANCH  45  46
ENDBRANCH  40  45
BRANCH  42  48
HETATM   48  O   UNK N   1      31.661  14.742   6.717  0.00  0.00    -0.369 OA
HETATM   49  H   UNK N   1      32.418  15.311   6.928  0.00  0.00     0.212 HD
ENDBRANCH  42  48
BRANCH  43  50
HETATM   50  N   UNK N   1      31.410  14.525   3.861  0.00  0.00    -0.363 N 
HETATM   51  C   UNK N   1      32.349  14.683   2.986  0.00  0.00     0.107 C 
HETATM   52  C   UNK N   1      32.904  13.497   2.281  0.00  0.00     0.097 C 
ATOM     53  HN  UNK N   1      31.066  13.581   4.036  1.00  0.00     0.162 HD
BRANCH  51  54
HETATM   54  O   UNK N   1      32.817  15.910   2.674  0.00  0.00    -0.350 OA
HETATM   55  H   UNK N   1      32.806  16.518   1.961  0.00  0.00     0.219 HD
ENDBRANCH  51  54
ENDBRANCH  43  50
BRANCH  44  56
HETATM   56  O   UNK N   1      28.807  15.104   3.314  0.00  0.00    -0.391 OA
HETATM   57  H   UNK N   1      28.031  14.693   2.902  0.00  0.00     0.210 HD
ENDBRANCH  44  56
ENDBRANCH  38  39
ENDBRANCH   5  38
TORSDOF 21
ENDMDL
MODEL 9
REMARK VINA RESULT:      -6.1      3.168      5.719
REMARK  21 active torsions:
REMARK  status: ('A' for Active; 'I' for Inactive)
REMARK    1  A    between atoms: C_10  and  C_4 
REMARK    2  A    between atoms: O_31  and  C_4 
REMARK    3  A    between atoms: C_11  and  C_5 
REMARK    4  A    between atoms: O_32  and  C_5 
REMARK    5  A    between atoms: C_12  and  C_6 
REMARK    6  A    between atoms: O_33  and  C_6 
REMARK    7  A    between atoms: O_34  and  C_7 
REMARK    8  A    between atoms: O_35  and  C_8 
REMARK    9  A    between atoms: O_36  and  C_9 
REMARK   10  A    between atoms: C_13  and  N_25 
REMARK   11  A    between atoms: C_14  and  N_27 
REMARK   12  A    between atoms: C_15  and  N_29 
REMARK   13  A    between atoms: C_16  and  O_37 
REMARK   14  A    between atoms: C_17  and  O_38 
REMARK   15  A    between atoms: C_18  and  O_39 
REMARK   16  A    between atoms: C_19  and  O_40 
REMARK   17  A    between atoms: C_20  and  O_45 
REMARK   18  A    between atoms: C_21  and  O_46 
REMARK   19  A    between atoms: C_22  and  O_41 
REMARK   20  A    between atoms: C_23  and  O_46 
REMARK   21  A    between atoms: C_24  and  O_45 
ROOT
HETATM    1  C   UNK N   1      32.211  14.718   7.899  0.00  0.00     0.180 C 
HETATM    2  C   UNK N   1      34.507  13.202   7.023  0.00  0.00     0.169 C 
HETATM    3  C   UNK N   1      33.228  13.150   6.120  0.00  0.00     0.177 C 
HETATM    4  C   UNK N   1      32.167  14.269   6.403  0.00  0.00     0.186 C 
HETATM    5  C   UNK N   1      34.604  14.562   7.738  0.00  0.00     0.286 C 
HETATM    6  O   UNK N   1      33.451  14.625   8.549  0.00  0.00    -0.349 OA
ENDROOT
BRANCH   4   7
HETATM    7  O   UNK N   1      30.883  13.789   5.957  0.00  0.00    -0.348 OA
BRANCH   7   8
HETATM    8  C   UNK N   1      30.084  14.597   5.080  0.00  0.00     0.286 C 
HETATM    9  C   UNK N   1      30.912  15.132   3.889  0.00  0.00     0.169 C 
HETATM   10  C   UNK N   1      30.028  16.011   2.979  0.00  0.00     0.177 C 
HETATM   11  C   UNK N   1      29.471  17.145   3.834  0.00  0.00     0.180 C 
HETATM   12  C   UNK N   1      28.658  16.557   5.017  0.00  0.00     0.179 C 
HETATM   13  O   UNK N   1      29.371  15.598   5.791  0.00  0.00    -0.349 OA
BRANCH   9  14
HETATM   14  N   UNK N   1      31.609  14.081   3.156  0.00  0.00    -0.363 N 
HETATM   15  C   UNK N   1      32.759  14.168   2.566  0.00  0.00     0.107 C 
HETATM   16  C   UNK N   1      33.312  12.970   1.879  0.00  0.00     0.097 C 
ATOM     17  HN  UNK N   1      31.139  13.178   3.100  1.00  0.00     0.162 HD
BRANCH  15  18
HETATM   18  O   UNK N   1      33.462  15.316   2.546  0.00  0.00    -0.350 OA
HETATM   19  H   UNK N   1      34.238  15.832   2.640  0.00  0.00     0.219 HD
ENDBRANCH  15  18
ENDBRANCH   9  14
BRANCH  10  20
HETATM   20  O   UNK N   1      28.966  15.287   2.426  0.00  0.00    -0.391 OA
HETATM   21  H   UNK N   1      28.033  15.403   2.187  0.00  0.00     0.210 HD
ENDBRANCH  10  20
BRANCH  11  22
HETATM   22  O   UNK N   1      30.522  17.942   4.299  0.00  0.00    -0.390 OA
HETATM   23  H   UNK N   1      30.850  18.407   5.085  0.00  0.00     0.210 HD
ENDBRANCH  11  22
BRANCH  12  24
HETATM   24  C   UNK N   1      28.257  17.686   5.980  0.00  0.00     0.198 C 
BRANCH  24  25
HETATM   25  O   UNK N   1      28.686  17.444   7.286  0.00  0.00    -0.398 OA
HETATM   26  H   UNK N   1      29.263  18.074   7.743  0.00  0.00     0.209 HD
ENDBRANCH  24  25
ENDBRANCH  12  24
ENDBRANCH   7   8
ENDBRANCH   4   7
BRANCH   1  27
HETATM   27  C   UNK N   1      31.745  16.162   8.128  0.00  0.00     0.198 C 
BRANCH  27  28
HETATM   28  O   UNK N   1      31.641  16.881   6.935  0.00  0.00    -0.398 OA
HETATM   29  H   UNK N   1      31.453  17.209   6.042  0.00  0.00     0.209 HD
ENDBRANCH  27  28
ENDBRANCH   1  27
BRANCH   3  30
HETATM   30  O   UNK N   1      32.661  11.877   6.230  0.00  0.00    -0.391 OA
HETATM   31  H   UNK N   1      31.953  11.228   6.086  0.00  0.00     0.210 HD
ENDBRANCH   3  30
BRANCH   2  32
HETATM   32  N   UNK N   1      35.687  12.865   6.241  0.00  0.00    -0.363 N 
HETATM   33  C   UNK N   1      36.382  11.791   6.419  0.00  0.00     0.107 C 
HETATM   34  C   UNK N   1      37.572  11.534   5.561  0.00  0.00     0.097 C 
ATOM     35  HN  UNK N   1      35.982  13.514   5.511  1.00  0.00     0.162 HD
BRANCH  33  36
HETATM   36  O   UNK N   1      36.034  10.881   7.352  0.00  0.00    -0.350 OA
HETATM   37  H   UNK N   1      36.334  10.011   7.527  0.00  0.00     0.219 HD
ENDBRANCH  33  36
ENDBRANCH   2  32
BRANCH   5  38
HETATM   38  O   UNK N   1      35.793  14.687   8.553  0.00  0.00    -0.348 OA
BRANCH  38  39
HETATM   39  C   UNK N   1      35.584  14.393   9.951  0.00  0.00     0.186 C 
HETATM   40  C   UNK N   1      36.007  15.499  10.963  0.00  0.00     0.179 C 
HETATM   41  O   UNK N   1      35.420  15.244  12.243  0.00  0.00    -0.349 OA
HETATM   42  C   UNK N   1      35.328  13.867  12.609  0.00  0.00     0.282 C 
HETATM   43  C   UNK N   1      36.460  13.038  11.946  0.00  0.00     0.169 C 
HETATM   44  C   UNK N   1      36.292  13.081  10.389  0.00  0.00     0.177 C 
BRANCH  40  45
HETATM   45  C   UNK N   1      35.605  16.894  10.564  0.00  0.00     0.198 C 
BRANCH  45  46
HETATM   46  O   UNK N   1      34.259  16.938  10.198  0.00  0.00    -0.398 OA
HETATM   47  H   UNK N   1      33.686  17.615   9.804  0.00  0.00     0.209 HD
ENDBRANCH  45  46
ENDBRANCH  40  45
BRANCH  42  48
HETATM   48  O   UNK N   1      35.396  13.796  13.998  0.00  0.00    -0.369 OA
HETATM   49  H   UNK N   1      34.976  14.482  14.541  0.00  0.00     0.212 HD
ENDBRANCH  42  48
BRANCH  43  50
HETATM   50  N   UNK N   1      36.544  11.672  12.437  0.00  0.00    -0.363 N 
HETATM   51  C   UNK N   1      37.270  11.324  13.450  0.00  0.00     0.107 C 
HETATM   52  C   UNK N   1      37.279   9.905  13.894  0.00  0.00     0.097 C 
ATOM     53  HN  UNK N   1      36.003  10.952  11.960  1.00  0.00     0.162 HD
BRANCH  51  54
HETATM   54  O   UNK N   1      38.045  12.220  14.098  0.00  0.00    -0.350 OA
HETATM   55  H   UNK N   1      38.541  12.292  14.889  0.00  0.00     0.219 HD
ENDBRANCH  51  54
ENDBRANCH  43  50
BRANCH  44  56
HETATM   56  O   UNK N   1      35.545  11.993   9.925  0.00  0.00    -0.391 OA
HETATM   57  H   UNK N   1      34.868  11.562   9.381  0.00  0.00     0.210 HD
ENDBRANCH  44  56
ENDBRANCH  38  39
ENDBRANCH   5  38
TORSDOF 21
ENDMDL
