MODEL 1
REMARK VINA RESULT:      -7.4      0.000      0.000
REMARK  6 active torsions:
REMARK  status: ('A' for Active; 'I' for Inactive)
REMARK    1  A    between atoms: C_2  and  C_3 
REMARK    2  A    between atoms: C_4  and  C_5 
REMARK    3  A    between atoms: C_5  and  C_7 
REMARK    4  A    between atoms: C_11  and  O_12 
REMARK    5  A    between atoms: C_20  and  S_23 
REMARK    6  A    between atoms: S_23  and  N_26 
ROOT
HETATM    1  C   UNK N   1      35.462  14.865   6.957  0.00  0.00     0.068 A 
HETATM    2  C   UNK N   1      34.778  15.910   7.628  0.00  0.00     0.058 A 
HETATM    3  C   UNK N   1      34.902  15.575   8.969  0.00  0.00     0.015 A 
HETATM    4  C   UNK N   1      35.626  14.416   9.045  0.00  0.00     0.088 A 
HETATM    5  O   UNK N   1      35.947  14.011   7.843  0.00  0.00    -0.313 OA
HETATM    6  C   UNK N   1      35.944  13.810  10.262  0.00  0.00     0.062 A 
HETATM    7  C   UNK N   1      35.485  14.434  11.441  0.00  0.00     0.077 A 
HETATM    8  C   UNK N   1      34.730  15.625  11.361  0.00  0.00     0.026 A 
HETATM    9  C   UNK N   1      34.429  16.205  10.120  0.00  0.00     0.017 A 
ENDROOT
BRANCH   2  10
HETATM   10  C   UNK N   1      34.013  17.130   7.154  0.00  0.00     0.195 C 
HETATM   11  O   UNK N   1      34.673  18.122   6.870  0.00  0.00    -0.287 OA
BRANCH  10  12
HETATM   12  C   UNK N   1      32.527  17.263   7.039  0.00  0.00     0.018 A 
HETATM   13  C   UNK N   1      31.793  17.682   8.163  0.00  0.00     0.037 A 
HETATM   14  C   UNK N   1      30.398  17.772   8.120  0.00  0.00     0.046 A 
HETATM   15 Br   UNK N   1      29.445  18.300   9.690  0.00  0.00    -0.048 Br
HETATM   16  C   UNK N   1      29.715  17.458   6.938  0.00  0.00     0.100 A 
HETATM   17  C   UNK N   1      30.439  17.065   5.806  0.00  0.00     0.046 A 
HETATM   18 Br   UNK N   1      29.553  16.635   4.168  0.00  0.00    -0.048 Br
HETATM   19  C   UNK N   1      31.830  16.970   5.868  0.00  0.00     0.037 A 
BRANCH  16  20
HETATM   20  O   UNK N   1      28.373  17.531   6.891  0.00  0.00    -0.358 OA
HETATM   21  H   UNK N   1      27.928  18.257   7.281  0.00  0.00     0.217 HD
ENDBRANCH  16  20
ENDBRANCH  10  12
ENDBRANCH   2  10
BRANCH   1  22
HETATM   22  C   UNK N   1      35.639  14.657   5.488  0.00  0.00     0.061 C 
HETATM   23  C   UNK N   1      34.496  13.874   4.869  0.00  0.00     0.012 C 
ENDBRANCH   1  22
BRANCH   7  24
HETATM   24  S   UNK N   1      35.926  13.818  13.068  0.00  0.00     0.243 S 
HETATM   25  O   UNK N   1      36.644  14.863  13.938  0.00  0.00    -0.206 OA
HETATM   26  O   UNK N   1      37.042  12.781  12.877  0.00  0.00    -0.206 OA
BRANCH  24  27
HETATM   27  N   UNK N   1      34.768  12.972  14.117  0.00  0.00    -0.215 NA
HETATM   28  C   UNK N   1      35.368  12.796  15.426  0.00  0.00     0.129 C 
HETATM   29  C   UNK N   1      34.543  11.642  13.569  0.00  0.00     0.129 C 
ENDBRANCH  24  27
ENDBRANCH   7  24
TORSDOF 6
ENDMDL
MODEL 2
REMARK VINA RESULT:      -7.3      0.236      1.805
REMARK  6 active torsions:
REMARK  status: ('A' for Active; 'I' for Inactive)
REMARK    1  A    between atoms: C_2  and  C_3 
REMARK    2  A    between atoms: C_4  and  C_5 
REMARK    3  A    between atoms: C_5  and  C_7 
REMARK    4  A    between atoms: C_11  and  O_12 
REMARK    5  A    between atoms: C_20  and  S_23 
REMARK    6  A    between atoms: S_23  and  N_26 
ROOT
HETATM    1  C   UNK N   1      35.365  14.792   6.772  0.00  0.00     0.068 A 
HETATM    2  C   UNK N   1      34.665  15.836   7.429  0.00  0.00     0.058 A 
HETATM    3  C   UNK N   1      34.798  15.524   8.775  0.00  0.00     0.015 A 
HETATM    4  C   UNK N   1      35.539  14.377   8.866  0.00  0.00     0.088 A 
HETATM    5  O   UNK N   1      35.863  13.958   7.670  0.00  0.00    -0.313 OA
HETATM    6  C   UNK N   1      35.868  13.794  10.092  0.00  0.00     0.062 A 
HETATM    7  C   UNK N   1      35.402  14.428  11.262  0.00  0.00     0.077 A 
HETATM    8  C   UNK N   1      34.629  15.607  11.166  0.00  0.00     0.026 A 
HETATM    9  C   UNK N   1      34.317  16.163   9.917  0.00  0.00     0.017 A 
ENDROOT
BRANCH   2  10
HETATM   10  C   UNK N   1      33.882  17.037   6.938  0.00  0.00     0.195 C 
HETATM   11  O   UNK N   1      34.529  17.996   6.538  0.00  0.00    -0.287 OA
BRANCH  10  12
HETATM   12  C   UNK N   1      32.393  17.190   6.933  0.00  0.00     0.018 A 
HETATM   13  C   UNK N   1      31.691  16.975   5.733  0.00  0.00     0.037 A 
HETATM   14  C   UNK N   1      30.306  17.155   5.666  0.00  0.00     0.046 A 
HETATM   15 Br   UNK N   1      29.407  16.896   3.999  0.00  0.00    -0.048 Br
HETATM   16  C   UNK N   1      29.597  17.541   6.810  0.00  0.00     0.100 A 
HETATM   17  C   UNK N   1      30.283  17.732   8.016  0.00  0.00     0.046 A 
HETATM   18 Br   UNK N   1      29.358  18.251   9.606  0.00  0.00    -0.048 Br
HETATM   19  C   UNK N   1      31.666  17.558   8.064  0.00  0.00     0.037 A 
BRANCH  16  20
HETATM   20  O   UNK N   1      28.266  17.728   6.753  0.00  0.00    -0.358 OA
HETATM   21  H   UNK N   1      27.863  18.392   7.276  0.00  0.00     0.217 HD
ENDBRANCH  16  20
ENDBRANCH  10  12
ENDBRANCH   2  10
BRANCH   1  22
HETATM   22  C   UNK N   1      35.541  14.565   5.306  0.00  0.00     0.061 C 
HETATM   23  C   UNK N   1      34.239  14.213   4.610  0.00  0.00     0.012 C 
ENDBRANCH   1  22
BRANCH   7  24
HETATM   24  S   UNK N   1      35.855  13.844  12.897  0.00  0.00     0.243 S 
HETATM   25  O   UNK N   1      36.540  14.919  13.758  0.00  0.00    -0.206 OA
HETATM   26  O   UNK N   1      37.002  12.837  12.721  0.00  0.00    -0.206 OA
BRANCH  24  27
HETATM   27  N   UNK N   1      34.719  12.977  13.952  0.00  0.00    -0.215 NA
HETATM   28  C   UNK N   1      35.265  12.941  15.296  0.00  0.00     0.129 C 
HETATM   29  C   UNK N   1      34.630  11.598  13.492  0.00  0.00     0.129 C 
ENDBRANCH  24  27
ENDBRANCH   7  24
TORSDOF 6
ENDMDL
MODEL 3
REMARK VINA RESULT:      -7.0      6.152      9.715
REMARK  6 active torsions:
REMARK  status: ('A' for Active; 'I' for Inactive)
REMARK    1  A    between atoms: C_2  and  C_3 
REMARK    2  A    between atoms: C_4  and  C_5 
REMARK    3  A    between atoms: C_5  and  C_7 
REMARK    4  A    between atoms: C_11  and  O_12 
REMARK    5  A    between atoms: C_20  and  S_23 
REMARK    6  A    between atoms: S_23  and  N_26 
ROOT
HETATM    1  C   UNK N   1      27.271  20.387   5.840  0.00  0.00     0.068 A 
HETATM    2  C   UNK N   1      26.798  19.747   4.667  0.00  0.00     0.058 A 
HETATM    3  C   UNK N   1      27.581  18.604   4.578  0.00  0.00     0.015 A 
HETATM    4  C   UNK N   1      28.436  18.600   5.647  0.00  0.00     0.088 A 
HETATM    5  O   UNK N   1      28.238  19.664   6.381  0.00  0.00    -0.313 OA
HETATM    6  C   UNK N   1      29.357  17.573   5.865  0.00  0.00     0.062 A 
HETATM    7  C   UNK N   1      29.391  16.517   4.930  0.00  0.00     0.077 A 
HETATM    8  C   UNK N   1      28.515  16.528   3.821  0.00  0.00     0.026 A 
HETATM    9  C   UNK N   1      27.603  17.577   3.635  0.00  0.00     0.017 A 
ENDROOT
BRANCH   2  10
HETATM   10  C   UNK N   1      25.746  20.103   3.636  0.00  0.00     0.195 C 
HETATM   11  O   UNK N   1      26.106  20.795   2.692  0.00  0.00    -0.287 OA
BRANCH  10  12
HETATM   12  C   UNK N   1      24.297  19.733   3.674  0.00  0.00     0.018 A 
HETATM   13  C   UNK N   1      23.874  18.732   4.568  0.00  0.00     0.037 A 
HETATM   14  C   UNK N   1      22.540  18.316   4.605  0.00  0.00     0.046 A 
HETATM   15 Br   UNK N   1      22.027  16.918   5.804  0.00  0.00    -0.048 Br
HETATM   16  C   UNK N   1      21.599  18.910   3.754  0.00  0.00     0.100 A 
HETATM   17  C   UNK N   1      22.005  19.926   2.880  0.00  0.00     0.046 A 
HETATM   18 Br   UNK N   1      20.758  20.773   1.705  0.00  0.00    -0.048 Br
HETATM   19  C   UNK N   1      23.342  20.323   2.847  0.00  0.00     0.037 A 
BRANCH  16  20
HETATM   20  O   UNK N   1      20.316  18.508   3.774  0.00  0.00    -0.358 OA
HETATM   21  H   UNK N   1      19.641  19.107   4.026  0.00  0.00     0.217 HD
ENDBRANCH  16  20
ENDBRANCH  10  12
ENDBRANCH   2  10
BRANCH   1  22
HETATM   22  C   UNK N   1      26.835  21.686   6.435  0.00  0.00     0.061 C 
HETATM   23  C   UNK N   1      25.980  21.501   7.675  0.00  0.00     0.012 C 
ENDBRANCH   1  22
BRANCH   7  24
HETATM   24  S   UNK N   1      30.447  15.086   5.160  0.00  0.00     0.243 S 
HETATM   25  O   UNK N   1      29.663  13.773   5.321  0.00  0.00    -0.206 OA
HETATM   26  O   UNK N   1      31.092  15.213   6.548  0.00  0.00    -0.206 OA
BRANCH  24  27
HETATM   27  N   UNK N   1      31.834  14.739   4.104  0.00  0.00    -0.215 NA
HETATM   28  C   UNK N   1      32.938  14.274   4.922  0.00  0.00     0.129 C 
HETATM   29  C   UNK N   1      32.259  15.988   3.486  0.00  0.00     0.129 C 
ENDBRANCH  24  27
ENDBRANCH   7  24
TORSDOF 6
ENDMDL
MODEL 4
REMARK VINA RESULT:      -6.8      7.229     11.663
REMARK  6 active torsions:
REMARK  status: ('A' for Active; 'I' for Inactive)
REMARK    1  A    between atoms: C_2  and  C_3 
REMARK    2  A    between atoms: C_4  and  C_5 
REMARK    3  A    between atoms: C_5  and  C_7 
REMARK    4  A    between atoms: C_11  and  O_12 
REMARK    5  A    between atoms: C_20  and  S_23 
REMARK    6  A    between atoms: S_23  and  N_26 
ROOT
HETATM    1  C   UNK N   1      24.559  18.648   4.456  0.00  0.00     0.068 A 
HETATM    2  C   UNK N   1      25.187  17.396   4.676  0.00  0.00     0.058 A 
HETATM    3  C   UNK N   1      24.189  16.628   5.261  0.00  0.00     0.015 A 
HETATM    4  C   UNK N   1      23.065  17.403   5.353  0.00  0.00     0.088 A 
HETATM    5  O   UNK N   1      23.305  18.595   4.873  0.00  0.00    -0.313 OA
HETATM    6  C   UNK N   1      21.868  16.924   5.888  0.00  0.00     0.062 A 
HETATM    7  C   UNK N   1      21.845  15.591   6.349  0.00  0.00     0.077 A 
HETATM    8  C   UNK N   1      23.010  14.795   6.263  0.00  0.00     0.026 A 
HETATM    9  C   UNK N   1      24.195  15.311   5.720  0.00  0.00     0.017 A 
ENDROOT
BRANCH   2  10
HETATM   10  C   UNK N   1      26.589  16.874   4.434  0.00  0.00     0.195 C 
HETATM   11  O   UNK N   1      26.758  16.177   3.441  0.00  0.00    -0.287 OA
BRANCH  10  12
HETATM   12  C   UNK N   1      27.784  17.087   5.309  0.00  0.00     0.018 A 
HETATM   13  C   UNK N   1      29.061  17.130   4.719  0.00  0.00     0.037 A 
HETATM   14  C   UNK N   1      30.211  17.275   5.500  0.00  0.00     0.046 A 
HETATM   15 Br   UNK N   1      31.924  17.279   4.653  0.00  0.00    -0.048 Br
HETATM   16  C   UNK N   1      30.098  17.396   6.891  0.00  0.00     0.100 A 
HETATM   17  C   UNK N   1      28.831  17.382   7.485  0.00  0.00     0.046 A 
HETATM   18 Br   UNK N   1      28.626  17.552   9.378  0.00  0.00    -0.048 Br
HETATM   19  C   UNK N   1      27.693  17.225   6.693  0.00  0.00     0.037 A 
BRANCH  16  20
HETATM   20  O   UNK N   1      31.200  17.525   7.652  0.00  0.00    -0.358 OA
HETATM   21  H   UNK N   1      31.915  18.054   7.358  0.00  0.00     0.217 HD
ENDBRANCH  16  20
ENDBRANCH  10  12
ENDBRANCH   2  10
BRANCH   1  22
HETATM   22  C   UNK N   1      25.144  19.897   3.881  0.00  0.00     0.061 C 
HETATM   23  C   UNK N   1      24.228  20.556   2.867  0.00  0.00     0.012 C 
ENDBRANCH   1  22
BRANCH   7  24
HETATM   24  S   UNK N   1      20.339  14.825   6.950  0.00  0.00     0.243 S 
HETATM   25  O   UNK N   1      20.261  13.319   6.648  0.00  0.00    -0.206 OA
HETATM   26  O   UNK N   1      19.182  15.354   6.089  0.00  0.00    -0.206 OA
BRANCH  24  27
HETATM   27  N   UNK N   1      19.743  15.055   8.608  0.00  0.00    -0.215 NA
HETATM   28  C   UNK N   1      19.625  16.478   8.867  0.00  0.00     0.129 C 
HETATM   29  C   UNK N   1      20.746  14.537   9.529  0.00  0.00     0.129 C 
ENDBRANCH  24  27
ENDBRANCH   7  24
TORSDOF 6
ENDMDL
MODEL 5
REMARK VINA RESULT:      -6.8      2.985      4.036
REMARK  6 active torsions:
REMARK  status: ('A' for Active; 'I' for Inactive)
REMARK    1  A    between atoms: C_2  and  C_3 
REMARK    2  A    between atoms: C_4  and  C_5 
REMARK    3  A    between atoms: C_5  and  C_7 
REMARK    4  A    between atoms: C_11  and  O_12 
REMARK    5  A    between atoms: C_20  and  S_23 
REMARK    6  A    between atoms: S_23  and  N_26 
ROOT
HETATM    1  C   UNK N   1      30.956  14.536   5.737  0.00  0.00     0.068 A 
HETATM    2  C   UNK N   1      31.064  15.948   5.819  0.00  0.00     0.058 A 
HETATM    3  C   UNK N   1      31.927  16.149   6.888  0.00  0.00     0.015 A 
HETATM    4  C   UNK N   1      32.290  14.920   7.368  0.00  0.00     0.088 A 
HETATM    5  O   UNK N   1      31.704  13.978   6.675  0.00  0.00    -0.313 OA
HETATM    6  C   UNK N   1      33.168  14.766   8.443  0.00  0.00     0.062 A 
HETATM    7  C   UNK N   1      33.680  15.937   9.041  0.00  0.00     0.077 A 
HETATM    8  C   UNK N   1      33.296  17.205   8.551  0.00  0.00     0.026 A 
HETATM    9  C   UNK N   1      32.410  17.320   7.469  0.00  0.00     0.017 A 
ENDROOT
BRANCH   2  10
HETATM   10  C   UNK N   1      30.433  17.089   5.047  0.00  0.00     0.195 C 
HETATM   11  O   UNK N   1      31.178  17.766   4.350  0.00  0.00    -0.287 OA
BRANCH  10  12
HETATM   12  C   UNK N   1      28.996  17.505   5.084  0.00  0.00     0.018 A 
HETATM   13  C   UNK N   1      28.676  18.813   5.491  0.00  0.00     0.037 A 
HETATM   14  C   UNK N   1      27.346  19.232   5.589  0.00  0.00     0.046 A 
HETATM   15 Br   UNK N   1      26.965  21.005   6.194  0.00  0.00    -0.048 Br
HETATM   16  C   UNK N   1      26.310  18.347   5.265  0.00  0.00     0.100 A 
HETATM   17  C   UNK N   1      26.619  17.051   4.833  0.00  0.00     0.046 A 
HETATM   18 Br   UNK N   1      25.241  15.811   4.371  0.00  0.00    -0.048 Br
HETATM   19  C   UNK N   1      27.951  16.645   4.750  0.00  0.00     0.037 A 
BRANCH  16  20
HETATM   20  O   UNK N   1      25.027  18.737   5.368  0.00  0.00    -0.358 OA
HETATM   21  H   UNK N   1      24.788  19.622   5.172  0.00  0.00     0.217 HD
ENDBRANCH  16  20
ENDBRANCH  10  12
ENDBRANCH   2  10
BRANCH   1  22
HETATM   22  C   UNK N   1      30.133  13.716   4.798  0.00  0.00     0.061 C 
HETATM   23  C   UNK N   1      30.597  13.837   3.358  0.00  0.00     0.012 C 
ENDBRANCH   1  22
BRANCH   7  24
HETATM   24  S   UNK N   1      34.903  15.870  10.352  0.00  0.00     0.243 S 
HETATM   25  O   UNK N   1      35.268  17.255  10.913  0.00  0.00    -0.206 OA
HETATM   26  O   UNK N   1      36.236  15.455   9.712  0.00  0.00    -0.206 OA
BRANCH  24  27
HETATM   27  N   UNK N   1      34.763  14.767  11.737  0.00  0.00    -0.215 NA
HETATM   28  C   UNK N   1      35.859  15.025  12.651  0.00  0.00     0.129 C 
HETATM   29  C   UNK N   1      34.925  13.403  11.252  0.00  0.00     0.129 C 
ENDBRANCH  24  27
ENDBRANCH   7  24
TORSDOF 6
ENDMDL
MODEL 6
REMARK VINA RESULT:      -6.7      7.080     11.748
REMARK  6 active torsions:
REMARK  status: ('A' for Active; 'I' for Inactive)
REMARK    1  A    between atoms: C_2  and  C_3 
REMARK    2  A    between atoms: C_4  and  C_5 
REMARK    3  A    between atoms: C_5  and  C_7 
REMARK    4  A    between atoms: C_11  and  O_12 
REMARK    5  A    between atoms: C_20  and  S_23 
REMARK    6  A    between atoms: S_23  and  N_26 
ROOT
HETATM    1  C   UNK N   1      26.564  19.726   5.002  0.00  0.00     0.068 A 
HETATM    2  C   UNK N   1      26.944  18.420   4.601  0.00  0.00     0.058 A 
HETATM    3  C   UNK N   1      25.737  17.807   4.293  0.00  0.00     0.015 A 
HETATM    4  C   UNK N   1      24.740  18.721   4.499  0.00  0.00     0.088 A 
HETATM    5  O   UNK N   1      25.249  19.850   4.920  0.00  0.00    -0.313 OA
HETATM    6  C   UNK N   1      23.395  18.426   4.268  0.00  0.00     0.062 A 
HETATM    7  C   UNK N   1      23.080  17.129   3.813  0.00  0.00     0.077 A 
HETATM    8  C   UNK N   1      24.110  16.183   3.610  0.00  0.00     0.026 A 
HETATM    9  C   UNK N   1      25.450  16.515   3.853  0.00  0.00     0.017 A 
ENDROOT
BRANCH   2  10
HETATM   10  C   UNK N   1      28.276  17.702   4.514  0.00  0.00     0.195 C 
HETATM   11  O   UNK N   1      28.559  17.188   3.439  0.00  0.00    -0.287 OA
BRANCH  10  12
HETATM   12  C   UNK N   1      29.264  17.516   5.622  0.00  0.00     0.018 A 
HETATM   13  C   UNK N   1      28.810  17.565   6.953  0.00  0.00     0.037 A 
HETATM   14  C   UNK N   1      29.703  17.448   8.023  0.00  0.00     0.046 A 
HETATM   15 Br   UNK N   1      29.042  17.569   9.812  0.00  0.00    -0.048 Br
HETATM   16  C   UNK N   1      31.069  17.264   7.775  0.00  0.00     0.100 A 
HETATM   17  C   UNK N   1      31.526  17.187   6.453  0.00  0.00     0.046 A 
HETATM   18 Br   UNK N   1      33.380  16.928   6.064  0.00  0.00    -0.048 Br
HETATM   19  C   UNK N   1      30.625  17.316   5.397  0.00  0.00     0.037 A 
BRANCH  16  20
HETATM   20  O   UNK N   1      31.937  17.162   8.797  0.00  0.00    -0.358 OA
HETATM   21  H   UNK N   1      32.842  17.366   8.667  0.00  0.00     0.217 HD
ENDBRANCH  16  20
ENDBRANCH  10  12
ENDBRANCH   2  10
BRANCH   1  22
HETATM   22  C   UNK N   1      27.430  20.844   5.485  0.00  0.00     0.061 C 
HETATM   23  C   UNK N   1      26.751  21.690   6.545  0.00  0.00     0.012 C 
ENDBRANCH   1  22
BRANCH   7  24
HETATM   24  S   UNK N   1      21.404  16.665   3.370  0.00  0.00     0.243 S 
HETATM   25  O   UNK N   1      20.668  17.747   2.562  0.00  0.00    -0.206 OA
HETATM   26  O   UNK N   1      20.577  16.653   4.664  0.00  0.00    -0.206 OA
BRANCH  24  27
HETATM   27  N   UNK N   1      21.009  15.100   2.627  0.00  0.00    -0.215 NA
HETATM   28  C   UNK N   1      20.959  15.267   1.187  0.00  0.00     0.129 C 
HETATM   29  C   UNK N   1      19.672  14.715   3.058  0.00  0.00     0.129 C 
ENDBRANCH  24  27
ENDBRANCH   7  24
TORSDOF 6
ENDMDL
MODEL 7
REMARK VINA RESULT:      -6.6      2.382      3.580
REMARK  6 active torsions:
REMARK  status: ('A' for Active; 'I' for Inactive)
REMARK    1  A    between atoms: C_2  and  C_3 
REMARK    2  A    between atoms: C_4  and  C_5 
REMARK    3  A    between atoms: C_5  and  C_7 
REMARK    4  A    between atoms: C_11  and  O_12 
REMARK    5  A    between atoms: C_20  and  S_23 
REMARK    6  A    between atoms: S_23  and  N_26 
ROOT
HETATM    1  C   UNK N   1      34.747  16.906   8.826  0.00  0.00     0.068 A 
HETATM    2  C   UNK N   1      35.165  15.613   8.421  0.00  0.00     0.058 A 
HETATM    3  C   UNK N   1      35.460  14.975   9.618  0.00  0.00     0.015 A 
HETATM    4  C   UNK N   1      35.211  15.856  10.635  0.00  0.00     0.088 A 
HETATM    5  O   UNK N   1      34.791  16.994  10.146  0.00  0.00    -0.313 OA
HETATM    6  C   UNK N   1      35.394  15.521  11.978  0.00  0.00     0.062 A 
HETATM    7  C   UNK N   1      35.860  14.222  12.269  0.00  0.00     0.077 A 
HETATM    8  C   UNK N   1      36.126  13.316  11.217  0.00  0.00     0.026 A 
HETATM    9  C   UNK N   1      35.931  13.688   9.879  0.00  0.00     0.017 A 
ENDROOT
BRANCH   2  10
HETATM   10  C   UNK N   1      35.343  14.950   7.070  0.00  0.00     0.195 C 
HETATM   11  O   UNK N   1      36.481  14.626   6.758  0.00  0.00    -0.287 OA
BRANCH  10  12
HETATM   12  C   UNK N   1      34.274  14.689   6.056  0.00  0.00     0.018 A 
HETATM   13  C   UNK N   1      33.865  15.740   5.213  0.00  0.00     0.037 A 
HETATM   14  C   UNK N   1      32.836  15.559   4.285  0.00  0.00     0.046 A 
HETATM   15 Br   UNK N   1      32.286  17.032   3.198  0.00  0.00    -0.048 Br
HETATM   16  C   UNK N   1      32.207  14.312   4.174  0.00  0.00     0.100 A 
HETATM   17  C   UNK N   1      32.625  13.254   4.989  0.00  0.00     0.046 A 
HETATM   18 Br   UNK N   1      31.804  11.532   4.869  0.00  0.00    -0.048 Br
HETATM   19  C   UNK N   1      33.647  13.453   5.918  0.00  0.00     0.037 A 
BRANCH  16  20
HETATM   20  O   UNK N   1      31.208  14.133   3.292  0.00  0.00    -0.358 OA
HETATM   21  H   UNK N   1      30.663  14.854   3.047  0.00  0.00     0.217 HD
ENDBRANCH  16  20
ENDBRANCH  10  12
ENDBRANCH   2  10
BRANCH   1  22
HETATM   22  C   UNK N   1      34.334  18.063   7.975  0.00  0.00     0.061 C 
HETATM   23  C   UNK N   1      32.828  18.168   7.826  0.00  0.00     0.012 C 
ENDBRANCH   1  22
BRANCH   7  24
HETATM   24  S   UNK N   1      36.025  13.634  13.955  0.00  0.00     0.243 S 
HETATM   25  O   UNK N   1      36.836  14.584  14.853  0.00  0.00    -0.206 OA
HETATM   26  O   UNK N   1      36.947  12.406  13.923  0.00  0.00    -0.206 OA
BRANCH  24  27
HETATM   27  N   UNK N   1      34.638  13.069  14.912  0.00  0.00    -0.215 NA
HETATM   28  C   UNK N   1      35.020  13.034  16.311  0.00  0.00     0.129 C 
HETATM   29  C   UNK N   1      34.340  11.699  14.518  0.00  0.00     0.129 C 
ENDBRANCH  24  27
ENDBRANCH   7  24
TORSDOF 6
ENDMDL
MODEL 8
REMARK VINA RESULT:      -6.6      6.791     12.110
REMARK  6 active torsions:
REMARK  status: ('A' for Active; 'I' for Inactive)
REMARK    1  A    between atoms: C_2  and  C_3 
REMARK    2  A    between atoms: C_4  and  C_5 
REMARK    3  A    between atoms: C_5  and  C_7 
REMARK    4  A    between atoms: C_11  and  O_12 
REMARK    5  A    between atoms: C_20  and  S_23 
REMARK    6  A    between atoms: S_23  and  N_26 
ROOT
HETATM    1  C   UNK N   1      36.594   9.563  17.694  0.00  0.00     0.068 A 
HETATM    2  C   UNK N   1      35.813  10.645  18.174  0.00  0.00     0.058 A 
HETATM    3  C   UNK N   1      35.774  11.522  17.099  0.00  0.00     0.015 A 
HETATM    4  C   UNK N   1      36.482  10.958  16.073  0.00  0.00     0.088 A 
HETATM    5  O   UNK N   1      36.961   9.799  16.445  0.00  0.00    -0.313 OA
HETATM    6  C   UNK N   1      36.628  11.581  14.832  0.00  0.00     0.062 A 
HETATM    7  C   UNK N   1      36.018  12.842  14.659  0.00  0.00     0.077 A 
HETATM    8  C   UNK N   1      35.296  13.428  15.722  0.00  0.00     0.026 A 
HETATM    9  C   UNK N   1      35.171  12.772  16.956  0.00  0.00     0.017 A 
ENDROOT
BRANCH   2  10
HETATM   10  C   UNK N   1      35.153  10.946  19.504  0.00  0.00     0.195 C 
HETATM   11  O   UNK N   1      35.486  11.982  20.067  0.00  0.00    -0.287 OA
BRANCH  10  12
HETATM   12  C   UNK N   1      34.166  10.085  20.226  0.00  0.00     0.018 A 
HETATM   13  C   UNK N   1      33.801  10.424  21.542  0.00  0.00     0.037 A 
HETATM   14  C   UNK N   1      32.921   9.622  22.276  0.00  0.00     0.046 A 
HETATM   15 Br   UNK N   1      32.497  10.101  24.077  0.00  0.00    -0.048 Br
HETATM   16  C   UNK N   1      32.378   8.469  21.693  0.00  0.00     0.100 A 
HETATM   17  C   UNK N   1      32.713   8.138  20.375  0.00  0.00     0.046 A 
HETATM   18 Br   UNK N   1      31.991   6.582  19.534  0.00  0.00    -0.048 Br
HETATM   19  C   UNK N   1      33.601   8.943  19.660  0.00  0.00     0.037 A 
BRANCH  16  20
HETATM   20  O   UNK N   1      31.539   7.685  22.395  0.00  0.00    -0.358 OA
HETATM   21  H   UNK N   1      30.909   8.070  22.971  0.00  0.00     0.217 HD
ENDBRANCH  16  20
ENDBRANCH  10  12
ENDBRANCH   2  10
BRANCH   1  22
HETATM   22  C   UNK N   1      37.015   8.324  18.416  0.00  0.00     0.061 C 
HETATM   23  C   UNK N   1      36.249   7.096  17.961  0.00  0.00     0.012 C 
ENDBRANCH   1  22
BRANCH   7  24
HETATM   24  S   UNK N   1      36.036  13.690  13.078  0.00  0.00     0.243 S 
HETATM   25  O   UNK N   1      36.247  15.208  13.205  0.00  0.00    -0.206 OA
HETATM   26  O   UNK N   1      34.607  13.640  12.517  0.00  0.00    -0.206 OA
BRANCH  24  27
HETATM   27  N   UNK N   1      37.024  13.139  11.707  0.00  0.00    -0.215 NA
HETATM   28  C   UNK N   1      36.918  14.112  10.636  0.00  0.00     0.129 C 
HETATM   29  C   UNK N   1      36.457  11.893  11.208  0.00  0.00     0.129 C 
ENDBRANCH  24  27
ENDBRANCH   7  24
TORSDOF 6
ENDMDL
MODEL 9
REMARK VINA RESULT:      -6.6     15.417     18.606
REMARK  6 active torsions:
REMARK  status: ('A' for Active; 'I' for Inactive)
REMARK    1  A    between atoms: C_2  and  C_3 
REMARK    2  A    between atoms: C_4  and  C_5 
REMARK    3  A    between atoms: C_5  and  C_7 
REMARK    4  A    between atoms: C_11  and  O_12 
REMARK    5  A    between atoms: C_20  and  S_23 
REMARK    6  A    between atoms: S_23  and  N_26 
ROOT
HETATM    1  C   UNK N   1      26.687  23.039  -7.170  0.00  0.00     0.068 A 
HETATM    2  C   UNK N   1      26.906  24.103  -6.258  0.00  0.00     0.058 A 
HETATM    3  C   UNK N   1      28.052  23.718  -5.575  0.00  0.00     0.015 A 
HETATM    4  C   UNK N   1      28.458  22.515  -6.084  0.00  0.00     0.088 A 
HETATM    5  O   UNK N   1      27.636  22.129  -7.026  0.00  0.00    -0.313 OA
HETATM    6  C   UNK N   1      29.596  21.852  -5.622  0.00  0.00     0.062 A 
HETATM    7  C   UNK N   1      30.334  22.465  -4.587  0.00  0.00     0.077 A 
HETATM    8  C   UNK N   1      29.908  23.704  -4.056  0.00  0.00     0.026 A 
HETATM    9  C   UNK N   1      28.758  24.339  -4.545  0.00  0.00     0.017 A 
ENDROOT
BRANCH   2  10
HETATM   10  C   UNK N   1      26.155  25.382  -5.947  0.00  0.00     0.195 C 
HETATM   11  O   UNK N   1      24.965  25.276  -5.679  0.00  0.00    -0.287 OA
BRANCH  10  12
HETATM   12  C   UNK N   1      26.709  26.772  -5.978  0.00  0.00     0.018 A 
HETATM   13  C   UNK N   1      27.569  27.138  -7.030  0.00  0.00     0.037 A 
HETATM   14  C   UNK N   1      28.151  28.408  -7.075  0.00  0.00     0.046 A 
HETATM   15 Br   UNK N   1      29.351  28.839  -8.500  0.00  0.00    -0.048 Br
HETATM   16  C   UNK N   1      27.867  29.342  -6.070  0.00  0.00     0.100 A 
HETATM   17  C   UNK N   1      26.992  28.996  -5.034  0.00  0.00     0.046 A 
HETATM   18 Br   UNK N   1      26.567  30.238  -3.645  0.00  0.00    -0.048 Br
HETATM   19  C   UNK N   1      26.427  27.721  -4.997  0.00  0.00     0.037 A 
BRANCH  16  20
HETATM   20  O   UNK N   1      28.432  30.563  -6.099  0.00  0.00    -0.358 OA
HETATM   21  H   UNK N   1      28.802  30.927  -5.319  0.00  0.00     0.217 HD
ENDBRANCH  16  20
ENDBRANCH  10  12
ENDBRANCH   2  10
BRANCH   1  22
HETATM   22  C   UNK N   1      25.577  22.867  -8.155  0.00  0.00     0.061 C 
HETATM   23  C   UNK N   1      25.604  21.511  -8.833  0.00  0.00     0.012 C 
ENDBRANCH   1  22
BRANCH   7  24
HETATM   24  S   UNK N   1      31.876  21.772  -3.989  0.00  0.00     0.243 S 
HETATM   25  O   UNK N   1      31.937  20.240  -4.101  0.00  0.00    -0.206 OA
HETATM   26  O   UNK N   1      31.898  21.954  -2.464  0.00  0.00    -0.206 OA
BRANCH  24  27
HETATM   27  N   UNK N   1      33.463  22.395  -4.489  0.00  0.00    -0.215 NA
HETATM   28  C   UNK N   1      33.372  22.853  -5.863  0.00  0.00     0.129 C 
HETATM   29  C   UNK N   1      34.413  21.291  -4.471  0.00  0.00     0.129 C 
ENDBRANCH  24  27
ENDBRANCH   7  24
TORSDOF 6
ENDMDL
