MODEL 1
REMARK VINA RESULT:      -3.9      0.000      0.000
REMARK  10 active torsions:
REMARK  status: ('A' for Active; 'I' for Inactive)
REMARK    1  A    between atoms: N_1  and  C_2 
REMARK    2  A    between atoms: C_2  and  C_3 
REMARK    3  A    between atoms: C_2  and  C_6 
REMARK    4  A    between atoms: C_2  and  C_9 
REMARK    5  A    between atoms: C_3  and  C_4 
REMARK    6  A    between atoms: C_4  and  O_5 
REMARK    7  A    between atoms: C_6  and  C_7 
REMARK    8  A    between atoms: C_7  and  O_8 
REMARK    9  A    between atoms: C_9  and  C_10 
REMARK   10  A    between atoms: C_10  and  O_11 
ROOT
HETATM    1  C   UNK N   1      20.356  18.221   2.758  0.00  0.00     0.029 C 
ENDROOT
BRANCH   1   2
HETATM    2  N   UNK N   1      18.998  18.549   2.362  0.00  0.00    -0.421 N 
HETATM    3  H   UNK N   1      18.466  19.388   2.133  0.00  0.00     0.150 HD
HETATM    4  H   UNK N   1      18.419  17.712   2.294  0.00  0.00     0.150 HD
ENDBRANCH   1   2
BRANCH   1   5
HETATM    5  C   UNK N   1      20.376  17.899   4.265  0.00  0.00     0.056 C 
BRANCH   5   6
HETATM    6  C   UNK N   1      19.942  16.474   4.618  0.00  0.00     0.166 C 
BRANCH   6   7
HETATM    7  O   UNK N   1      18.555  16.339   4.581  0.00  0.00    -0.401 OA
HETATM    8  H   UNK N   1      17.929  16.708   5.224  0.00  0.00     0.209 HD
ENDBRANCH   6   7
ENDBRANCH   5   6
ENDBRANCH   1   5
BRANCH   1   9
HETATM    9  C   UNK N   1      20.763  16.984   1.945  0.00  0.00     0.056 C 
BRANCH   9  10
HETATM   10  C   UNK N   1      19.859  16.658   0.765  0.00  0.00     0.166 C 
BRANCH  10  11
HETATM   11  O   UNK N   1      20.227  17.443  -0.326  0.00  0.00    -0.401 OA
HETATM   12  H   UNK N   1      20.131  18.408  -0.289  0.00  0.00     0.209 HD
ENDBRANCH  10  11
ENDBRANCH   9  10
ENDBRANCH   1   9
BRANCH   1  13
HETATM   13  C   UNK N   1      21.249  19.427   2.416  0.00  0.00     0.056 C 
BRANCH  13  14
HETATM   14  C   UNK N   1      20.571  20.481   1.549  0.00  0.00     0.166 C 
BRANCH  14  15
HETATM   15  O   UNK N   1      20.706  20.138   0.205  0.00  0.00    -0.401 OA
HETATM   16  H   UNK N   1      20.877  19.255  -0.159  0.00  0.00     0.209 HD
ENDBRANCH  14  15
ENDBRANCH  13  14
ENDBRANCH   1  13
TORSDOF 10
ENDMDL
MODEL 2
REMARK VINA RESULT:      -3.8      1.273      4.032
REMARK  10 active torsions:
REMARK  status: ('A' for Active; 'I' for Inactive)
REMARK    1  A    between atoms: N_1  and  C_2 
REMARK    2  A    between atoms: C_2  and  C_3 
REMARK    3  A    between atoms: C_2  and  C_6 
REMARK    4  A    between atoms: C_2  and  C_9 
REMARK    5  A    between atoms: C_3  and  C_4 
REMARK    6  A    between atoms: C_4  and  O_5 
REMARK    7  A    between atoms: C_6  and  C_7 
REMARK    8  A    between atoms: C_7  and  O_8 
REMARK    9  A    between atoms: C_9  and  C_10 
REMARK   10  A    between atoms: C_10  and  O_11 
ROOT
HETATM    1  C   UNK N   1      20.315  18.212   2.718  0.00  0.00     0.029 C 
ENDROOT
BRANCH   1   2
HETATM    2  N   UNK N   1      18.957  18.593   2.368  0.00  0.00    -0.421 N 
HETATM    3  H   UNK N   1      18.396  19.444   2.363  0.00  0.00     0.150 HD
HETATM    4  H   UNK N   1      18.420  17.791   2.038  0.00  0.00     0.150 HD
ENDBRANCH   1   2
BRANCH   1   5
HETATM    5  C   UNK N   1      21.267  19.375   2.374  0.00  0.00     0.056 C 
BRANCH   5   6
HETATM    6  C   UNK N   1      20.635  20.489   1.534  0.00  0.00     0.166 C 
BRANCH   6   7
HETATM    7  O   UNK N   1      20.671  20.184   0.174  0.00  0.00    -0.401 OA
HETATM    8  H   UNK N   1      21.419  19.790  -0.303  0.00  0.00     0.209 HD
ENDBRANCH   6   7
ENDBRANCH   5   6
ENDBRANCH   1   5
BRANCH   1   9
HETATM    9  C   UNK N   1      20.319  17.951   4.231  0.00  0.00     0.056 C 
BRANCH   9  10
HETATM   10  C   UNK N   1      21.442  18.627   5.003  0.00  0.00     0.166 C 
BRANCH  10  11
HETATM   11  O   UNK N   1      21.055  18.786   6.332  0.00  0.00    -0.401 OA
HETATM   12  H   UNK N   1      20.942  19.674   6.706  0.00  0.00     0.209 HD
ENDBRANCH  10  11
ENDBRANCH   9  10
ENDBRANCH   1   9
BRANCH   1  13
HETATM   13  C   UNK N   1      20.660  16.934   1.934  0.00  0.00     0.056 C 
BRANCH  13  14
HETATM   14  C   UNK N   1      19.794  16.703   0.702  0.00  0.00     0.166 C 
BRANCH  14  15
HETATM   15  O   UNK N   1      20.265  17.481  -0.354  0.00  0.00    -0.401 OA
HETATM   16  H   UNK N   1      21.164  17.490  -0.718  0.00  0.00     0.209 HD
ENDBRANCH  14  15
ENDBRANCH  13  14
ENDBRANCH   1  13
TORSDOF 10
ENDMDL
MODEL 3
REMARK VINA RESULT:      -3.8      1.267      3.593
REMARK  10 active torsions:
REMARK  status: ('A' for Active; 'I' for Inactive)
REMARK    1  A    between atoms: N_1  and  C_2 
REMARK    2  A    between atoms: C_2  and  C_3 
REMARK    3  A    between atoms: C_2  and  C_6 
REMARK    4  A    between atoms: C_2  and  C_9 
REMARK    5  A    between atoms: C_3  and  C_4 
REMARK    6  A    between atoms: C_4  and  O_5 
REMARK    7  A    between atoms: C_6  and  C_7 
REMARK    8  A    between atoms: C_7  and  O_8 
REMARK    9  A    between atoms: C_9  and  C_10 
REMARK   10  A    between atoms: C_10  and  O_11 
ROOT
HETATM    1  C   UNK N   1      20.306  18.144   2.753  0.00  0.00     0.029 C 
ENDROOT
BRANCH   1   2
HETATM    2  N   UNK N   1      18.967  18.539   2.352  0.00  0.00    -0.421 N 
HETATM    3  H   UNK N   1      18.009  18.296   2.601  0.00  0.00     0.150 HD
HETATM    4  H   UNK N   1      18.993  19.252   1.623  0.00  0.00     0.150 HD
ENDBRANCH   1   2
BRANCH   1   5
HETATM    5  C   UNK N   1      20.722  16.894   1.952  0.00  0.00     0.056 C 
BRANCH   5   6
HETATM    6  C   UNK N   1      19.866  16.618   0.713  0.00  0.00     0.166 C 
BRANCH   6   7
HETATM    7  O   UNK N   1      20.235  17.437  -0.354  0.00  0.00    -0.401 OA
HETATM    8  H   UNK N   1      20.561  17.136  -1.217  0.00  0.00     0.209 HD
ENDBRANCH   6   7
ENDBRANCH   5   6
ENDBRANCH   1   5
BRANCH   1   9
HETATM    9  C   UNK N   1      21.229  19.324   2.414  0.00  0.00     0.056 C 
BRANCH   9  10
HETATM   10  C   UNK N   1      20.594  20.425   1.579  0.00  0.00     0.166 C 
BRANCH  10  11
HETATM   11  O   UNK N   1      20.723  20.108   0.228  0.00  0.00    -0.401 OA
HETATM   12  H   UNK N   1      21.579  19.819  -0.127  0.00  0.00     0.209 HD
ENDBRANCH  10  11
ENDBRANCH   9  10
ENDBRANCH   1   9
BRANCH   1  13
HETATM   13  C   UNK N   1      20.283  17.875   4.268  0.00  0.00     0.056 C 
BRANCH  13  14
HETATM   14  C   UNK N   1      21.455  18.482   5.029  0.00  0.00     0.166 C 
BRANCH  14  15
HETATM   15  O   UNK N   1      21.050  18.821   6.318  0.00  0.00    -0.401 OA
HETATM   16  H   UNK N   1      21.601  18.853   7.116  0.00  0.00     0.209 HD
ENDBRANCH  14  15
ENDBRANCH  13  14
ENDBRANCH   1  13
TORSDOF 10
ENDMDL
MODEL 4
REMARK VINA RESULT:      -3.7     23.499     24.615
REMARK  10 active torsions:
REMARK  status: ('A' for Active; 'I' for Inactive)
REMARK    1  A    between atoms: N_1  and  C_2 
REMARK    2  A    between atoms: C_2  and  C_3 
REMARK    3  A    between atoms: C_2  and  C_6 
REMARK    4  A    between atoms: C_2  and  C_9 
REMARK    5  A    between atoms: C_3  and  C_4 
REMARK    6  A    between atoms: C_4  and  O_5 
REMARK    7  A    between atoms: C_6  and  C_7 
REMARK    8  A    between atoms: C_7  and  O_8 
REMARK    9  A    between atoms: C_9  and  C_10 
REMARK   10  A    between atoms: C_10  and  O_11 
ROOT
HETATM    1  C   UNK N   1      43.787  22.931   1.983  0.00  0.00     0.029 C 
ENDROOT
BRANCH   1   2
HETATM    2  N   UNK N   1      43.390  23.674   3.167  0.00  0.00    -0.421 N 
HETATM    3  H   UNK N   1      42.729  23.563   3.934  0.00  0.00     0.150 HD
HETATM    4  H   UNK N   1      43.917  24.544   3.253  0.00  0.00     0.150 HD
ENDBRANCH   1   2
BRANCH   1   5
HETATM    5  C   UNK N   1      44.832  23.751   1.202  0.00  0.00     0.056 C 
BRANCH   5   6
HETATM    6  C   UNK N   1      45.413  24.941   1.971  0.00  0.00     0.166 C 
BRANCH   6   7
HETATM    7  O   UNK N   1      46.399  24.535   2.870  0.00  0.00    -0.401 OA
HETATM    8  H   UNK N   1      47.343  24.752   2.817  0.00  0.00     0.209 HD
ENDBRANCH   6   7
ENDBRANCH   5   6
ENDBRANCH   1   5
BRANCH   1   9
HETATM    9  C   UNK N   1      44.406  21.616   2.480  0.00  0.00     0.056 C 
BRANCH   9  10
HETATM   10  C   UNK N   1      44.649  21.539   3.979  0.00  0.00     0.166 C 
BRANCH  10  11
HETATM   11  O   UNK N   1      45.819  22.228   4.290  0.00  0.00    -0.401 OA
HETATM   12  H   UNK N   1      45.783  23.039   4.821  0.00  0.00     0.209 HD
ENDBRANCH  10  11
ENDBRANCH   9  10
ENDBRANCH   1   9
BRANCH   1  13
HETATM   13  C   UNK N   1      42.521  22.667   1.149  0.00  0.00     0.056 C 
BRANCH  13  14
HETATM   14  C   UNK N   1      41.217  22.965   1.879  0.00  0.00     0.166 C 
BRANCH  14  15
HETATM   15  O   UNK N   1      40.973  24.336   1.858  0.00  0.00    -0.401 OA
HETATM   16  H   UNK N   1      40.696  24.893   2.602  0.00  0.00     0.209 HD
ENDBRANCH  14  15
ENDBRANCH  13  14
ENDBRANCH   1  13
TORSDOF 10
ENDMDL
MODEL 5
REMARK VINA RESULT:      -3.7     13.038     13.852
REMARK  10 active torsions:
REMARK  status: ('A' for Active; 'I' for Inactive)
REMARK    1  A    between atoms: N_1  and  C_2 
REMARK    2  A    between atoms: C_2  and  C_3 
REMARK    3  A    between atoms: C_2  and  C_6 
REMARK    4  A    between atoms: C_2  and  C_9 
REMARK    5  A    between atoms: C_3  and  C_4 
REMARK    6  A    between atoms: C_4  and  O_5 
REMARK    7  A    between atoms: C_6  and  C_7 
REMARK    8  A    between atoms: C_7  and  O_8 
REMARK    9  A    between atoms: C_9  and  C_10 
REMARK   10  A    between atoms: C_10  and  O_11 
ROOT
HETATM    1  C   UNK N   1      31.754  16.955   7.837  0.00  0.00     0.029 C 
ENDROOT
BRANCH   1   2
HETATM    2  N   UNK N   1      32.503  17.623   8.887  0.00  0.00    -0.421 N 
HETATM    3  H   UNK N   1      32.986  18.512   9.013  0.00  0.00     0.150 HD
HETATM    4  H   UNK N   1      32.562  17.045   9.726  0.00  0.00     0.150 HD
ENDBRANCH   1   2
BRANCH   1   5
HETATM    5  C   UNK N   1      32.352  17.341   6.470  0.00  0.00     0.056 C 
BRANCH   5   6
HETATM    6  C   UNK N   1      33.858  17.096   6.341  0.00  0.00     0.166 C 
BRANCH   6   7
HETATM    7  O   UNK N   1      34.594  18.110   6.955  0.00  0.00    -0.401 OA
HETATM    8  H   UNK N   1      34.842  18.146   7.892  0.00  0.00     0.209 HD
ENDBRANCH   6   7
ENDBRANCH   5   6
ENDBRANCH   1   5
BRANCH   1   9
HETATM    9  C   UNK N   1      31.912  15.446   8.080  0.00  0.00     0.056 C 
BRANCH   9  10
HETATM   10  C   UNK N   1      32.593  15.068   9.386  0.00  0.00     0.166 C 
BRANCH  10  11
HETATM   11  O   UNK N   1      31.677  15.177  10.430  0.00  0.00    -0.401 OA
HETATM   12  H   UNK N   1      31.950  15.550  11.283  0.00  0.00     0.209 HD
ENDBRANCH  10  11
ENDBRANCH   9  10
ENDBRANCH   1   9
BRANCH   1  13
HETATM   13  C   UNK N   1      30.282  17.385   7.964  0.00  0.00     0.056 C 
BRANCH  13  14
HETATM   14  C   UNK N   1      29.988  18.256   9.179  0.00  0.00     0.166 C 
BRANCH  14  15
HETATM   15  O   UNK N   1      29.814  17.449  10.301  0.00  0.00    -0.401 OA
HETATM   16  H   UNK N   1      29.120  16.787  10.444  0.00  0.00     0.209 HD
ENDBRANCH  14  15
ENDBRANCH  13  14
ENDBRANCH   1  13
TORSDOF 10
ENDMDL
MODEL 6
REMARK VINA RESULT:      -3.7     23.394     24.375
REMARK  10 active torsions:
REMARK  status: ('A' for Active; 'I' for Inactive)
REMARK    1  A    between atoms: N_1  and  C_2 
REMARK    2  A    between atoms: C_2  and  C_3 
REMARK    3  A    between atoms: C_2  and  C_6 
REMARK    4  A    between atoms: C_2  and  C_9 
REMARK    5  A    between atoms: C_3  and  C_4 
REMARK    6  A    between atoms: C_4  and  O_5 
REMARK    7  A    between atoms: C_6  and  C_7 
REMARK    8  A    between atoms: C_7  and  O_8 
REMARK    9  A    between atoms: C_9  and  C_10 
REMARK   10  A    between atoms: C_10  and  O_11 
ROOT
HETATM    1  C   UNK N   1      43.570  22.840   2.217  0.00  0.00     0.029 C 
ENDROOT
BRANCH   1   2
HETATM    2  N   UNK N   1      43.335  23.691   3.370  0.00  0.00    -0.421 N 
HETATM    3  H   UNK N   1      43.197  24.684   3.552  0.00  0.00     0.150 HD
HETATM    4  H   UNK N   1      43.297  23.146   4.232  0.00  0.00     0.150 HD
ENDBRANCH   1   2
BRANCH   1   5
HETATM    5  C   UNK N   1      44.228  21.527   2.687  0.00  0.00     0.056 C 
BRANCH   5   6
HETATM    6  C   UNK N   1      44.721  21.545   4.137  0.00  0.00     0.166 C 
BRANCH   6   7
HETATM    7  O   UNK N   1      45.910  22.263   4.262  0.00  0.00    -0.401 OA
HETATM    8  H   UNK N   1      46.806  21.899   4.191  0.00  0.00     0.209 HD
ENDBRANCH   6   7
ENDBRANCH   5   6
ENDBRANCH   1   5
BRANCH   1   9
HETATM    9  C   UNK N   1      42.195  22.553   1.597  0.00  0.00     0.056 C 
BRANCH   9  10
HETATM   10  C   UNK N   1      41.545  23.731   0.888  0.00  0.00     0.166 C 
BRANCH  10  11
HETATM   11  O   UNK N   1      40.925  24.549   1.830  0.00  0.00    -0.401 OA
HETATM   12  H   UNK N   1      40.950  24.317   2.771  0.00  0.00     0.209 HD
ENDBRANCH  10  11
ENDBRANCH   9  10
ENDBRANCH   1   9
BRANCH   1  13
HETATM   13  C   UNK N   1      44.469  23.615   1.238  0.00  0.00     0.056 C 
BRANCH  13  14
HETATM   14  C   UNK N   1      45.122  24.855   1.835  0.00  0.00     0.166 C 
BRANCH  14  15
HETATM   15  O   UNK N   1      46.160  24.474   2.683  0.00  0.00    -0.401 OA
HETATM   16  H   UNK N   1      46.080  24.103   3.576  0.00  0.00     0.209 HD
ENDBRANCH  14  15
ENDBRANCH  13  14
ENDBRANCH   1  13
TORSDOF 10
ENDMDL
MODEL 7
REMARK VINA RESULT:      -3.6      1.571      3.446
REMARK  10 active torsions:
REMARK  status: ('A' for Active; 'I' for Inactive)
REMARK    1  A    between atoms: N_1  and  C_2 
REMARK    2  A    between atoms: C_2  and  C_3 
REMARK    3  A    between atoms: C_2  and  C_6 
REMARK    4  A    between atoms: C_2  and  C_9 
REMARK    5  A    between atoms: C_3  and  C_4 
REMARK    6  A    between atoms: C_4  and  O_5 
REMARK    7  A    between atoms: C_6  and  C_7 
REMARK    8  A    between atoms: C_7  and  O_8 
REMARK    9  A    between atoms: C_9  and  C_10 
REMARK   10  A    between atoms: C_10  and  O_11 
ROOT
HETATM    1  C   UNK N   1      20.148  18.178   1.773  0.00  0.00     0.029 C 
ENDROOT
BRANCH   1   2
HETATM    2  N   UNK N   1      18.760  18.329   2.174  0.00  0.00    -0.421 N 
HETATM    3  H   UNK N   1      17.877  17.843   2.017  0.00  0.00     0.150 HD
HETATM    4  H   UNK N   1      18.634  19.142   2.778  0.00  0.00     0.150 HD
ENDBRANCH   1   2
BRANCH   1   5
HETATM    5  C   UNK N   1      20.817  19.567   1.748  0.00  0.00     0.056 C 
BRANCH   5   6
HETATM    6  C   UNK N   1      21.313  20.059   3.110  0.00  0.00     0.166 C 
BRANCH   6   7
HETATM    7  O   UNK N   1      20.282  20.636   3.850  0.00  0.00    -0.401 OA
HETATM    8  H   UNK N   1      20.028  21.572   3.841  0.00  0.00     0.209 HD
ENDBRANCH   6   7
ENDBRANCH   5   6
ENDBRANCH   1   5
BRANCH   1   9
HETATM    9  C   UNK N   1      20.814  17.286   2.830  0.00  0.00     0.056 C 
BRANCH   9  10
HETATM   10  C   UNK N   1      19.926  16.896   4.002  0.00  0.00     0.166 C 
BRANCH  10  11
HETATM   11  O   UNK N   1      19.222  15.737   3.679  0.00  0.00    -0.401 OA
HETATM   12  H   UNK N   1      19.166  15.006   4.314  0.00  0.00     0.209 HD
ENDBRANCH  10  11
ENDBRANCH   9  10
ENDBRANCH   1   9
BRANCH   1  13
HETATM   13  C   UNK N   1      20.165  17.505   0.389  0.00  0.00     0.056 C 
BRANCH  13  14
HETATM   14  C   UNK N   1      19.294  16.259   0.288  0.00  0.00     0.166 C 
BRANCH  14  15
HETATM   15  O   UNK N   1      18.011  16.618  -0.119  0.00  0.00    -0.401 OA
HETATM   16  H   UNK N   1      17.664  17.516  -0.237  0.00  0.00     0.209 HD
ENDBRANCH  14  15
ENDBRANCH  13  14
ENDBRANCH   1  13
TORSDOF 10
ENDMDL
MODEL 8
REMARK VINA RESULT:      -3.6      7.150      7.779
REMARK  10 active torsions:
REMARK  status: ('A' for Active; 'I' for Inactive)
REMARK    1  A    between atoms: N_1  and  C_2 
REMARK    2  A    between atoms: C_2  and  C_3 
REMARK    3  A    between atoms: C_2  and  C_6 
REMARK    4  A    between atoms: C_2  and  C_9 
REMARK    5  A    between atoms: C_3  and  C_4 
REMARK    6  A    between atoms: C_4  and  O_5 
REMARK    7  A    between atoms: C_6  and  C_7 
REMARK    8  A    between atoms: C_7  and  O_8 
REMARK    9  A    between atoms: C_9  and  C_10 
REMARK   10  A    between atoms: C_10  and  O_11 
ROOT
HETATM    1  C   UNK N   1      26.937  19.912   5.068  0.00  0.00     0.029 C 
ENDROOT
BRANCH   1   2
HETATM    2  N   UNK N   1      25.679  19.380   5.562  0.00  0.00    -0.421 N 
HETATM    3  H   UNK N   1      24.759  19.741   5.811  0.00  0.00     0.150 HD
HETATM    4  H   UNK N   1      25.730  18.369   5.696  0.00  0.00     0.150 HD
ENDBRANCH   1   2
BRANCH   1   5
HETATM    5  C   UNK N   1      28.030  18.835   5.214  0.00  0.00     0.056 C 
BRANCH   5   6
HETATM    6  C   UNK N   1      27.644  17.653   6.108  0.00  0.00     0.166 C 
BRANCH   6   7
HETATM    7  O   UNK N   1      27.573  18.030   7.449  0.00  0.00    -0.401 OA
HETATM    8  H   UNK N   1      26.919  17.719   8.094  0.00  0.00     0.209 HD
ENDBRANCH   6   7
ENDBRANCH   5   6
ENDBRANCH   1   5
BRANCH   1   9
HETATM    9  C   UNK N   1      26.717  20.250   3.587  0.00  0.00     0.056 C 
BRANCH   9  10
HETATM   10  C   UNK N   1      25.312  19.991   3.064  0.00  0.00     0.166 C 
BRANCH  10  11
HETATM   11  O   UNK N   1      25.020  20.909   2.057  0.00  0.00    -0.401 OA
HETATM   12  H   UNK N   1      24.462  20.651   1.307  0.00  0.00     0.209 HD
ENDBRANCH  10  11
ENDBRANCH   9  10
ENDBRANCH   1   9
BRANCH   1  13
HETATM   13  C   UNK N   1      27.263  21.177   5.883  0.00  0.00     0.056 C 
BRANCH  13  14
HETATM   14  C   UNK N   1      26.239  21.506   6.962  0.00  0.00     0.166 C 
BRANCH  14  15
HETATM   15  O   UNK N   1      26.376  20.615   8.024  0.00  0.00    -0.401 OA
HETATM   16  H   UNK N   1      26.143  19.673   8.032  0.00  0.00     0.209 HD
ENDBRANCH  14  15
ENDBRANCH  13  14
ENDBRANCH   1  13
TORSDOF 10
ENDMDL
MODEL 9
REMARK VINA RESULT:      -3.6     13.223     13.785
REMARK  10 active torsions:
REMARK  status: ('A' for Active; 'I' for Inactive)
REMARK    1  A    between atoms: N_1  and  C_2 
REMARK    2  A    between atoms: C_2  and  C_3 
REMARK    3  A    between atoms: C_2  and  C_6 
REMARK    4  A    between atoms: C_2  and  C_9 
REMARK    5  A    between atoms: C_3  and  C_4 
REMARK    6  A    between atoms: C_4  and  O_5 
REMARK    7  A    between atoms: C_6  and  C_7 
REMARK    8  A    between atoms: C_7  and  O_8 
REMARK    9  A    between atoms: C_9  and  C_10 
REMARK   10  A    between atoms: C_10  and  O_11 
ROOT
HETATM    1  C   UNK N   1      31.828  16.871   8.144  0.00  0.00     0.029 C 
ENDROOT
BRANCH   1   2
HETATM    2  N   UNK N   1      32.672  17.624   9.054  0.00  0.00    -0.421 N 
HETATM    3  H   UNK N   1      32.554  18.356   9.754  0.00  0.00     0.150 HD
HETATM    4  H   UNK N   1      33.650  17.346   8.970  0.00  0.00     0.150 HD
ENDBRANCH   1   2
BRANCH   1   5
HETATM    5  C   UNK N   1      32.039  15.365   8.394  0.00  0.00     0.056 C 
BRANCH   5   6
HETATM    6  C   UNK N   1      33.010  15.037   9.531  0.00  0.00     0.166 C 
BRANCH   6   7
HETATM    7  O   UNK N   1      32.378  15.094  10.773  0.00  0.00    -0.401 OA
HETATM    8  H   UNK N   1      32.458  14.439  11.484  0.00  0.00     0.209 HD
ENDBRANCH   6   7
ENDBRANCH   5   6
ENDBRANCH   1   5
BRANCH   1   9
HETATM    9  C   UNK N   1      30.379  17.266   8.465  0.00  0.00     0.056 C 
BRANCH   9  10
HETATM   10  C   UNK N   1      30.201  18.655   9.058  0.00  0.00     0.166 C 
BRANCH  10  11
HETATM   11  O   UNK N   1      29.803  18.538  10.389  0.00  0.00    -0.401 OA
HETATM   12  H   UNK N   1      30.129  19.166  11.053  0.00  0.00     0.209 HD
ENDBRANCH  10  11
ENDBRANCH   9  10
ENDBRANCH   1   9
BRANCH   1  13
HETATM   13  C   UNK N   1      32.207  17.275   6.708  0.00  0.00     0.056 C 
BRANCH  13  14
HETATM   14  C   UNK N   1      33.660  16.997   6.344  0.00  0.00     0.166 C 
BRANCH  14  15
HETATM   15  O   UNK N   1      34.453  18.077   6.726  0.00  0.00    -0.401 OA
HETATM   16  H   UNK N   1      35.045  18.598   6.161  0.00  0.00     0.209 HD
ENDBRANCH  14  15
ENDBRANCH  13  14
ENDBRANCH   1  13
TORSDOF 10
ENDMDL
