MODEL 1
REMARK VINA RESULT:      -4.1      0.000      0.000
REMARK  3 active torsions:
REMARK  status: ('A' for Active; 'I' for Inactive)
REMARK    1  A    between atoms: C_2  and  N_1 
REMARK    2  A    between atoms: C_2  and  C_5 
REMARK    3  A    between atoms: C_5  and  O_6 
ROOT
HETATM    1  C   UNK N   1      34.167  17.267   9.112  0.00  0.00     0.253 C 
HETATM    2  C   UNK N   1      35.046  16.668  10.122  0.00  0.00    -0.081 C 
HETATM    3  C   UNK N   1      35.794  16.196  10.939  0.00  0.00     0.015 C 
ENDROOT
BRANCH   1   4
HETATM    4  N   UNK N   1      32.778  16.846   9.060  0.00  0.00    -0.408 N 
HETATM    5  H   UNK N   1      32.408  16.410   8.215  0.00  0.00     0.151 HD
HETATM    6  H   UNK N   1      32.171  16.985   9.869  0.00  0.00     0.151 HD
ENDBRANCH   1   4
BRANCH   1   7
HETATM    7  C   UNK N   1      34.656  18.292   8.140  0.00  0.00     0.175 C 
HETATM    8  O   UNK N   1      35.298  19.250   8.533  0.00  0.00    -0.648 OA
BRANCH   7   9
HETATM    9  O   UNK N   1      34.388  18.158   6.827  0.00  0.00    -0.774 OA
HETATM   10  H   UNK N   1      33.596  17.742   6.551  0.00  0.00     0.167 HD
ENDBRANCH   7   9
ENDBRANCH   1   7
TORSDOF 3
ENDMDL
MODEL 2
REMARK VINA RESULT:      -4.1     15.376     15.843
REMARK  3 active torsions:
REMARK  status: ('A' for Active; 'I' for Inactive)
REMARK    1  A    between atoms: C_2  and  N_1 
REMARK    2  A    between atoms: C_2  and  C_5 
REMARK    3  A    between atoms: C_5  and  O_6 
ROOT
HETATM    1  C   UNK N   1      20.635  20.027   1.616  0.00  0.00     0.253 C 
HETATM    2  C   UNK N   1      20.375  18.584   1.620  0.00  0.00    -0.081 C 
HETATM    3  C   UNK N   1      20.168  17.398   1.657  0.00  0.00     0.015 C 
ENDROOT
BRANCH   1   4
HETATM    4  N   UNK N   1      20.513  20.753   0.363  0.00  0.00    -0.408 N 
HETATM    5  H   UNK N   1      20.488  20.245  -0.521  0.00  0.00     0.151 HD
HETATM    6  H   UNK N   1      20.454  21.772   0.367  0.00  0.00     0.151 HD
ENDBRANCH   1   4
BRANCH   1   7
HETATM    7  C   UNK N   1      21.018  20.768   2.855  0.00  0.00     0.175 C 
HETATM    8  O   UNK N   1      20.454  20.532   3.909  0.00  0.00    -0.648 OA
BRANCH   7   9
HETATM    9  O   UNK N   1      21.990  21.700   2.811  0.00  0.00    -0.774 OA
HETATM   10  H   UNK N   1      22.351  22.039   3.606  0.00  0.00     0.167 HD
ENDBRANCH   7   9
ENDBRANCH   1   7
TORSDOF 3
ENDMDL
MODEL 3
REMARK VINA RESULT:      -4.1      1.687      2.907
REMARK  3 active torsions:
REMARK  status: ('A' for Active; 'I' for Inactive)
REMARK    1  A    between atoms: C_2  and  N_1 
REMARK    2  A    between atoms: C_2  and  C_5 
REMARK    3  A    between atoms: C_5  and  O_6 
ROOT
HETATM    1  C   UNK N   1      33.462  17.511   8.740  0.00  0.00     0.253 C 
HETATM    2  C   UNK N   1      32.018  17.587   8.494  0.00  0.00    -0.081 C 
HETATM    3  C   UNK N   1      30.838  17.672   8.266  0.00  0.00     0.015 C 
ENDROOT
BRANCH   1   4
HETATM    4  N   UNK N   1      33.941  16.663   9.817  0.00  0.00    -0.408 N 
HETATM    5  H   UNK N   1      34.394  15.774   9.604  0.00  0.00     0.151 HD
HETATM    6  H   UNK N   1      33.825  16.956  10.788  0.00  0.00     0.151 HD
ENDBRANCH   1   4
BRANCH   1   7
HETATM    7  C   UNK N   1      34.448  18.276   7.918  0.00  0.00     0.175 C 
HETATM    8  O   UNK N   1      34.518  18.092   6.716  0.00  0.00    -0.648 OA
BRANCH   7   9
HETATM    9  O   UNK N   1      35.263  19.173   8.506  0.00  0.00    -0.774 OA
HETATM   10  H   UNK N   1      35.473  19.974   8.067  0.00  0.00     0.167 HD
ENDBRANCH   7   9
ENDBRANCH   1   7
TORSDOF 3
ENDMDL
MODEL 4
REMARK VINA RESULT:      -4.0     12.642     13.139
REMARK  3 active torsions:
REMARK  status: ('A' for Active; 'I' for Inactive)
REMARK    1  A    between atoms: C_2  and  N_1 
REMARK    2  A    between atoms: C_2  and  C_5 
REMARK    3  A    between atoms: C_5  and  O_6 
ROOT
HETATM    1  C   UNK N   1      22.759  11.826  11.139  0.00  0.00     0.253 C 
HETATM    2  C   UNK N   1      23.064  11.537   9.734  0.00  0.00    -0.081 C 
HETATM    3  C   UNK N   1      23.349  11.302   8.587  0.00  0.00     0.015 C 
ENDROOT
BRANCH   1   4
HETATM    4  N   UNK N   1      21.367  11.871  11.553  0.00  0.00    -0.408 N 
HETATM    5  H   UNK N   1      20.862  12.757  11.550  0.00  0.00     0.151 HD
HETATM    6  H   UNK N   1      20.895  11.016  11.848  0.00  0.00     0.151 HD
ENDBRANCH   1   4
BRANCH   1   7
HETATM    7  C   UNK N   1      23.831  12.075  12.149  0.00  0.00     0.175 C 
HETATM    8  O   UNK N   1      23.572  12.030  13.339  0.00  0.00    -0.648 OA
BRANCH   7   9
HETATM    9  O   UNK N   1      25.086  12.350  11.747  0.00  0.00    -0.774 OA
HETATM   10  H   UNK N   1      25.807  11.860  12.091  0.00  0.00     0.167 HD
ENDBRANCH   7   9
ENDBRANCH   1   7
TORSDOF 3
ENDMDL
MODEL 5
REMARK VINA RESULT:      -3.9     12.391     12.998
REMARK  3 active torsions:
REMARK  status: ('A' for Active; 'I' for Inactive)
REMARK    1  A    between atoms: C_2  and  N_1 
REMARK    2  A    between atoms: C_2  and  C_5 
REMARK    3  A    between atoms: C_5  and  O_6 
ROOT
HETATM    1  C   UNK N   1      22.863  12.237  11.235  0.00  0.00     0.253 C 
HETATM    2  C   UNK N   1      21.771  12.910  10.525  0.00  0.00    -0.081 C 
HETATM    3  C   UNK N   1      20.897  13.472   9.916  0.00  0.00     0.015 C 
ENDROOT
BRANCH   1   4
HETATM    4  N   UNK N   1      22.572  11.581  12.498  0.00  0.00    -0.408 N 
HETATM    5  H   UNK N   1      22.017  12.061  13.207  0.00  0.00     0.151 HD
HETATM    6  H   UNK N   1      22.922  10.639  12.677  0.00  0.00     0.151 HD
ENDBRANCH   1   4
BRANCH   1   7
HETATM    7  C   UNK N   1      24.258  12.207  10.701  0.00  0.00     0.175 C 
HETATM    8  O   UNK N   1      24.465  11.876   9.547  0.00  0.00    -0.648 OA
BRANCH   7   9
HETATM    9  O   UNK N   1      25.292  12.546  11.495  0.00  0.00    -0.774 OA
HETATM   10  H   UNK N   1      25.171  12.603  12.423  0.00  0.00     0.167 HD
ENDBRANCH   7   9
ENDBRANCH   1   7
TORSDOF 3
ENDMDL
MODEL 6
REMARK VINA RESULT:      -3.8      1.755      3.082
REMARK  3 active torsions:
REMARK  status: ('A' for Active; 'I' for Inactive)
REMARK    1  A    between atoms: C_2  and  N_1 
REMARK    2  A    between atoms: C_2  and  C_5 
REMARK    3  A    between atoms: C_5  and  O_6 
ROOT
HETATM    1  C   UNK N   1      33.498  17.762   8.040  0.00  0.00     0.253 C 
HETATM    2  C   UNK N   1      33.444  17.583   6.585  0.00  0.00    -0.081 C 
HETATM    3  C   UNK N   1      33.433  17.445   5.389  0.00  0.00     0.015 C 
ENDROOT
BRANCH   1   4
HETATM    4  N   UNK N   1      32.301  17.499   8.819  0.00  0.00    -0.408 N 
HETATM    5  H   UNK N   1      32.055  18.109   9.598  0.00  0.00     0.151 HD
HETATM    6  H   UNK N   1      31.706  16.703   8.587  0.00  0.00     0.151 HD
ENDBRANCH   1   4
BRANCH   1   7
HETATM    7  C   UNK N   1      34.742  18.206   8.739  0.00  0.00     0.175 C 
HETATM    8  O   UNK N   1      35.297  19.237   8.405  0.00  0.00    -0.648 OA
BRANCH   7   9
HETATM    9  O   UNK N   1      35.253  17.464   9.741  0.00  0.00    -0.774 OA
HETATM   10  H   UNK N   1      35.110  16.539   9.759  0.00  0.00     0.167 HD
ENDBRANCH   7   9
ENDBRANCH   1   7
TORSDOF 3
ENDMDL
MODEL 7
REMARK VINA RESULT:      -3.8     14.867     15.549
REMARK  3 active torsions:
REMARK  status: ('A' for Active; 'I' for Inactive)
REMARK    1  A    between atoms: C_2  and  N_1 
REMARK    2  A    between atoms: C_2  and  C_5 
REMARK    3  A    between atoms: C_5  and  O_6 
ROOT
HETATM    1  C   UNK N   1      20.306  19.111   2.299  0.00  0.00     0.253 C 
HETATM    2  C   UNK N   1      21.207  18.383   3.199  0.00  0.00    -0.081 C 
HETATM    3  C   UNK N   1      21.973  17.805   3.926  0.00  0.00     0.015 C 
ENDROOT
BRANCH   1   4
HETATM    4  N   UNK N   1      18.899  18.747   2.278  0.00  0.00    -0.408 N 
HETATM    5  H   UNK N   1      18.408  18.661   1.388  0.00  0.00     0.151 HD
HETATM    6  H   UNK N   1      18.403  18.576   3.153  0.00  0.00     0.151 HD
ENDBRANCH   1   4
BRANCH   1   7
HETATM    7  C   UNK N   1      20.789  20.209   1.409  0.00  0.00     0.175 C 
HETATM    8  O   UNK N   1      21.319  21.196   1.888  0.00  0.00    -0.648 OA
BRANCH   7   9
HETATM    9  O   UNK N   1      20.639  20.111   0.074  0.00  0.00    -0.774 OA
HETATM   10  H   UNK N   1      19.804  19.889  -0.288  0.00  0.00     0.167 HD
ENDBRANCH   7   9
ENDBRANCH   1   7
TORSDOF 3
ENDMDL
MODEL 8
REMARK VINA RESULT:      -3.6     11.557     12.124
REMARK  3 active torsions:
REMARK  status: ('A' for Active; 'I' for Inactive)
REMARK    1  A    between atoms: C_2  and  N_1 
REMARK    2  A    between atoms: C_2  and  C_5 
REMARK    3  A    between atoms: C_5  and  O_6 
ROOT
HETATM    1  C   UNK N   1      43.542  22.765   3.547  0.00  0.00     0.253 C 
HETATM    2  C   UNK N   1      42.404  22.434   2.683  0.00  0.00    -0.081 C 
HETATM    3  C   UNK N   1      41.483  22.132   1.968  0.00  0.00     0.015 C 
ENDROOT
BRANCH   1   4
HETATM    4  N   UNK N   1      43.582  24.075   4.174  0.00  0.00    -0.408 N 
HETATM    5  H   UNK N   1      42.981  24.824   3.831  0.00  0.00     0.151 HD
HETATM    6  H   UNK N   1      44.213  24.246   4.958  0.00  0.00     0.151 HD
ENDBRANCH   1   4
BRANCH   1   7
HETATM    7  C   UNK N   1      44.653  21.799   3.801  0.00  0.00     0.175 C 
HETATM    8  O   UNK N   1      44.481  20.607   3.619  0.00  0.00    -0.648 OA
BRANCH   7   9
HETATM    9  O   UNK N   1      45.849  22.245   4.231  0.00  0.00    -0.774 OA
HETATM   10  H   UNK N   1      46.139  22.046   5.099  0.00  0.00     0.167 HD
ENDBRANCH   7   9
ENDBRANCH   1   7
TORSDOF 3
ENDMDL
MODEL 9
REMARK VINA RESULT:      -3.5      6.637      7.527
REMARK  3 active torsions:
REMARK  status: ('A' for Active; 'I' for Inactive)
REMARK    1  A    between atoms: C_2  and  N_1 
REMARK    2  A    between atoms: C_2  and  C_5 
REMARK    3  A    between atoms: C_5  and  O_6 
ROOT
HETATM    1  C   UNK N   1      36.392  13.962  15.224  0.00  0.00     0.253 C 
HETATM    2  C   UNK N   1      35.721  13.226  16.300  0.00  0.00    -0.081 C 
HETATM    3  C   UNK N   1      35.150  12.606  17.159  0.00  0.00     0.015 C 
ENDROOT
BRANCH   1   4
HETATM    4  N   UNK N   1      37.433  14.914  15.575  0.00  0.00    -0.408 N 
HETATM    5  H   UNK N   1      37.374  15.434  16.450  0.00  0.00     0.151 HD
HETATM    6  H   UNK N   1      38.223  15.062  14.946  0.00  0.00     0.151 HD
ENDBRANCH   1   4
BRANCH   1   7
HETATM    7  C   UNK N   1      36.040  13.764  13.785  0.00  0.00     0.175 C 
HETATM    8  O   UNK N   1      34.892  13.508  13.466  0.00  0.00    -0.648 OA
BRANCH   7   9
HETATM    9  O   UNK N   1      36.991  13.867  12.837  0.00  0.00    -0.774 OA
HETATM   10  H   UNK N   1      37.206  13.125  12.307  0.00  0.00     0.167 HD
ENDBRANCH   7   9
ENDBRANCH   1   7
TORSDOF 3
ENDMDL
