MODEL 1
REMARK VINA RESULT:      -7.7      0.000      0.000
REMARK  8 active torsions:
REMARK  status: ('A' for Active; 'I' for Inactive)
REMARK    1  A    between atoms: C_13  and  C_7 
REMARK    2  A    between atoms: C_14  and  C_8 
REMARK    3  A    between atoms: N_19  and  C_13 
REMARK    4  A    between atoms: N_22  and  C_14 
REMARK    5  A    between atoms: C_17  and  C_15 
REMARK    6  A    between atoms: C_17  and  C_16 
REMARK    7  A    between atoms: O_29  and  C_17 
REMARK    8  A    between atoms: O_30  and  C_17 
ROOT
HETATM    1  C   UNK N   1      26.974  19.724   5.776  0.00  0.00     0.282 C 
ENDROOT
BRANCH   1   2
HETATM    2  C   UNK N   1      27.869  18.595   6.141  0.00  0.00     0.154 A 
HETATM    3  N   UNK N   1      28.745  18.052   5.249  0.00  0.00    -0.339 N 
HETATM    4  C   UNK N   1      29.671  17.461   6.018  0.00  0.00     0.060 A 
ATOM      5  HN  UNK N   1      28.705  18.086   4.230  1.00  0.00     0.167 HD
HETATM    6  C   UNK N   1      30.854  16.849   5.614  0.00  0.00     0.033 A 
HETATM    7  C   UNK N   1      29.366  17.646   7.327  0.00  0.00     0.061 A 
HETATM    8  C   UNK N   1      31.752  16.443   6.622  0.00  0.00     0.017 A 
HETATM    9  C   UNK N   1      31.445  16.653   7.994  0.00  0.00     0.009 A 
HETATM   10  C   UNK N   1      30.219  17.257   8.352  0.00  0.00     0.047 A 
HETATM   11  N   UNK N   1      28.235  18.359   7.431  0.00  0.00    -0.339 N 
HETATM   12  H   UNK N   1      27.774  18.646   8.252  0.00  0.00     0.167 HD
BRANCH   9  13
HETATM   13  C   UNK N   1      32.428  16.305   9.044  0.00  0.00     0.102 C 
HETATM   14  N   UNK N   1      33.457  17.044   9.241  0.00  0.00    -0.385 N 
HETATM   15  H   UNK N   1      34.102  16.813   9.948  0.00  0.00     0.157 HD
HETATM   16  H   UNK N   1      33.603  17.842   8.684  0.00  0.00     0.157 HD
BRANCH  13  17
HETATM   17  N   UNK N   1      32.193  15.204   9.900  0.00  0.00    -0.385 N 
HETATM   18  H   UNK N   1      32.626  14.338   9.722  0.00  0.00     0.157 HD
HETATM   19  H   UNK N   1      31.595  15.303  10.676  0.00  0.00     0.157 HD
ENDBRANCH  13  17
ENDBRANCH   9  13
ENDBRANCH   1   2
BRANCH   1  20
HETATM   20  C   UNK N   1      25.859  19.280   4.898  0.00  0.00     0.154 A 
HETATM   21  N   UNK N   1      25.013  18.275   5.259  0.00  0.00    -0.339 N 
HETATM   22  C   UNK N   1      23.903  18.506   4.541  0.00  0.00     0.060 A 
ATOM     23  HN  UNK N   1      25.183  17.519   5.923  1.00  0.00     0.167 HD
HETATM   24  C   UNK N   1      22.680  17.847   4.620  0.00  0.00     0.033 A 
HETATM   25  C   UNK N   1      24.077  19.615   3.778  0.00  0.00     0.061 A 
HETATM   26  C   UNK N   1      21.601  18.392   3.894  0.00  0.00     0.017 A 
HETATM   27  C   UNK N   1      21.773  19.567   3.110  0.00  0.00     0.009 A 
HETATM   28  C   UNK N   1      23.043  20.179   3.041  0.00  0.00     0.047 A 
HETATM   29  N   UNK N   1      25.301  20.118   3.982  0.00  0.00    -0.339 N 
HETATM   30  H   UNK N   1      25.704  20.915   3.566  0.00  0.00     0.167 HD
BRANCH  27  31
HETATM   31  C   UNK N   1      20.618  20.197   2.433  0.00  0.00     0.102 C 
HETATM   32  N   UNK N   1      20.727  21.368   1.922  0.00  0.00    -0.385 N 
HETATM   33  H   UNK N   1      19.969  21.766   1.435  0.00  0.00     0.157 HD
ATOM     34  HN  UNK N   1      21.599  21.889   2.020  1.00  0.00     0.157 HD
BRANCH  31  35
HETATM   35  N   UNK N   1      19.422  19.467   2.243  0.00  0.00    -0.385 N 
HETATM   36  H   UNK N   1      18.558  19.860   2.503  0.00  0.00     0.157 HD
HETATM   37  H   UNK N   1      19.454  18.565   1.850  0.00  0.00     0.157 HD
ENDBRANCH  31  35
ENDBRANCH  27  31
ENDBRANCH   1  20
BRANCH   1  38
HETATM   38  O   UNK N   1      27.703  20.637   5.100  0.00  0.00    -0.353 OA
HETATM   39  H   UNK N   1      28.001  20.627   4.210  0.00  0.00     0.214 HD
ENDBRANCH   1  38
BRANCH   1  40
HETATM   40  O   UNK N   1      26.439  20.218   6.913  0.00  0.00    -0.353 OA
HETATM   41  H   UNK N   1      25.733  20.814   7.064  0.00  0.00     0.214 HD
ENDBRANCH   1  40
TORSDOF 8
ENDMDL
MODEL 2
REMARK VINA RESULT:      -7.7      8.420     12.866
REMARK  8 active torsions:
REMARK  status: ('A' for Active; 'I' for Inactive)
REMARK    1  A    between atoms: C_13  and  C_7 
REMARK    2  A    between atoms: C_14  and  C_8 
REMARK    3  A    between atoms: N_19  and  C_13 
REMARK    4  A    between atoms: N_22  and  C_14 
REMARK    5  A    between atoms: C_17  and  C_15 
REMARK    6  A    between atoms: C_17  and  C_16 
REMARK    7  A    between atoms: O_29  and  C_17 
REMARK    8  A    between atoms: O_30  and  C_17 
ROOT
HETATM    1  C   UNK N   1      35.955  13.009  12.641  0.00  0.00     0.282 C 
ENDROOT
BRANCH   1   2
HETATM    2  C   UNK N   1      35.371  12.582  13.940  0.00  0.00     0.154 A 
HETATM    3  N   UNK N   1      35.344  11.273  14.322  0.00  0.00    -0.339 N 
HETATM    4  C   UNK N   1      35.232  11.325  15.657  0.00  0.00     0.060 A 
ATOM      5  HN  UNK N   1      35.396  10.445  13.728  1.00  0.00     0.167 HD
HETATM    6  C   UNK N   1      35.271  10.267  16.560  0.00  0.00     0.033 A 
HETATM    7  C   UNK N   1      35.198  12.619  16.064  0.00  0.00     0.061 A 
HETATM    8  C   UNK N   1      35.299  10.585  17.932  0.00  0.00     0.017 A 
HETATM    9  C   UNK N   1      35.282  11.940  18.363  0.00  0.00     0.009 A 
HETATM   10  C   UNK N   1      35.218  12.977  17.407  0.00  0.00     0.047 A 
HETATM   11  N   UNK N   1      35.285  13.431  15.000  0.00  0.00    -0.339 N 
HETATM   12  H   UNK N   1      35.285  14.415  14.988  0.00  0.00     0.167 HD
BRANCH   9  13
HETATM   13  C   UNK N   1      35.399  12.271  19.801  0.00  0.00     0.102 C 
HETATM   14  N   UNK N   1      34.793  13.293  20.284  0.00  0.00    -0.385 N 
HETATM   15  H   UNK N   1      34.866  13.502  21.243  0.00  0.00     0.157 HD
HETATM   16  H   UNK N   1      34.255  13.869  19.695  0.00  0.00     0.157 HD
BRANCH  13  17
HETATM   17  N   UNK N   1      36.106  11.411  20.672  0.00  0.00    -0.385 N 
HETATM   18  H   UNK N   1      36.422  11.741  21.545  0.00  0.00     0.157 HD
HETATM   19  H   UNK N   1      36.284  10.479  20.407  0.00  0.00     0.157 HD
ENDBRANCH  13  17
ENDBRANCH   9  13
ENDBRANCH   1   2
BRANCH   1  20
HETATM   20  C   UNK N   1      35.176  14.116  12.025  0.00  0.00     0.154 A 
HETATM   21  N   UNK N   1      35.726  15.340  11.786  0.00  0.00    -0.339 N 
HETATM   22  C   UNK N   1      34.967  15.855  10.806  0.00  0.00     0.060 A 
ATOM     23  HN  UNK N   1      36.531  15.767  12.245  1.00  0.00     0.167 HD
HETATM   24  C   UNK N   1      35.166  17.037  10.101  0.00  0.00     0.033 A 
HETATM   25  C   UNK N   1      33.996  14.968  10.468  0.00  0.00     0.061 A 
HETATM   26  C   UNK N   1      34.336  17.277   8.987  0.00  0.00     0.017 A 
HETATM   27  C   UNK N   1      33.333  16.340   8.615  0.00  0.00     0.009 A 
HETATM   28  C   UNK N   1      33.152  15.170   9.383  0.00  0.00     0.047 A 
HETATM   29  N   UNK N   1      34.105  13.867  11.223  0.00  0.00    -0.339 N 
HETATM   30  H   UNK N   1      33.539  13.061  11.200  0.00  0.00     0.167 HD
BRANCH  27  31
HETATM   31  C   UNK N   1      32.532  16.541   7.387  0.00  0.00     0.102 C 
HETATM   32  N   UNK N   1      31.350  16.052   7.297  0.00  0.00    -0.385 N 
HETATM   33  H   UNK N   1      30.805  16.224   6.495  0.00  0.00     0.157 HD
ATOM     34  HN  UNK N   1      30.973  15.484   8.056  1.00  0.00     0.157 HD
BRANCH  31  35
HETATM   35  N   UNK N   1      33.020  17.369   6.350  0.00  0.00    -0.385 N 
HETATM   36  H   UNK N   1      32.967  17.070   5.414  0.00  0.00     0.157 HD
HETATM   37  H   UNK N   1      33.411  18.247   6.564  0.00  0.00     0.157 HD
ENDBRANCH  31  35
ENDBRANCH  27  31
ENDBRANCH   1  20
BRANCH   1  38
HETATM   38  O   UNK N   1      35.925  11.955  11.799  0.00  0.00    -0.353 OA
HETATM   39  H   UNK N   1      35.388  11.186  11.819  0.00  0.00     0.214 HD
ENDBRANCH   1  38
BRANCH   1  40
HETATM   40  O   UNK N   1      37.207  13.460  12.874  0.00  0.00    -0.353 OA
HETATM   41  H   UNK N   1      37.695  13.567  13.667  0.00  0.00     0.214 HD
ENDBRANCH   1  40
TORSDOF 8
ENDMDL
MODEL 3
REMARK VINA RESULT:      -7.7      0.133      9.432
REMARK  8 active torsions:
REMARK  status: ('A' for Active; 'I' for Inactive)
REMARK    1  A    between atoms: C_13  and  C_7 
REMARK    2  A    between atoms: C_14  and  C_8 
REMARK    3  A    between atoms: N_19  and  C_13 
REMARK    4  A    between atoms: N_22  and  C_14 
REMARK    5  A    between atoms: C_17  and  C_15 
REMARK    6  A    between atoms: C_17  and  C_16 
REMARK    7  A    between atoms: O_29  and  C_17 
REMARK    8  A    between atoms: O_30  and  C_17 
ROOT
HETATM    1  C   UNK N   1      27.089  19.657   5.755  0.00  0.00     0.282 C 
ENDROOT
BRANCH   1   2
HETATM    2  C   UNK N   1      25.933  19.232   4.923  0.00  0.00     0.154 A 
HETATM    3  N   UNK N   1      25.080  18.247   5.325  0.00  0.00    -0.339 N 
HETATM    4  C   UNK N   1      23.959  18.481   4.626  0.00  0.00     0.060 A 
ATOM      5  HN  UNK N   1      25.253  17.503   6.001  1.00  0.00     0.167 HD
HETATM    6  C   UNK N   1      22.732  17.834   4.737  0.00  0.00     0.033 A 
HETATM    7  C   UNK N   1      24.132  19.571   3.835  0.00  0.00     0.061 A 
HETATM    8  C   UNK N   1      21.649  18.368   4.010  0.00  0.00     0.017 A 
HETATM    9  C   UNK N   1      21.820  19.520   3.194  0.00  0.00     0.009 A 
HETATM   10  C   UNK N   1      23.093  20.125   3.097  0.00  0.00     0.047 A 
HETATM   11  N   UNK N   1      25.368  20.062   4.005  0.00  0.00    -0.339 N 
HETATM   12  H   UNK N   1      25.773  20.844   3.565  0.00  0.00     0.167 HD
BRANCH   9  13
HETATM   13  C   UNK N   1      20.662  20.127   2.502  0.00  0.00     0.102 C 
HETATM   14  N   UNK N   1      20.751  21.301   1.993  0.00  0.00    -0.385 N 
HETATM   15  H   UNK N   1      19.981  21.695   1.524  0.00  0.00     0.157 HD
HETATM   16  H   UNK N   1      21.591  21.809   2.072  0.00  0.00     0.157 HD
BRANCH  13  17
HETATM   17  N   UNK N   1      19.475  19.381   2.315  0.00  0.00    -0.385 N 
HETATM   18  H   UNK N   1      18.605  19.762   2.577  0.00  0.00     0.157 HD
HETATM   19  H   UNK N   1      19.517  18.479   1.923  0.00  0.00     0.157 HD
ENDBRANCH  13  17
ENDBRANCH   9  13
ENDBRANCH   1   2
BRANCH   1  20
HETATM   20  C   UNK N   1      27.984  18.514   6.079  0.00  0.00     0.154 A 
HETATM   21  N   UNK N   1      28.917  18.055   5.199  0.00  0.00    -0.339 N 
HETATM   22  C   UNK N   1      29.825  17.441   5.973  0.00  0.00     0.060 A 
ATOM     23  HN  UNK N   1      28.925  18.156   4.183  1.00  0.00     0.167 HD
HETATM   24  C   UNK N   1      31.051  16.903   5.593  0.00  0.00     0.033 A 
HETATM   25  C   UNK N   1      29.449  17.531   7.274  0.00  0.00     0.061 A 
HETATM   26  C   UNK N   1      31.917  16.474   6.619  0.00  0.00     0.017 A 
HETATM   27  C   UNK N   1      31.537  16.587   7.984  0.00  0.00     0.009 A 
HETATM   28  C   UNK N   1      30.270  17.112   8.315  0.00  0.00     0.047 A 
HETATM   29  N   UNK N   1      28.292  18.199   7.367  0.00  0.00    -0.339 N 
HETATM   30  H   UNK N   1      27.783  18.414   8.182  0.00  0.00     0.167 HD
BRANCH  27  31
HETATM   31  C   UNK N   1      32.487  16.234   9.063  0.00  0.00     0.102 C 
HETATM   32  N   UNK N   1      33.533  16.948   9.264  0.00  0.00    -0.385 N 
HETATM   33  H   UNK N   1      34.140  16.735  10.010  0.00  0.00     0.157 HD
ATOM     34  HN  UNK N   1      33.737  17.739   8.652  1.00  0.00     0.157 HD
BRANCH  31  35
HETATM   35  N   UNK N   1      32.190  15.175   9.951  0.00  0.00    -0.385 N 
HETATM   36  H   UNK N   1      32.691  15.083  10.794  0.00  0.00     0.157 HD
HETATM   37  H   UNK N   1      31.482  14.529   9.727  0.00  0.00     0.157 HD
ENDBRANCH  31  35
ENDBRANCH  27  31
ENDBRANCH   1  20
BRANCH   1  38
HETATM   38  O   UNK N   1      26.613  20.159   6.913  0.00  0.00    -0.353 OA
HETATM   39  H   UNK N   1      25.763  20.503   7.113  0.00  0.00     0.214 HD
ENDBRANCH   1  38
BRANCH   1  40
HETATM   40  O   UNK N   1      27.804  20.558   5.047  0.00  0.00    -0.353 OA
HETATM   41  H   UNK N   1      27.991  21.464   5.196  0.00  0.00     0.214 HD
ENDBRANCH   1  40
TORSDOF 8
ENDMDL
MODEL 4
REMARK VINA RESULT:      -7.7      8.437     14.821
REMARK  8 active torsions:
REMARK  status: ('A' for Active; 'I' for Inactive)
REMARK    1  A    between atoms: C_13  and  C_7 
REMARK    2  A    between atoms: C_14  and  C_8 
REMARK    3  A    between atoms: N_19  and  C_13 
REMARK    4  A    between atoms: N_22  and  C_14 
REMARK    5  A    between atoms: C_17  and  C_15 
REMARK    6  A    between atoms: C_17  and  C_16 
REMARK    7  A    between atoms: O_29  and  C_17 
REMARK    8  A    between atoms: O_30  and  C_17 
ROOT
HETATM    1  C   UNK N   1      35.994  13.003  12.679  0.00  0.00     0.282 C 
ENDROOT
BRANCH   1   2
HETATM    2  C   UNK N   1      35.217  14.099  12.042  0.00  0.00     0.154 A 
HETATM    3  N   UNK N   1      35.760  15.329  11.814  0.00  0.00    -0.339 N 
HETATM    4  C   UNK N   1      35.001  15.844  10.836  0.00  0.00     0.060 A 
ATOM      5  HN  UNK N   1      36.559  15.759  12.281  1.00  0.00     0.167 HD
HETATM    6  C   UNK N   1      35.189  17.040  10.149  0.00  0.00     0.033 A 
HETATM    7  C   UNK N   1      34.039  14.954  10.485  0.00  0.00     0.061 A 
HETATM    8  C   UNK N   1      34.351  17.292   9.044  0.00  0.00     0.017 A 
HETATM    9  C   UNK N   1      33.354  16.354   8.661  0.00  0.00     0.009 A 
HETATM   10  C   UNK N   1      33.188  15.165   9.407  0.00  0.00     0.047 A 
HETATM   11  N   UNK N   1      34.154  13.845  11.231  0.00  0.00    -0.339 N 
HETATM   12  H   UNK N   1      33.598  13.035  11.199  0.00  0.00     0.167 HD
BRANCH   9  13
HETATM   13  C   UNK N   1      32.536  16.582   7.449  0.00  0.00     0.102 C 
HETATM   14  N   UNK N   1      32.968  17.334   6.505  0.00  0.00    -0.385 N 
HETATM   15  H   UNK N   1      32.425  17.473   5.696  0.00  0.00     0.157 HD
HETATM   16  H   UNK N   1      33.845  17.774   6.589  0.00  0.00     0.157 HD
BRANCH  13  17
HETATM   17  N   UNK N   1      31.309  15.898   7.281  0.00  0.00    -0.385 N 
HETATM   18  H   UNK N   1      30.711  15.760   8.052  0.00  0.00     0.157 HD
HETATM   19  H   UNK N   1      31.052  15.558   6.394  0.00  0.00     0.157 HD
ENDBRANCH  13  17
ENDBRANCH   9  13
ENDBRANCH   1   2
BRANCH   1  20
HETATM   20  C   UNK N   1      35.376  12.560  13.956  0.00  0.00     0.154 A 
HETATM   21  N   UNK N   1      35.357  11.250  14.333  0.00  0.00    -0.339 N 
HETATM   22  C   UNK N   1      35.229  11.295  15.668  0.00  0.00     0.060 A 
ATOM     23  HN  UNK N   1      35.424  10.425  13.738  1.00  0.00     0.167 HD
HETATM   24  C   UNK N   1      35.281  10.236  16.569  0.00  0.00     0.033 A 
HETATM   25  C   UNK N   1      35.176  12.588  16.078  0.00  0.00     0.061 A 
HETATM   26  C   UNK N   1      35.308  10.552  17.943  0.00  0.00     0.017 A 
HETATM   27  C   UNK N   1      35.276  11.906  18.376  0.00  0.00     0.009 A 
HETATM   28  C   UNK N   1      35.192  12.942  17.422  0.00  0.00     0.047 A 
HETATM   29  N   UNK N   1      35.264  13.403  15.019  0.00  0.00    -0.339 N 
HETATM   30  H   UNK N   1      35.251  14.388  15.012  0.00  0.00     0.167 HD
BRANCH  27  31
HETATM   31  C   UNK N   1      35.409  12.241  19.811  0.00  0.00     0.102 C 
HETATM   32  N   UNK N   1      34.836  13.285  20.289  0.00  0.00    -0.385 N 
HETATM   33  H   UNK N   1      34.892  13.480  21.253  0.00  0.00     0.157 HD
ATOM     34  HN  UNK N   1      34.321  13.912  19.671  1.00  0.00     0.157 HD
BRANCH  31  35
HETATM   35  N   UNK N   1      36.074  11.353  20.689  0.00  0.00    -0.385 N 
HETATM   36  H   UNK N   1      36.682  10.668  20.329  0.00  0.00     0.157 HD
HETATM   37  H   UNK N   1      35.929  11.422  21.660  0.00  0.00     0.157 HD
ENDBRANCH  31  35
ENDBRANCH  27  31
ENDBRANCH   1  20
BRANCH   1  38
HETATM   38  O   UNK N   1      37.232  13.467  12.950  0.00  0.00    -0.353 OA
HETATM   39  H   UNK N   1      37.644  14.267  12.686  0.00  0.00     0.214 HD
ENDBRANCH   1  38
BRANCH   1  40
HETATM   40  O   UNK N   1      36.002  11.951  11.832  0.00  0.00    -0.353 OA
HETATM   41  H   UNK N   1      36.453  11.801  11.025  0.00  0.00     0.214 HD
ENDBRANCH   1  40
TORSDOF 8
ENDMDL
MODEL 5
REMARK VINA RESULT:      -7.6      4.351     11.321
REMARK  8 active torsions:
REMARK  status: ('A' for Active; 'I' for Inactive)
REMARK    1  A    between atoms: C_13  and  C_7 
REMARK    2  A    between atoms: C_14  and  C_8 
REMARK    3  A    between atoms: N_19  and  C_13 
REMARK    4  A    between atoms: N_22  and  C_14 
REMARK    5  A    between atoms: C_17  and  C_15 
REMARK    6  A    between atoms: C_17  and  C_16 
REMARK    7  A    between atoms: O_29  and  C_17 
REMARK    8  A    between atoms: O_30  and  C_17 
ROOT
HETATM    1  C   UNK N   1      34.089  17.758   7.867  0.00  0.00     0.282 C 
ENDROOT
BRANCH   1   2
HETATM    2  C   UNK N   1      32.632  17.481   7.969  0.00  0.00     0.154 A 
HETATM    3  N   UNK N   1      31.884  17.937   9.014  0.00  0.00    -0.339 N 
HETATM    4  C   UNK N   1      30.630  17.942   8.540  0.00  0.00     0.060 A 
ATOM      5  HN  UNK N   1      32.204  18.211   9.944  1.00  0.00     0.167 HD
HETATM    6  C   UNK N   1      29.482  18.425   9.163  0.00  0.00     0.033 A 
HETATM    7  C   UNK N   1      30.624  17.508   7.254  0.00  0.00     0.061 A 
HETATM    8  C   UNK N   1      28.300  18.473   8.397  0.00  0.00     0.017 A 
HETATM    9  C   UNK N   1      28.294  18.038   7.044  0.00  0.00     0.009 A 
HETATM   10  C   UNK N   1      29.480  17.534   6.466  0.00  0.00     0.047 A 
HETATM   11  N   UNK N   1      31.875  17.212   6.871  0.00  0.00    -0.339 N 
HETATM   12  H   UNK N   1      32.176  16.877   5.996  0.00  0.00     0.167 HD
BRANCH   9  13
HETATM   13  C   UNK N   1      27.073  18.172   6.218  0.00  0.00     0.102 C 
HETATM   14  N   UNK N   1      26.412  17.132   5.861  0.00  0.00    -0.385 N 
HETATM   15  H   UNK N   1      25.595  17.228   5.322  0.00  0.00     0.157 HD
HETATM   16  H   UNK N   1      26.723  16.236   6.126  0.00  0.00     0.157 HD
BRANCH  13  17
HETATM   17  N   UNK N   1      26.572  19.454   5.894  0.00  0.00    -0.385 N 
HETATM   18  H   UNK N   1      25.600  19.607   5.843  0.00  0.00     0.157 HD
HETATM   19  H   UNK N   1      27.196  20.196   5.718  0.00  0.00     0.157 HD
ENDBRANCH  13  17
ENDBRANCH   9  13
ENDBRANCH   1   2
BRANCH   1  20
HETATM   20  C   UNK N   1      34.885  16.845   8.729  0.00  0.00     0.154 A 
HETATM   21  N   UNK N   1      35.197  17.159  10.018  0.00  0.00    -0.339 N 
HETATM   22  C   UNK N   1      35.420  15.970  10.600  0.00  0.00     0.060 A 
ATOM     23  HN  UNK N   1      35.250  18.085  10.444  1.00  0.00     0.167 HD
HETATM   24  C   UNK N   1      35.655  15.707  11.947  0.00  0.00     0.033 A 
HETATM   25  C   UNK N   1      35.245  14.978   9.692  0.00  0.00     0.061 A 
HETATM   26  C   UNK N   1      35.676  14.357  12.350  0.00  0.00     0.017 A 
HETATM   27  C   UNK N   1      35.470  13.314  11.406  0.00  0.00     0.009 A 
HETATM   28  C   UNK N   1      35.266  13.634  10.046  0.00  0.00     0.047 A 
HETATM   29  N   UNK N   1      34.910  15.502   8.506  0.00  0.00    -0.339 N 
HETATM   30  H   UNK N   1      34.724  15.025   7.665  0.00  0.00     0.167 HD
BRANCH  27  31
HETATM   31  C   UNK N   1      35.388  11.904  11.846  0.00  0.00     0.102 C 
HETATM   32  N   UNK N   1      36.425  11.309  12.311  0.00  0.00    -0.385 N 
HETATM   33  H   UNK N   1      36.355  10.384  12.643  0.00  0.00     0.157 HD
ATOM     34  HN  UNK N   1      37.322  11.793  12.338  1.00  0.00     0.157 HD
BRANCH  31  35
HETATM   35  N   UNK N   1      34.141  11.237  11.864  0.00  0.00    -0.385 N 
HETATM   36  H   UNK N   1      33.324  11.727  12.112  0.00  0.00     0.157 HD
HETATM   37  H   UNK N   1      34.090  10.283  11.628  0.00  0.00     0.157 HD
ENDBRANCH  31  35
ENDBRANCH  27  31
ENDBRANCH   1  20
BRANCH   1  38
HETATM   38  O   UNK N   1      34.307  19.023   8.282  0.00  0.00    -0.353 OA
HETATM   39  H   UNK N   1      33.878  19.819   8.032  0.00  0.00     0.214 HD
ENDBRANCH   1  38
BRANCH   1  40
HETATM   40  O   UNK N   1      34.463  17.554   6.585  0.00  0.00    -0.353 OA
HETATM   41  H   UNK N   1      34.301  16.847   5.992  0.00  0.00     0.214 HD
ENDBRANCH   1  40
TORSDOF 8
ENDMDL
MODEL 6
REMARK VINA RESULT:      -7.6      4.334      7.484
REMARK  8 active torsions:
REMARK  status: ('A' for Active; 'I' for Inactive)
REMARK    1  A    between atoms: C_13  and  C_7 
REMARK    2  A    between atoms: C_14  and  C_8 
REMARK    3  A    between atoms: N_19  and  C_13 
REMARK    4  A    between atoms: N_22  and  C_14 
REMARK    5  A    between atoms: C_17  and  C_15 
REMARK    6  A    between atoms: C_17  and  C_16 
REMARK    7  A    between atoms: O_29  and  C_17 
REMARK    8  A    between atoms: O_30  and  C_17 
ROOT
HETATM    1  C   UNK N   1      34.049  17.709   7.891  0.00  0.00     0.282 C 
ENDROOT
BRANCH   1   2
HETATM    2  C   UNK N   1      34.832  16.794   8.763  0.00  0.00     0.154 A 
HETATM    3  N   UNK N   1      35.208  17.148  10.025  0.00  0.00    -0.339 N 
HETATM    4  C   UNK N   1      35.423  15.977  10.642  0.00  0.00     0.060 A 
ATOM      5  HN  UNK N   1      35.305  18.088  10.411  1.00  0.00     0.167 HD
HETATM    6  C   UNK N   1      35.721  15.761  11.984  0.00  0.00     0.033 A 
HETATM    7  C   UNK N   1      35.179  14.955   9.783  0.00  0.00     0.061 A 
HETATM    8  C   UNK N   1      35.739  14.426  12.438  0.00  0.00     0.017 A 
HETATM    9  C   UNK N   1      35.467  13.353  11.546  0.00  0.00     0.009 A 
HETATM   10  C   UNK N   1      35.193  13.626  10.187  0.00  0.00     0.047 A 
HETATM   11  N   UNK N   1      34.805  15.444   8.592  0.00  0.00    -0.339 N 
HETATM   12  H   UNK N   1      34.566  14.942   7.780  0.00  0.00     0.167 HD
BRANCH   9  13
HETATM   13  C   UNK N   1      35.401  11.961  12.045  0.00  0.00     0.102 C 
HETATM   14  N   UNK N   1      36.391  11.452  12.682  0.00  0.00    -0.385 N 
HETATM   15  H   UNK N   1      36.338  10.530  13.021  0.00  0.00     0.157 HD
HETATM   16  H   UNK N   1      37.206  11.984  12.831  0.00  0.00     0.157 HD
BRANCH  13  17
HETATM   17  N   UNK N   1      34.210  11.212  11.905  0.00  0.00    -0.385 N 
HETATM   18  H   UNK N   1      33.829  11.054  11.010  0.00  0.00     0.157 HD
HETATM   19  H   UNK N   1      33.761  10.848  12.702  0.00  0.00     0.157 HD
ENDBRANCH  13  17
ENDBRANCH   9  13
ENDBRANCH   1   2
BRANCH   1  20
HETATM   20  C   UNK N   1      32.589  17.443   7.986  0.00  0.00     0.154 A 
HETATM   21  N   UNK N   1      31.846  17.863   9.050  0.00  0.00    -0.339 N 
HETATM   22  C   UNK N   1      30.595  17.928   8.571  0.00  0.00     0.060 A 
ATOM     23  HN  UNK N   1      32.168  18.080   9.994  1.00  0.00     0.167 HD
HETATM   24  C   UNK N   1      29.459  18.420   9.207  0.00  0.00     0.033 A 
HETATM   25  C   UNK N   1      30.587  17.562   7.264  0.00  0.00     0.061 A 
HETATM   26  C   UNK N   1      28.289  18.558   8.433  0.00  0.00     0.017 A 
HETATM   27  C   UNK N   1      28.283  18.197   7.057  0.00  0.00     0.009 A 
HETATM   28  C   UNK N   1      29.453  17.673   6.468  0.00  0.00     0.047 A 
HETATM   29  N   UNK N   1      31.829  17.249   6.873  0.00  0.00    -0.339 N 
HETATM   30  H   UNK N   1      32.126  16.949   5.983  0.00  0.00     0.167 HD
BRANCH  27  31
HETATM   31  C   UNK N   1      27.087  18.438   6.220  0.00  0.00     0.102 C 
HETATM   32  N   UNK N   1      26.442  17.452   5.711  0.00  0.00    -0.385 N 
HETATM   33  H   UNK N   1      25.622  17.616   5.191  0.00  0.00     0.157 HD
ATOM     34  HN  UNK N   1      26.778  16.499   5.846  1.00  0.00     0.157 HD
BRANCH  31  35
HETATM   35  N   UNK N   1      26.579  19.749   6.069  0.00  0.00    -0.385 N 
HETATM   36  H   UNK N   1      27.171  20.476   5.771  0.00  0.00     0.157 HD
HETATM   37  H   UNK N   1      25.632  19.934   6.262  0.00  0.00     0.157 HD
ENDBRANCH  31  35
ENDBRANCH  27  31
ENDBRANCH   1  20
BRANCH   1  38
HETATM   38  O   UNK N   1      34.430  17.502   6.613  0.00  0.00    -0.353 OA
HETATM   39  H   UNK N   1      34.188  17.964   5.833  0.00  0.00     0.214 HD
ENDBRANCH   1  38
BRANCH   1  40
HETATM   40  O   UNK N   1      34.271  18.974   8.308  0.00  0.00    -0.353 OA
HETATM   41  H   UNK N   1      33.917  19.795   8.028  0.00  0.00     0.214 HD
ENDBRANCH   1  40
TORSDOF 8
ENDMDL
MODEL 7
REMARK VINA RESULT:      -7.6      7.123     11.460
REMARK  8 active torsions:
REMARK  status: ('A' for Active; 'I' for Inactive)
REMARK    1  A    between atoms: C_13  and  C_7 
REMARK    2  A    between atoms: C_14  and  C_8 
REMARK    3  A    between atoms: N_19  and  C_13 
REMARK    4  A    between atoms: N_22  and  C_14 
REMARK    5  A    between atoms: C_17  and  C_15 
REMARK    6  A    between atoms: C_17  and  C_16 
REMARK    7  A    between atoms: O_29  and  C_17 
REMARK    8  A    between atoms: O_30  and  C_17 
ROOT
HETATM    1  C   UNK N   1      35.693  14.072  11.379  0.00  0.00     0.282 C 
ENDROOT
BRANCH   1   2
HETATM    2  C   UNK N   1      35.119  13.501  12.626  0.00  0.00     0.154 A 
HETATM    3  N   UNK N   1      34.465  12.305  12.636  0.00  0.00    -0.339 N 
HETATM    4  C   UNK N   1      34.543  11.900  13.912  0.00  0.00     0.060 A 
ATOM      5  HN  UNK N   1      34.017  11.828  11.853  1.00  0.00     0.167 HD
HETATM    6  C   UNK N   1      34.130  10.685  14.450  0.00  0.00     0.033 A 
HETATM    7  C   UNK N   1      35.225  12.818  14.643  0.00  0.00     0.061 A 
HETATM    8  C   UNK N   1      34.469  10.421  15.792  0.00  0.00     0.017 A 
HETATM    9  C   UNK N   1      35.199  11.371  16.556  0.00  0.00     0.009 A 
HETATM   10  C   UNK N   1      35.574  12.600  15.970  0.00  0.00     0.047 A 
HETATM   11  N   UNK N   1      35.600  13.836  13.855  0.00  0.00    -0.339 N 
HETATM   12  H   UNK N   1      36.105  14.642  14.107  0.00  0.00     0.167 HD
BRANCH   9  13
HETATM   13  C   UNK N   1      35.628  11.054  17.937  0.00  0.00     0.102 C 
HETATM   14  N   UNK N   1      36.365  10.030  18.169  0.00  0.00    -0.385 N 
HETATM   15  H   UNK N   1      36.656   9.831  19.088  0.00  0.00     0.157 HD
HETATM   16  H   UNK N   1      36.640   9.444  17.428  0.00  0.00     0.157 HD
BRANCH  13  17
HETATM   17  N   UNK N   1      35.303  11.928  19.000  0.00  0.00    -0.385 N 
HETATM   18  H   UNK N   1      35.757  11.839  19.869  0.00  0.00     0.157 HD
HETATM   19  H   UNK N   1      34.623  12.628  18.871  0.00  0.00     0.157 HD
ENDBRANCH  13  17
ENDBRANCH   9  13
ENDBRANCH   1   2
BRANCH   1  20
HETATM   20  C   UNK N   1      34.840  15.158  10.828  0.00  0.00     0.154 A 
HETATM   21  N   UNK N   1      35.372  16.271  10.247  0.00  0.00    -0.339 N 
HETATM   22  C   UNK N   1      34.395  16.721   9.445  0.00  0.00     0.060 A 
ATOM     23  HN  UNK N   1      36.300  16.670  10.390  1.00  0.00     0.167 HD
HETATM   24  C   UNK N   1      34.455  17.764   8.526  0.00  0.00     0.033 A 
HETATM   25  C   UNK N   1      33.315  15.904   9.539  0.00  0.00     0.061 A 
HETATM   26  C   UNK N   1      33.355  17.932   7.661  0.00  0.00     0.017 A 
HETATM   27  C   UNK N   1      32.231  17.064   7.741  0.00  0.00     0.009 A 
HETATM   28  C   UNK N   1      32.207  16.040   8.712  0.00  0.00     0.047 A 
HETATM   29  N   UNK N   1      33.569  14.915  10.405  0.00  0.00    -0.339 N 
HETATM   30  H   UNK N   1      32.972  14.179  10.674  0.00  0.00     0.167 HD
BRANCH  27  31
HETATM   31  C   UNK N   1      31.123  17.175   6.766  0.00  0.00     0.102 C 
HETATM   32  N   UNK N   1      31.367  17.188   5.507  0.00  0.00    -0.385 N 
HETATM   33  H   UNK N   1      30.624  17.218   4.861  0.00  0.00     0.157 HD
ATOM     34  HN  UNK N   1      32.331  17.166   5.173  1.00  0.00     0.157 HD
BRANCH  31  35
HETATM   35  N   UNK N   1      29.781  17.152   7.211  0.00  0.00    -0.385 N 
HETATM   36  H   UNK N   1      29.084  16.737   6.654  0.00  0.00     0.157 HD
HETATM   37  H   UNK N   1      29.544  17.550   8.080  0.00  0.00     0.157 HD
ENDBRANCH  31  35
ENDBRANCH  27  31
ENDBRANCH   1  20
BRANCH   1  38
HETATM   38  O   UNK N   1      35.766  13.088  10.459  0.00  0.00    -0.353 OA
HETATM   39  H   UNK N   1      35.205  12.347  10.327  0.00  0.00     0.214 HD
ENDBRANCH   1  38
BRANCH   1  40
HETATM   40  O   UNK N   1      36.899  14.601  11.679  0.00  0.00    -0.353 OA
HETATM   41  H   UNK N   1      37.262  15.452  11.534  0.00  0.00     0.214 HD
ENDBRANCH   1  40
TORSDOF 8
ENDMDL
MODEL 8
REMARK VINA RESULT:      -7.4      1.614      2.507
REMARK  8 active torsions:
REMARK  status: ('A' for Active; 'I' for Inactive)
REMARK    1  A    between atoms: C_13  and  C_7 
REMARK    2  A    between atoms: C_14  and  C_8 
REMARK    3  A    between atoms: N_19  and  C_13 
REMARK    4  A    between atoms: N_22  and  C_14 
REMARK    5  A    between atoms: C_17  and  C_15 
REMARK    6  A    between atoms: C_17  and  C_16 
REMARK    7  A    between atoms: O_29  and  C_17 
REMARK    8  A    between atoms: O_30  and  C_17 
ROOT
HETATM    1  C   UNK N   1      26.204  17.002   5.456  0.00  0.00     0.282 C 
ENDROOT
BRANCH   1   2
HETATM    2  C   UNK N   1      27.440  17.611   6.012  0.00  0.00     0.154 A 
HETATM    3  N   UNK N   1      27.431  18.331   7.169  0.00  0.00    -0.339 N 
HETATM    4  C   UNK N   1      28.701  18.280   7.596  0.00  0.00     0.060 A 
ATOM      5  HN  UNK N   1      26.640  18.802   7.610  1.00  0.00     0.167 HD
HETATM    6  C   UNK N   1      29.221  18.761   8.795  0.00  0.00     0.033 A 
HETATM    7  C   UNK N   1      29.447  17.551   6.728  0.00  0.00     0.061 A 
HETATM    8  C   UNK N   1      30.560  18.443   9.096  0.00  0.00     0.017 A 
HETATM    9  C   UNK N   1      31.340  17.664   8.198  0.00  0.00     0.009 A 
HETATM   10  C   UNK N   1      30.772  17.220   6.983  0.00  0.00     0.047 A 
HETATM   11  N   UNK N   1      28.675  17.118   5.721  0.00  0.00    -0.339 N 
HETATM   12  H   UNK N   1      28.940  16.569   4.948  0.00  0.00     0.167 HD
BRANCH   9  13
HETATM   13  C   UNK N   1      32.717  17.259   8.558  0.00  0.00     0.102 C 
HETATM   14  N   UNK N   1      32.921  16.210   9.267  0.00  0.00    -0.385 N 
HETATM   15  H   UNK N   1      33.840  15.939   9.493  0.00  0.00     0.157 HD
HETATM   16  H   UNK N   1      32.159  15.674   9.584  0.00  0.00     0.157 HD
BRANCH  13  17
HETATM   17  N   UNK N   1      33.824  17.974   8.046  0.00  0.00    -0.385 N 
HETATM   18  H   UNK N   1      34.724  17.572   8.064  0.00  0.00     0.157 HD
HETATM   19  H   UNK N   1      33.697  18.876   7.671  0.00  0.00     0.157 HD
ENDBRANCH  13  17
ENDBRANCH   9  13
ENDBRANCH   1   2
BRANCH   1  20
HETATM   20  C   UNK N   1      25.177  18.031   5.142  0.00  0.00     0.154 A 
HETATM   21  N   UNK N   1      25.483  19.174   4.465  0.00  0.00    -0.339 N 
HETATM   22  C   UNK N   1      24.315  19.560   3.929  0.00  0.00     0.060 A 
ATOM     23  HN  UNK N   1      26.391  19.631   4.383  1.00  0.00     0.167 HD
HETATM   24  C   UNK N   1      24.086  20.603   3.037  0.00  0.00     0.033 A 
HETATM   25  C   UNK N   1      23.342  18.678   4.271  0.00  0.00     0.061 A 
HETATM   26  C   UNK N   1      22.800  20.700   2.467  0.00  0.00     0.017 A 
HETATM   27  C   UNK N   1      21.784  19.764   2.806  0.00  0.00     0.009 A 
HETATM   28  C   UNK N   1      22.060  18.742   3.740  0.00  0.00     0.047 A 
HETATM   29  N   UNK N   1      23.859  17.708   5.037  0.00  0.00    -0.339 N 
HETATM   30  H   UNK N   1      23.391  16.937   5.432  0.00  0.00     0.167 HD
BRANCH  27  31
HETATM   31  C   UNK N   1      20.468  19.803   2.130  0.00  0.00     0.102 C 
HETATM   32  N   UNK N   1      19.454  19.218   2.654  0.00  0.00    -0.385 N 
HETATM   33  H   UNK N   1      18.570  19.283   2.222  0.00  0.00     0.157 HD
ATOM     34  HN  UNK N   1      19.561  18.686   3.517  1.00  0.00     0.157 HD
BRANCH  31  35
HETATM   35  N   UNK N   1      20.293  20.580   0.962  0.00  0.00    -0.385 N 
HETATM   36  H   UNK N   1      20.859  21.370   0.806  0.00  0.00     0.157 HD
HETATM   37  H   UNK N   1      19.604  20.331   0.304  0.00  0.00     0.157 HD
ENDBRANCH  31  35
ENDBRANCH  27  31
ENDBRANCH   1  20
BRANCH   1  38
HETATM   38  O   UNK N   1      25.691  16.167   6.383  0.00  0.00    -0.353 OA
HETATM   39  H   UNK N   1      25.102  16.345   7.091  0.00  0.00     0.214 HD
ENDBRANCH   1  38
BRANCH   1  40
HETATM   40  O   UNK N   1      26.529  16.374   4.305  0.00  0.00    -0.353 OA
HETATM   41  H   UNK N   1      27.027  15.599   4.136  0.00  0.00     0.214 HD
ENDBRANCH   1  40
TORSDOF 8
ENDMDL
MODEL 9
REMARK VINA RESULT:      -7.4      1.613      9.448
REMARK  8 active torsions:
REMARK  status: ('A' for Active; 'I' for Inactive)
REMARK    1  A    between atoms: C_13  and  C_7 
REMARK    2  A    between atoms: C_14  and  C_8 
REMARK    3  A    between atoms: N_19  and  C_13 
REMARK    4  A    between atoms: N_22  and  C_14 
REMARK    5  A    between atoms: C_17  and  C_15 
REMARK    6  A    between atoms: C_17  and  C_16 
REMARK    7  A    between atoms: O_29  and  C_17 
REMARK    8  A    between atoms: O_30  and  C_17 
ROOT
HETATM    1  C   UNK N   1      26.186  16.979   5.478  0.00  0.00     0.282 C 
ENDROOT
BRANCH   1   2
HETATM    2  C   UNK N   1      25.157  17.995   5.137  0.00  0.00     0.154 A 
HETATM    3  N   UNK N   1      25.469  19.138   4.462  0.00  0.00    -0.339 N 
HETATM    4  C   UNK N   1      24.304  19.526   3.921  0.00  0.00     0.060 A 
ATOM      5  HN  UNK N   1      26.378  19.594   4.386  1.00  0.00     0.167 HD
HETATM    6  C   UNK N   1      24.080  20.579   3.039  0.00  0.00     0.033 A 
HETATM    7  C   UNK N   1      23.328  18.645   4.255  0.00  0.00     0.061 A 
HETATM    8  C   UNK N   1      22.794  20.690   2.475  0.00  0.00     0.017 A 
HETATM    9  C   UNK N   1      21.773  19.759   2.807  0.00  0.00     0.009 A 
HETATM   10  C   UNK N   1      22.045  18.722   3.727  0.00  0.00     0.047 A 
HETATM   11  N   UNK N   1      23.840  17.670   5.021  0.00  0.00    -0.339 N 
HETATM   12  H   UNK N   1      23.371  16.898   5.410  0.00  0.00     0.167 HD
BRANCH   9  13
HETATM   13  C   UNK N   1      20.450  19.828   2.147  0.00  0.00     0.102 C 
HETATM   14  N   UNK N   1      20.292  20.523   1.081  0.00  0.00    -0.385 N 
HETATM   15  H   UNK N   1      19.413  20.556   0.639  0.00  0.00     0.157 HD
HETATM   16  H   UNK N   1      21.050  21.025   0.703  0.00  0.00     0.157 HD
BRANCH  13  17
HETATM   17  N   UNK N   1      19.372  19.053   2.634  0.00  0.00    -0.385 N 
HETATM   18  H   UNK N   1      19.412  18.070   2.594  0.00  0.00     0.157 HD
HETATM   19  H   UNK N   1      18.579  19.497   3.013  0.00  0.00     0.157 HD
ENDBRANCH  13  17
ENDBRANCH   9  13
ENDBRANCH   1   2
BRANCH   1  20
HETATM   20  C   UNK N   1      27.424  17.607   6.012  0.00  0.00     0.154 A 
HETATM   21  N   UNK N   1      27.431  18.309   7.180  0.00  0.00    -0.339 N 
HETATM   22  C   UNK N   1      28.708  18.255   7.587  0.00  0.00     0.060 A 
ATOM     23  HN  UNK N   1      26.646  18.770   7.640  1.00  0.00     0.167 HD
HETATM   24  C   UNK N   1      29.243  18.708   8.789  0.00  0.00     0.033 A 
HETATM   25  C   UNK N   1      29.442  17.543   6.695  0.00  0.00     0.061 A 
HETATM   26  C   UNK N   1      30.583  18.372   9.071  0.00  0.00     0.017 A 
HETATM   27  C   UNK N   1      31.349  17.606   8.149  0.00  0.00     0.009 A 
HETATM   28  C   UNK N   1      30.768  17.198   6.929  0.00  0.00     0.047 A 
HETATM   29  N   UNK N   1      28.657  17.126   5.693  0.00  0.00    -0.339 N 
HETATM   30  H   UNK N   1      28.913  16.593   4.906  0.00  0.00     0.167 HD
BRANCH  27  31
HETATM   31  C   UNK N   1      32.720  17.167   8.490  0.00  0.00     0.102 C 
HETATM   32  N   UNK N   1      33.736  17.818   8.056  0.00  0.00    -0.385 N 
HETATM   33  H   UNK N   1      34.645  17.546   8.321  0.00  0.00     0.157 HD
ATOM     34  HN  UNK N   1      33.603  18.617   7.436  1.00  0.00     0.157 HD
BRANCH  31  35
HETATM   35  N   UNK N   1      32.918  16.094   9.390  0.00  0.00    -0.385 N 
HETATM   36  H   UNK N   1      32.241  15.895  10.076  0.00  0.00     0.157 HD
HETATM   37  H   UNK N   1      33.733  15.546   9.330  0.00  0.00     0.157 HD
ENDBRANCH  31  35
ENDBRANCH  27  31
ENDBRANCH   1  20
BRANCH   1  38
HETATM   38  O   UNK N   1      26.508  16.310   4.350  0.00  0.00    -0.353 OA
HETATM   39  H   UNK N   1      26.165  16.400   3.482  0.00  0.00     0.214 HD
ENDBRANCH   1  38
BRANCH   1  40
HETATM   40  O   UNK N   1      25.679  16.175   6.438  0.00  0.00    -0.353 OA
HETATM   41  H   UNK N   1      25.655  16.255   7.370  0.00  0.00     0.214 HD
ENDBRANCH   1  40
TORSDOF 8
ENDMDL
