MODEL 1
REMARK VINA RESULT:      -5.9      0.000      0.000
REMARK  25 active torsions:
REMARK  status: ('A' for Active; 'I' for Inactive)
REMARK    1  A    between atoms: O_1  and  C_2 
REMARK    2  A    between atoms: C_2  and  C_4 
REMARK    3  A    between atoms: C_4  and  N_5 
REMARK    4  A    between atoms: N_5  and  C_6 
REMARK    5  A    between atoms: N_5  and  C_20 
REMARK    6  A    between atoms: C_6  and  C_7 
REMARK    7  A    between atoms: C_7  and  N_8 
REMARK    8  A    between atoms: N_8  and  C_9 
REMARK    9  A    between atoms: N_8  and  C_13 
REMARK   10  A    between atoms: C_9  and  C_10 
REMARK   11  A    between atoms: C_10  and  O_11 
REMARK   12  A    between atoms: C_13  and  C_14 
REMARK       I    between atoms: C_14  and  N_16 
REMARK   13  A    between atoms: N_16  and  C_17 
REMARK   14  A    between atoms: C_17  and  C_18 
REMARK   15  A    between atoms: C_18  and  S_19 
REMARK   16  A    between atoms: C_20  and  C_21 
REMARK   17  A    between atoms: C_21  and  N_22 
REMARK   18  A    between atoms: N_22  and  C_23 
REMARK   19  A    between atoms: N_22  and  C_27 
REMARK   20  A    between atoms: C_23  and  C_24 
REMARK   21  A    between atoms: C_24  and  O_25 
REMARK   22  A    between atoms: C_27  and  C_28 
REMARK       I    between atoms: C_28  and  N_30 
REMARK   23  A    between atoms: N_30  and  C_31 
REMARK   24  A    between atoms: C_31  and  C_32 
REMARK   25  A    between atoms: C_32  and  S_33 
ROOT
HETATM    1  N   UNK N   1      20.311  16.294   4.687  0.00  0.00     0.101 N 
ENDROOT
BRANCH   1   2
HETATM    2  C   UNK N   1      19.890  14.945   4.331  0.00  0.00     0.381 C 
BRANCH   2   3
HETATM    3  C   UNK N   1      18.519  14.669   4.861  0.00  0.00     0.169 C 
HETATM    4  O   UNK N   1      17.869  15.561   5.382  0.00  0.00    -0.649 OA
BRANCH   3   5
HETATM    5  O   UNK N   1      17.994  13.435   4.747  0.00  0.00    -0.775 OA
HETATM    6  H   UNK N   1      17.438  13.155   4.046  0.00  0.00     0.167 HD
ENDBRANCH   3   5
ENDBRANCH   2   3
ENDBRANCH   1   2
BRANCH   1   7
HETATM    7  C   UNK N   1      21.209  16.212   5.849  0.00  0.00     0.303 C 
BRANCH   7   8
HETATM    8  C   UNK N   1      20.867  17.215   6.963  0.00  0.00     0.303 C 
BRANCH   8   9
HETATM    9  N   UNK N   1      20.029  16.610   7.980  0.00  0.00     0.108 N 
BRANCH   9  10
HETATM   10  C   UNK N   1      19.370  17.690   8.709  0.00  0.00     0.382 C 
BRANCH  10  11
HETATM   11  C   UNK N   1      17.970  17.326   9.090  0.00  0.00     0.169 C 
HETATM   12  O   UNK N   1      17.536  16.213   8.843  0.00  0.00    -0.649 OA
BRANCH  11  13
HETATM   13  O   UNK N   1      17.173  18.248   9.658  0.00  0.00    -0.775 OA
HETATM   14  H   UNK N   1      16.808  18.247  10.521  0.00  0.00     0.167 HD
ENDBRANCH  11  13
ENDBRANCH  10  11
ENDBRANCH   9  10
BRANCH   9  15
HETATM   15  C   UNK N   1      20.933  15.997   8.940  0.00  0.00     0.375 C 
BRANCH  15  16
HETATM   16  C   UNK N   1      20.814  14.513   8.901  0.00  0.00     0.246 C 
HETATM   17  O   UNK N   1      19.797  13.975   9.311  0.00  0.00    -0.272 OA
HETATM   18  N   UNK N   1      21.852  13.776   8.438  0.00  0.00    -0.359 N 
HETATM   19  H   UNK N   1      22.650  14.242   8.099  0.00  0.00     0.162 HD
BRANCH  18  20
HETATM   20  C   UNK N   1      21.832  12.332   8.422  0.00  0.00     0.132 C 
BRANCH  20  21
HETATM   21  C   UNK N   1      23.042  11.780   9.159  0.00  0.00     0.090 C 
BRANCH  21  22
HETATM   22  S   UNK N   1      22.849  12.009  10.951  0.00  0.00    -0.181 SA
HETATM   23  H   UNK N   1      22.177  11.093  11.698  0.00  0.00     0.101 HD
ENDBRANCH  21  22
ENDBRANCH  20  21
ENDBRANCH  18  20
ENDBRANCH  15  16
ENDBRANCH   9  15
ENDBRANCH   8   9
ENDBRANCH   7   8
ENDBRANCH   1   7
BRANCH   1  24
HETATM   24  C   UNK N   1      21.006  16.857   3.535  0.00  0.00     0.303 C 
BRANCH  24  25
HETATM   25  C   UNK N   1      20.205  17.981   2.903  0.00  0.00     0.303 C 
BRANCH  25  26
HETATM   26  N   UNK N   1      21.014  19.132   2.488  0.00  0.00     0.108 N 
BRANCH  26  27
HETATM   27  C   UNK N   1      20.156  20.295   2.243  0.00  0.00     0.382 C 
BRANCH  27  28
HETATM   28  C   UNK N   1      20.589  20.996   0.990  0.00  0.00     0.169 C 
HETATM   29  O   UNK N   1      21.004  20.350   0.043  0.00  0.00    -0.649 OA
BRANCH  28  30
HETATM   30  O   UNK N   1      20.522  22.338   0.905  0.00  0.00    -0.775 OA
HETATM   31  H   UNK N   1      20.822  22.902   0.220  0.00  0.00     0.167 HD
ENDBRANCH  28  30
ENDBRANCH  27  28
ENDBRANCH  26  27
BRANCH  26  32
HETATM   32  C   UNK N   1      21.817  19.391   3.679  0.00  0.00     0.375 C 
BRANCH  32  33
HETATM   33  C   UNK N   1      23.238  19.812   3.447  0.00  0.00     0.246 C 
HETATM   34  O   UNK N   1      23.513  20.938   3.045  0.00  0.00    -0.272 OA
HETATM   35  N   UNK N   1      24.213  18.919   3.718  0.00  0.00    -0.359 N 
HETATM   36  H   UNK N   1      23.951  18.021   4.026  0.00  0.00     0.162 HD
BRANCH  35  37
HETATM   37  C   UNK N   1      25.614  19.210   3.580  0.00  0.00     0.132 C 
BRANCH  37  38
HETATM   38  C   UNK N   1      26.251  19.119   4.951  0.00  0.00     0.090 C 
BRANCH  38  39
HETATM   39  S   UNK N   1      27.676  20.235   5.051  0.00  0.00    -0.181 SA
HETATM   40  H   UNK N   1      27.638  21.445   4.431  0.00  0.00     0.101 HD
ENDBRANCH  38  39
ENDBRANCH  37  38
ENDBRANCH  35  37
ENDBRANCH  32  33
ENDBRANCH  26  32
ENDBRANCH  25  26
ENDBRANCH  24  25
ENDBRANCH   1  24
TORSDOF 25
ENDMDL
MODEL 2
REMARK VINA RESULT:      -5.7      9.952     13.867
REMARK  25 active torsions:
REMARK  status: ('A' for Active; 'I' for Inactive)
REMARK    1  A    between atoms: O_1  and  C_2 
REMARK    2  A    between atoms: C_2  and  C_4 
REMARK    3  A    between atoms: C_4  and  N_5 
REMARK    4  A    between atoms: N_5  and  C_6 
REMARK    5  A    between atoms: N_5  and  C_20 
REMARK    6  A    between atoms: C_6  and  C_7 
REMARK    7  A    between atoms: C_7  and  N_8 
REMARK    8  A    between atoms: N_8  and  C_9 
REMARK    9  A    between atoms: N_8  and  C_13 
REMARK   10  A    between atoms: C_9  and  C_10 
REMARK   11  A    between atoms: C_10  and  O_11 
REMARK   12  A    between atoms: C_13  and  C_14 
REMARK       I    between atoms: C_14  and  N_16 
REMARK   13  A    between atoms: N_16  and  C_17 
REMARK   14  A    between atoms: C_17  and  C_18 
REMARK   15  A    between atoms: C_18  and  S_19 
REMARK   16  A    between atoms: C_20  and  C_21 
REMARK   17  A    between atoms: C_21  and  N_22 
REMARK   18  A    between atoms: N_22  and  C_23 
REMARK   19  A    between atoms: N_22  and  C_27 
REMARK   20  A    between atoms: C_23  and  C_24 
REMARK   21  A    between atoms: C_24  and  O_25 
REMARK   22  A    between atoms: C_27  and  C_28 
REMARK       I    between atoms: C_28  and  N_30 
REMARK   23  A    between atoms: N_30  and  C_31 
REMARK   24  A    between atoms: C_31  and  C_32 
REMARK   25  A    between atoms: C_32  and  S_33 
ROOT
HETATM    1  N   UNK N   1      33.082  16.155   7.632  0.00  0.00     0.101 N 
ENDROOT
BRANCH   1   2
HETATM    2  C   UNK N   1      33.592  17.479   7.300  0.00  0.00     0.381 C 
BRANCH   2   3
HETATM    3  C   UNK N   1      34.336  18.059   8.461  0.00  0.00     0.169 C 
HETATM    4  O   UNK N   1      34.996  19.077   8.323  0.00  0.00    -0.649 OA
BRANCH   3   5
HETATM    5  O   UNK N   1      34.261  17.467   9.667  0.00  0.00    -0.775 OA
HETATM    6  H   UNK N   1      33.466  17.323  10.142  0.00  0.00     0.167 HD
ENDBRANCH   3   5
ENDBRANCH   2   3
ENDBRANCH   1   2
BRANCH   1   7
HETATM    7  C   UNK N   1      31.615  16.182   7.533  0.00  0.00     0.303 C 
BRANCH   7   8
HETATM    8  C   UNK N   1      31.080  17.312   6.639  0.00  0.00     0.303 C 
BRANCH   8   9
HETATM    9  N   UNK N   1      29.831  17.845   7.150  0.00  0.00     0.108 N 
BRANCH   9  10
HETATM   10  C   UNK N   1      29.561  17.189   8.426  0.00  0.00     0.382 C 
BRANCH  10  11
HETATM   11  C   UNK N   1      28.881  18.111   9.388  0.00  0.00     0.169 C 
HETATM   12  O   UNK N   1      29.537  18.750  10.194  0.00  0.00    -0.649 OA
BRANCH  11  13
HETATM   13  O   UNK N   1      27.539  18.194   9.397  0.00  0.00    -0.775 OA
HETATM   14  H   UNK N   1      26.921  17.562   9.708  0.00  0.00     0.167 HD
ENDBRANCH  11  13
ENDBRANCH  10  11
ENDBRANCH   9  10
BRANCH   9  15
HETATM   15  C   UNK N   1      28.790  17.374   6.251  0.00  0.00     0.375 C 
BRANCH  15  16
HETATM   16  C   UNK N   1      27.987  18.515   5.731  0.00  0.00     0.246 C 
HETATM   17  O   UNK N   1      27.546  19.349   6.507  0.00  0.00    -0.272 OA
HETATM   18  N   UNK N   1      27.732  18.597   4.403  0.00  0.00    -0.359 N 
HETATM   19  H   UNK N   1      28.117  17.919   3.804  0.00  0.00     0.162 HD
BRANCH  18  20
HETATM   20  C   UNK N   1      26.915  19.643   3.834  0.00  0.00     0.132 C 
BRANCH  20  21
HETATM   21  C   UNK N   1      25.556  19.091   3.432  0.00  0.00     0.090 C 
BRANCH  21  22
HETATM   22  S   UNK N   1      24.424  20.447   3.006  0.00  0.00    -0.181 SA
HETATM   23  H   UNK N   1      24.533  21.092   1.814  0.00  0.00     0.101 HD
ENDBRANCH  21  22
ENDBRANCH  20  21
ENDBRANCH  18  20
ENDBRANCH  15  16
ENDBRANCH   9  15
ENDBRANCH   8   9
ENDBRANCH   7   8
ENDBRANCH   1   7
BRANCH   1  24
HETATM   24  C   UNK N   1      33.648  15.213   6.675  0.00  0.00     0.303 C 
BRANCH  24  25
HETATM   25  C   UNK N   1      34.994  14.691   7.144  0.00  0.00     0.303 C 
BRANCH  25  26
HETATM   26  N   UNK N   1      34.963  14.063   8.469  0.00  0.00     0.108 N 
BRANCH  26  27
HETATM   27  C   UNK N   1      34.777  12.614   8.341  0.00  0.00     0.382 C 
BRANCH  27  28
HETATM   28  C   UNK N   1      33.899  12.111   9.447  0.00  0.00     0.169 C 
HETATM   29  O   UNK N   1      34.397  11.685  10.474  0.00  0.00    -0.649 OA
BRANCH  28  30
HETATM   30  O   UNK N   1      32.559  12.127   9.310  0.00  0.00    -0.775 OA
HETATM   31  H   UNK N   1      32.045  12.090   8.527  0.00  0.00     0.167 HD
ENDBRANCH  28  30
ENDBRANCH  27  28
ENDBRANCH  26  27
BRANCH  26  32
HETATM   32  C   UNK N   1      36.314  14.315   8.963  0.00  0.00     0.375 C 
BRANCH  32  33
HETATM   33  C   UNK N   1      36.425  14.838  10.364  0.00  0.00     0.246 C 
HETATM   34  O   UNK N   1      36.536  16.038  10.591  0.00  0.00    -0.272 OA
HETATM   35  N   UNK N   1      36.372  13.947  11.376  0.00  0.00    -0.359 N 
HETATM   36  H   UNK N   1      36.296  12.991  11.152  0.00  0.00     0.162 HD
BRANCH  35  37
HETATM   37  C   UNK N   1      36.423  14.320  12.763  0.00  0.00     0.132 C 
BRANCH  37  38
HETATM   38  C   UNK N   1      35.464  13.429  13.526  0.00  0.00     0.090 C 
BRANCH  38  39
HETATM   39  S   UNK N   1      36.164  13.001  15.142  0.00  0.00    -0.181 SA
HETATM   40  H   UNK N   1      37.508  13.067  15.341  0.00  0.00     0.101 HD
ENDBRANCH  38  39
ENDBRANCH  37  38
ENDBRANCH  35  37
ENDBRANCH  32  33
ENDBRANCH  26  32
ENDBRANCH  25  26
ENDBRANCH  24  25
ENDBRANCH   1  24
TORSDOF 25
ENDMDL
MODEL 3
REMARK VINA RESULT:      -5.6     11.382     14.287
REMARK  25 active torsions:
REMARK  status: ('A' for Active; 'I' for Inactive)
REMARK    1  A    between atoms: O_1  and  C_2 
REMARK    2  A    between atoms: C_2  and  C_4 
REMARK    3  A    between atoms: C_4  and  N_5 
REMARK    4  A    between atoms: N_5  and  C_6 
REMARK    5  A    between atoms: N_5  and  C_20 
REMARK    6  A    between atoms: C_6  and  C_7 
REMARK    7  A    between atoms: C_7  and  N_8 
REMARK    8  A    between atoms: N_8  and  C_9 
REMARK    9  A    between atoms: N_8  and  C_13 
REMARK   10  A    between atoms: C_9  and  C_10 
REMARK   11  A    between atoms: C_10  and  O_11 
REMARK   12  A    between atoms: C_13  and  C_14 
REMARK       I    between atoms: C_14  and  N_16 
REMARK   13  A    between atoms: N_16  and  C_17 
REMARK   14  A    between atoms: C_17  and  C_18 
REMARK   15  A    between atoms: C_18  and  S_19 
REMARK   16  A    between atoms: C_20  and  C_21 
REMARK   17  A    between atoms: C_21  and  N_22 
REMARK   18  A    between atoms: N_22  and  C_23 
REMARK   19  A    between atoms: N_22  and  C_27 
REMARK   20  A    between atoms: C_23  and  C_24 
REMARK   21  A    between atoms: C_24  and  O_25 
REMARK   22  A    between atoms: C_27  and  C_28 
REMARK       I    between atoms: C_28  and  N_30 
REMARK   23  A    between atoms: N_30  and  C_31 
REMARK   24  A    between atoms: C_31  and  C_32 
REMARK   25  A    between atoms: C_32  and  S_33 
ROOT
HETATM    1  N   UNK N   1      35.231  14.062   7.935  0.00  0.00     0.101 N 
ENDROOT
BRANCH   1   2
HETATM    2  C   UNK N   1      34.306  12.963   7.690  0.00  0.00     0.381 C 
BRANCH   2   3
HETATM    3  C   UNK N   1      33.562  12.618   8.941  0.00  0.00     0.169 C 
HETATM    4  O   UNK N   1      33.374  11.450   9.242  0.00  0.00    -0.649 OA
BRANCH   3   5
HETATM    5  O   UNK N   1      33.116  13.598   9.748  0.00  0.00    -0.775 OA
HETATM    6  H   UNK N   1      32.946  14.478   9.474  0.00  0.00     0.167 HD
ENDBRANCH   3   5
ENDBRANCH   2   3
ENDBRANCH   1   2
BRANCH   1   7
HETATM    7  C   UNK N   1      36.568  13.501   8.181  0.00  0.00     0.303 C 
BRANCH   7   8
HETATM    8  C   UNK N   1      37.264  14.089   9.419  0.00  0.00     0.303 C 
BRANCH   8   9
HETATM    9  N   UNK N   1      36.324  14.301  10.503  0.00  0.00     0.108 N 
BRANCH   9  10
HETATM   10  C   UNK N   1      36.519  15.661  10.997  0.00  0.00     0.382 C 
BRANCH  10  11
HETATM   11  C   UNK N   1      35.408  16.568  10.573  0.00  0.00     0.169 C 
HETATM   12  O   UNK N   1      35.634  17.741  10.324  0.00  0.00    -0.649 OA
BRANCH  11  13
HETATM   13  O   UNK N   1      34.148  16.100  10.518  0.00  0.00    -0.775 OA
HETATM   14  H   UNK N   1      33.793  15.339  10.933  0.00  0.00     0.167 HD
ENDBRANCH  11  13
ENDBRANCH  10  11
ENDBRANCH   9  10
BRANCH   9  15
HETATM   15  C   UNK N   1      36.753  13.435  11.589  0.00  0.00     0.375 C 
BRANCH  15  16
HETATM   16  C   UNK N   1      35.728  13.396  12.668  0.00  0.00     0.246 C 
HETATM   17  O   UNK N   1      34.554  13.597  12.397  0.00  0.00    -0.272 OA
HETATM   18  N   UNK N   1      36.117  13.168  13.945  0.00  0.00    -0.359 N 
HETATM   19  H   UNK N   1      37.067  12.992  14.127  0.00  0.00     0.162 HD
BRANCH  18  20
HETATM   20  C   UNK N   1      35.188  13.171  15.051  0.00  0.00     0.132 C 
BRANCH  20  21
HETATM   21  C   UNK N   1      34.779  11.749  15.400  0.00  0.00     0.090 C 
BRANCH  21  22
HETATM   22  S   UNK N   1      35.688  11.170  16.863  0.00  0.00    -0.181 SA
HETATM   23  H   UNK N   1      37.025  11.390  16.979  0.00  0.00     0.101 HD
ENDBRANCH  21  22
ENDBRANCH  20  21
ENDBRANCH  18  20
ENDBRANCH  15  16
ENDBRANCH   9  15
ENDBRANCH   8   9
ENDBRANCH   7   8
ENDBRANCH   1   7
BRANCH   1  24
HETATM   24  C   UNK N   1      35.235  14.907   6.747  0.00  0.00     0.303 C 
BRANCH  24  25
HETATM   25  C   UNK N   1      33.873  14.922   6.077  0.00  0.00     0.303 C 
BRANCH  25  26
HETATM   26  N   UNK N   1      33.030  16.060   6.460  0.00  0.00     0.108 N 
BRANCH  26  27
HETATM   27  C   UNK N   1      33.753  17.320   6.259  0.00  0.00     0.382 C 
BRANCH  27  28
HETATM   28  C   UNK N   1      33.821  18.082   7.548  0.00  0.00     0.169 C 
HETATM   29  O   UNK N   1      32.898  18.021   8.341  0.00  0.00    -0.649 OA
BRANCH  28  30
HETATM   30  O   UNK N   1      34.899  18.837   7.834  0.00  0.00    -0.775 OA
HETATM   31  H   UNK N   1      34.949  19.633   8.325  0.00  0.00     0.167 HD
ENDBRANCH  28  30
ENDBRANCH  27  28
ENDBRANCH  26  27
BRANCH  26  32
HETATM   32  C   UNK N   1      31.948  15.985   5.483  0.00  0.00     0.375 C 
BRANCH  32  33
HETATM   33  C   UNK N   1      30.826  16.966   5.656  0.00  0.00     0.246 C 
HETATM   34  O   UNK N   1      30.477  17.705   4.741  0.00  0.00    -0.272 OA
HETATM   35  N   UNK N   1      30.190  16.994   6.845  0.00  0.00    -0.359 N 
HETATM   36  H   UNK N   1      30.508  16.395   7.559  0.00  0.00     0.162 HD
BRANCH  35  37
HETATM   37  C   UNK N   1      29.073  17.854   7.126  0.00  0.00     0.132 C 
BRANCH  37  38
HETATM   38  C   UNK N   1      29.348  18.574   8.430  0.00  0.00     0.090 C 
BRANCH  38  39
HETATM   39  S   UNK N   1      29.221  17.417   9.819  0.00  0.00    -0.181 SA
HETATM   40  H   UNK N   1      29.086  17.888  11.088  0.00  0.00     0.101 HD
ENDBRANCH  38  39
ENDBRANCH  37  38
ENDBRANCH  35  37
ENDBRANCH  32  33
ENDBRANCH  26  32
ENDBRANCH  25  26
ENDBRANCH  24  25
ENDBRANCH   1  24
TORSDOF 25
ENDMDL
MODEL 4
REMARK VINA RESULT:      -5.6      3.713      7.658
REMARK  25 active torsions:
REMARK  status: ('A' for Active; 'I' for Inactive)
REMARK    1  A    between atoms: O_1  and  C_2 
REMARK    2  A    between atoms: C_2  and  C_4 
REMARK    3  A    between atoms: C_4  and  N_5 
REMARK    4  A    between atoms: N_5  and  C_6 
REMARK    5  A    between atoms: N_5  and  C_20 
REMARK    6  A    between atoms: C_6  and  C_7 
REMARK    7  A    between atoms: C_7  and  N_8 
REMARK    8  A    between atoms: N_8  and  C_9 
REMARK    9  A    between atoms: N_8  and  C_13 
REMARK   10  A    between atoms: C_9  and  C_10 
REMARK   11  A    between atoms: C_10  and  O_11 
REMARK   12  A    between atoms: C_13  and  C_14 
REMARK       I    between atoms: C_14  and  N_16 
REMARK   13  A    between atoms: N_16  and  C_17 
REMARK   14  A    between atoms: C_17  and  C_18 
REMARK   15  A    between atoms: C_18  and  S_19 
REMARK   16  A    between atoms: C_20  and  C_21 
REMARK   17  A    between atoms: C_21  and  N_22 
REMARK   18  A    between atoms: N_22  and  C_23 
REMARK   19  A    between atoms: N_22  and  C_27 
REMARK   20  A    between atoms: C_23  and  C_24 
REMARK   21  A    between atoms: C_24  and  O_25 
REMARK   22  A    between atoms: C_27  and  C_28 
REMARK       I    between atoms: C_28  and  N_30 
REMARK   23  A    between atoms: N_30  and  C_31 
REMARK   24  A    between atoms: C_31  and  C_32 
REMARK   25  A    between atoms: C_32  and  S_33 
ROOT
HETATM    1  N   UNK N   1      24.182  18.438   3.857  0.00  0.00     0.101 N 
ENDROOT
BRANCH   1   2
HETATM    2  C   UNK N   1      24.450  19.843   4.133  0.00  0.00     0.381 C 
BRANCH   2   3
HETATM    3  C   UNK N   1      24.146  20.679   2.930  0.00  0.00     0.169 C 
HETATM    4  O   UNK N   1      23.149  21.382   2.905  0.00  0.00    -0.649 OA
BRANCH   3   5
HETATM    5  O   UNK N   1      24.987  20.671   1.879  0.00  0.00    -0.775 OA
HETATM    6  H   UNK N   1      25.516  21.396   1.613  0.00  0.00     0.167 HD
ENDBRANCH   3   5
ENDBRANCH   2   3
ENDBRANCH   1   2
BRANCH   1   7
HETATM    7  C   UNK N   1      25.302  17.639   4.374  0.00  0.00     0.303 C 
BRANCH   7   8
HETATM    8  C   UNK N   1      26.683  18.203   4.003  0.00  0.00     0.303 C 
BRANCH   8   9
HETATM    9  N   UNK N   1      27.510  18.395   5.178  0.00  0.00     0.108 N 
BRANCH   9  10
HETATM   10  C   UNK N   1      27.780  19.824   5.300  0.00  0.00     0.382 C 
BRANCH  10  11
HETATM   11  C   UNK N   1      27.238  20.383   6.577  0.00  0.00     0.169 C 
HETATM   12  O   UNK N   1      26.753  21.502   6.602  0.00  0.00    -0.649 OA
BRANCH  11  13
HETATM   13  O   UNK N   1      27.337  19.668   7.712  0.00  0.00    -0.775 OA
HETATM   14  H   UNK N   1      26.948  19.847   8.546  0.00  0.00     0.167 HD
ENDBRANCH  11  13
ENDBRANCH  10  11
ENDBRANCH   9  10
BRANCH   9  15
HETATM   15  C   UNK N   1      28.796  17.788   4.875  0.00  0.00     0.375 C 
BRANCH  15  16
HETATM   16  C   UNK N   1      29.326  17.059   6.060  0.00  0.00     0.246 C 
HETATM   17  O   UNK N   1      29.385  15.839   6.045  0.00  0.00    -0.272 OA
HETATM   18  N   UNK N   1      29.710  17.759   7.154  0.00  0.00    -0.359 N 
HETATM   19  H   UNK N   1      29.666  18.742   7.126  0.00  0.00     0.162 HD
BRANCH  18  20
HETATM   20  C   UNK N   1      30.181  17.119   8.359  0.00  0.00     0.132 C 
BRANCH  20  21
HETATM   21  C   UNK N   1      31.701  17.069   8.370  0.00  0.00     0.090 C 
BRANCH  21  22
HETATM   22  S   UNK N   1      32.275  15.441   8.937  0.00  0.00    -0.181 SA
HETATM   23  H   UNK N   1      33.372  15.332   9.734  0.00  0.00     0.101 HD
ENDBRANCH  21  22
ENDBRANCH  20  21
ENDBRANCH  18  20
ENDBRANCH  15  16
ENDBRANCH   9  15
ENDBRANCH   8   9
ENDBRANCH   7   8
ENDBRANCH   1   7
BRANCH   1  24
HETATM   24  C   UNK N   1      22.939  18.086   4.533  0.00  0.00     0.303 C 
BRANCH  24  25
HETATM   25  C   UNK N   1      21.896  17.591   3.549  0.00  0.00     0.303 C 
BRANCH  25  26
HETATM   26  N   UNK N   1      20.512  17.818   3.978  0.00  0.00     0.108 N 
BRANCH  26  27
HETATM   27  C   UNK N   1      19.737  18.432   2.895  0.00  0.00     0.382 C 
BRANCH  27  28
HETATM   28  C   UNK N   1      20.157  19.860   2.713  0.00  0.00     0.169 C 
HETATM   29  O   UNK N   1      20.340  20.302   1.592  0.00  0.00    -0.649 OA
BRANCH  28  30
HETATM   30  O   UNK N   1      20.332  20.658   3.783  0.00  0.00    -0.775 OA
HETATM   31  H   UNK N   1      19.687  21.071   4.323  0.00  0.00     0.167 HD
ENDBRANCH  28  30
ENDBRANCH  27  28
ENDBRANCH  26  27
BRANCH  26  32
HETATM   32  C   UNK N   1      20.024  16.457   4.182  0.00  0.00     0.375 C 
BRANCH  32  33
HETATM   33  C   UNK N   1      19.451  16.150   5.534  0.00  0.00     0.246 C 
HETATM   34  O   UNK N   1      18.264  15.875   5.676  0.00  0.00    -0.272 OA
HETATM   35  N   UNK N   1      20.288  16.160   6.591  0.00  0.00    -0.359 N 
HETATM   36  H   UNK N   1      21.231  16.399   6.438  0.00  0.00     0.162 HD
BRANCH  35  37
HETATM   37  C   UNK N   1      19.875  15.841   7.931  0.00  0.00     0.132 C 
BRANCH  37  38
HETATM   38  C   UNK N   1      19.599  17.140   8.660  0.00  0.00     0.090 C 
BRANCH  38  39
HETATM   39  S   UNK N   1      17.866  17.201   9.187  0.00  0.00    -0.181 SA
HETATM   40  H   UNK N   1      17.009  16.208   8.828  0.00  0.00     0.101 HD
ENDBRANCH  38  39
ENDBRANCH  37  38
ENDBRANCH  35  37
ENDBRANCH  32  33
ENDBRANCH  26  32
ENDBRANCH  25  26
ENDBRANCH  24  25
ENDBRANCH   1  24
TORSDOF 25
ENDMDL
MODEL 5
REMARK VINA RESULT:      -5.5      2.221      3.498
REMARK  25 active torsions:
REMARK  status: ('A' for Active; 'I' for Inactive)
REMARK    1  A    between atoms: O_1  and  C_2 
REMARK    2  A    between atoms: C_2  and  C_4 
REMARK    3  A    between atoms: C_4  and  N_5 
REMARK    4  A    between atoms: N_5  and  C_6 
REMARK    5  A    between atoms: N_5  and  C_20 
REMARK    6  A    between atoms: C_6  and  C_7 
REMARK    7  A    between atoms: C_7  and  N_8 
REMARK    8  A    between atoms: N_8  and  C_9 
REMARK    9  A    between atoms: N_8  and  C_13 
REMARK   10  A    between atoms: C_9  and  C_10 
REMARK   11  A    between atoms: C_10  and  O_11 
REMARK   12  A    between atoms: C_13  and  C_14 
REMARK       I    between atoms: C_14  and  N_16 
REMARK   13  A    between atoms: N_16  and  C_17 
REMARK   14  A    between atoms: C_17  and  C_18 
REMARK   15  A    between atoms: C_18  and  S_19 
REMARK   16  A    between atoms: C_20  and  C_21 
REMARK   17  A    between atoms: C_21  and  N_22 
REMARK   18  A    between atoms: N_22  and  C_23 
REMARK   19  A    between atoms: N_22  and  C_27 
REMARK   20  A    between atoms: C_23  and  C_24 
REMARK   21  A    between atoms: C_24  and  O_25 
REMARK   22  A    between atoms: C_27  and  C_28 
REMARK       I    between atoms: C_28  and  N_30 
REMARK   23  A    between atoms: N_30  and  C_31 
REMARK   24  A    between atoms: C_31  and  C_32 
REMARK   25  A    between atoms: C_32  and  S_33 
ROOT
HETATM    1  N   UNK N   1      20.903  17.677   4.692  0.00  0.00     0.101 N 
ENDROOT
BRANCH   1   2
HETATM    2  C   UNK N   1      20.261  17.958   3.414  0.00  0.00     0.381 C 
BRANCH   2   3
HETATM    3  C   UNK N   1      20.408  19.405   3.063  0.00  0.00     0.169 C 
HETATM    4  O   UNK N   1      20.405  19.758   1.895  0.00  0.00    -0.649 OA
BRANCH   3   5
HETATM    5  O   UNK N   1      20.523  20.323   4.041  0.00  0.00    -0.775 OA
HETATM    6  H   UNK N   1      19.995  20.348   4.814  0.00  0.00     0.167 HD
ENDBRANCH   3   5
ENDBRANCH   2   3
ENDBRANCH   1   2
BRANCH   1   7
HETATM    7  C   UNK N   1      20.163  16.595   5.358  0.00  0.00     0.303 C 
BRANCH   7   8
HETATM    8  C   UNK N   1      20.918  15.974   6.545  0.00  0.00     0.303 C 
BRANCH   8   9
HETATM    9  N   UNK N   1      20.098  15.955   7.741  0.00  0.00     0.108 N 
BRANCH   9  10
HETATM   10  C   UNK N   1      19.574  17.303   7.938  0.00  0.00     0.382 C 
BRANCH  10  11
HETATM   11  C   UNK N   1      18.411  17.312   8.880  0.00  0.00     0.169 C 
HETATM   12  O   UNK N   1      17.512  16.498   8.753  0.00  0.00    -0.649 OA
BRANCH  11  13
HETATM   13  O   UNK N   1      18.334  18.255   9.835  0.00  0.00    -0.775 OA
HETATM   14  H   UNK N   1      18.175  19.173   9.733  0.00  0.00     0.167 HD
ENDBRANCH  11  13
ENDBRANCH  10  11
ENDBRANCH   9  10
BRANCH   9  15
HETATM   15  C   UNK N   1      21.007  15.733   8.853  0.00  0.00     0.375 C 
BRANCH  15  16
HETATM   16  C   UNK N   1      20.740  14.417   9.497  0.00  0.00     0.246 C 
HETATM   17  O   UNK N   1      19.588  14.050   9.671  0.00  0.00    -0.272 OA
HETATM   18  N   UNK N   1      21.782  13.655   9.909  0.00  0.00    -0.359 N 
HETATM   19  H   UNK N   1      22.697  13.972   9.737  0.00  0.00     0.162 HD
BRANCH  18  20
HETATM   20  C   UNK N   1      21.600  12.395  10.590  0.00  0.00     0.132 C 
BRANCH  20  21
HETATM   21  C   UNK N   1      22.914  11.929  11.197  0.00  0.00     0.090 C 
BRANCH  21  22
HETATM   22  S   UNK N   1      24.310  12.448  10.156  0.00  0.00    -0.181 SA
HETATM   23  H   UNK N   1      25.586  12.122  10.495  0.00  0.00     0.101 HD
ENDBRANCH  21  22
ENDBRANCH  20  21
ENDBRANCH  18  20
ENDBRANCH  15  16
ENDBRANCH   9  15
ENDBRANCH   8   9
ENDBRANCH   7   8
ENDBRANCH   1   7
BRANCH   1  24
HETATM   24  C   UNK N   1      22.276  17.270   4.413  0.00  0.00     0.303 C 
BRANCH  24  25
HETATM   25  C   UNK N   1      23.271  18.271   4.969  0.00  0.00     0.303 C 
BRANCH  25  26
HETATM   26  N   UNK N   1      24.427  18.514   4.098  0.00  0.00     0.108 N 
BRANCH  26  27
HETATM   27  C   UNK N   1      24.826  19.923   4.162  0.00  0.00     0.382 C 
BRANCH  27  28
HETATM   28  C   UNK N   1      24.330  20.652   2.950  0.00  0.00     0.169 C 
HETATM   29  O   UNK N   1      23.252  21.219   2.979  0.00  0.00    -0.649 OA
BRANCH  28  30
HETATM   30  O   UNK N   1      25.072  20.683   1.826  0.00  0.00    -0.775 OA
HETATM   31  H   UNK N   1      25.746  21.285   1.580  0.00  0.00     0.167 HD
ENDBRANCH  28  30
ENDBRANCH  27  28
ENDBRANCH  26  27
BRANCH  26  32
HETATM   32  C   UNK N   1      25.466  17.708   4.731  0.00  0.00     0.375 C 
BRANCH  32  33
HETATM   33  C   UNK N   1      26.417  17.003   3.810  0.00  0.00     0.246 C 
HETATM   34  O   UNK N   1      26.013  16.274   2.910  0.00  0.00    -0.272 OA
HETATM   35  N   UNK N   1      27.738  17.217   3.983  0.00  0.00    -0.359 N 
HETATM   36  H   UNK N   1      28.023  17.798   4.725  0.00  0.00     0.162 HD
BRANCH  35  37
HETATM   37  C   UNK N   1      28.751  16.639   3.143  0.00  0.00     0.132 C 
BRANCH  37  38
HETATM   38  C   UNK N   1      29.687  15.833   4.020  0.00  0.00     0.090 C 
BRANCH  38  39
HETATM   39  S   UNK N   1      30.371  16.882   5.329  0.00  0.00    -0.181 SA
HETATM   40  H   UNK N   1      30.889  18.103   5.023  0.00  0.00     0.101 HD
ENDBRANCH  38  39
ENDBRANCH  37  38
ENDBRANCH  35  37
ENDBRANCH  32  33
ENDBRANCH  26  32
ENDBRANCH  25  26
ENDBRANCH  24  25
ENDBRANCH   1  24
TORSDOF 25
ENDMDL
MODEL 6
REMARK VINA RESULT:      -5.5     10.415     13.512
REMARK  25 active torsions:
REMARK  status: ('A' for Active; 'I' for Inactive)
REMARK    1  A    between atoms: O_1  and  C_2 
REMARK    2  A    between atoms: C_2  and  C_4 
REMARK    3  A    between atoms: C_4  and  N_5 
REMARK    4  A    between atoms: N_5  and  C_6 
REMARK    5  A    between atoms: N_5  and  C_20 
REMARK    6  A    between atoms: C_6  and  C_7 
REMARK    7  A    between atoms: C_7  and  N_8 
REMARK    8  A    between atoms: N_8  and  C_9 
REMARK    9  A    between atoms: N_8  and  C_13 
REMARK   10  A    between atoms: C_9  and  C_10 
REMARK   11  A    between atoms: C_10  and  O_11 
REMARK   12  A    between atoms: C_13  and  C_14 
REMARK       I    between atoms: C_14  and  N_16 
REMARK   13  A    between atoms: N_16  and  C_17 
REMARK   14  A    between atoms: C_17  and  C_18 
REMARK   15  A    between atoms: C_18  and  S_19 
REMARK   16  A    between atoms: C_20  and  C_21 
REMARK   17  A    between atoms: C_21  and  N_22 
REMARK   18  A    between atoms: N_22  and  C_23 
REMARK   19  A    between atoms: N_22  and  C_27 
REMARK   20  A    between atoms: C_23  and  C_24 
REMARK   21  A    between atoms: C_24  and  O_25 
REMARK   22  A    between atoms: C_27  and  C_28 
REMARK       I    between atoms: C_28  and  N_30 
REMARK   23  A    between atoms: N_30  and  C_31 
REMARK   24  A    between atoms: C_31  and  C_32 
REMARK   25  A    between atoms: C_32  and  S_33 
ROOT
HETATM    1  N   UNK N   1      33.275  16.238   8.183  0.00  0.00     0.101 N 
ENDROOT
BRANCH   1   2
HETATM    2  C   UNK N   1      33.920  17.286   8.962  0.00  0.00     0.381 C 
BRANCH   2   3
HETATM    3  C   UNK N   1      34.592  18.271   8.058  0.00  0.00     0.169 C 
HETATM    4  O   UNK N   1      34.467  18.180   6.848  0.00  0.00    -0.649 OA
BRANCH   3   5
HETATM    5  O   UNK N   1      35.322  19.272   8.583  0.00  0.00    -0.775 OA
HETATM    6  H   UNK N   1      36.118  19.156   9.064  0.00  0.00     0.167 HD
ENDBRANCH   3   5
ENDBRANCH   2   3
ENDBRANCH   1   2
BRANCH   1   7
HETATM    7  C   UNK N   1      33.926  14.957   8.496  0.00  0.00     0.303 C 
BRANCH   7   8
HETATM    8  C   UNK N   1      33.709  14.495   9.946  0.00  0.00     0.303 C 
BRANCH   8   9
HETATM    9  N   UNK N   1      34.889  13.838  10.473  0.00  0.00     0.108 N 
BRANCH   9  10
HETATM   10  C   UNK N   1      36.010  14.176   9.601  0.00  0.00     0.382 C 
BRANCH  10  11
HETATM   11  C   UNK N   1      37.307  14.184  10.346  0.00  0.00     0.169 C 
HETATM   12  O   UNK N   1      38.362  14.284   9.741  0.00  0.00    -0.649 OA
BRANCH  11  13
HETATM   13  O   UNK N   1      37.311  14.026  11.681  0.00  0.00    -0.775 OA
HETATM   14  H   UNK N   1      36.703  13.549  12.211  0.00  0.00     0.167 HD
ENDBRANCH  11  13
ENDBRANCH  10  11
ENDBRANCH   9  10
BRANCH   9  15
HETATM   15  C   UNK N   1      34.678  12.411  10.287  0.00  0.00     0.375 C 
BRANCH  15  16
HETATM   16  C   UNK N   1      34.807  11.687  11.582  0.00  0.00     0.246 C 
HETATM   17  O   UNK N   1      35.055  10.491  11.585  0.00  0.00    -0.272 OA
HETATM   18  N   UNK N   1      34.617  12.361  12.741  0.00  0.00    -0.359 N 
HETATM   19  H   UNK N   1      34.436  13.327  12.703  0.00  0.00     0.162 HD
BRANCH  18  20
HETATM   20  C   UNK N   1      34.670  11.715  14.032  0.00  0.00     0.132 C 
BRANCH  20  21
HETATM   21  C   UNK N   1      35.976  12.049  14.735  0.00  0.00     0.090 C 
BRANCH  21  22
HETATM   22  S   UNK N   1      37.043  10.580  14.817  0.00  0.00    -0.181 SA
HETATM   23  H   UNK N   1      36.796   9.593  15.719  0.00  0.00     0.101 HD
ENDBRANCH  21  22
ENDBRANCH  20  21
ENDBRANCH  18  20
ENDBRANCH  15  16
ENDBRANCH   9  15
ENDBRANCH   8   9
ENDBRANCH   7   8
ENDBRANCH   1   7
BRANCH   1  24
HETATM   24  C   UNK N   1      31.867  16.210   8.564  0.00  0.00     0.303 C 
BRANCH  24  25
HETATM   25  C   UNK N   1      30.970  16.068   7.348  0.00  0.00     0.303 C 
BRANCH  25  26
HETATM   26  N   UNK N   1      29.730  16.848   7.425  0.00  0.00     0.108 N 
BRANCH  26  27
HETATM   27  C   UNK N   1      29.697  17.630   8.666  0.00  0.00     0.382 C 
BRANCH  27  28
HETATM   28  C   UNK N   1      28.282  17.786   9.135  0.00  0.00     0.169 C 
HETATM   29  O   UNK N   1      27.743  16.886   9.755  0.00  0.00    -0.649 OA
BRANCH  28  30
HETATM   30  O   UNK N   1      27.602  18.919   8.874  0.00  0.00    -0.775 OA
HETATM   31  H   UNK N   1      26.838  19.259   9.297  0.00  0.00     0.167 HD
ENDBRANCH  28  30
ENDBRANCH  27  28
ENDBRANCH  26  27
BRANCH  26  32
HETATM   32  C   UNK N   1      29.873  17.769   6.301  0.00  0.00     0.375 C 
BRANCH  32  33
HETATM   33  C   UNK N   1      28.668  17.941   5.424  0.00  0.00     0.246 C 
HETATM   34  O   UNK N   1      28.568  17.349   4.354  0.00  0.00    -0.272 OA
HETATM   35  N   UNK N   1      27.681  18.751   5.859  0.00  0.00    -0.359 N 
HETATM   36  H   UNK N   1      27.805  19.219   6.717  0.00  0.00     0.162 HD
BRANCH  35  37
HETATM   37  C   UNK N   1      26.458  18.967   5.136  0.00  0.00     0.132 C 
BRANCH  37  38
HETATM   38  C   UNK N   1      26.323  20.453   4.873  0.00  0.00     0.090 C 
BRANCH  38  39
HETATM   39  S   UNK N   1      27.004  21.396   6.262  0.00  0.00    -0.181 SA
HETATM   40  H   UNK N   1      26.413  22.557   6.652  0.00  0.00     0.101 HD
ENDBRANCH  38  39
ENDBRANCH  37  38
ENDBRANCH  35  37
ENDBRANCH  32  33
ENDBRANCH  26  32
ENDBRANCH  25  26
ENDBRANCH  24  25
ENDBRANCH   1  24
TORSDOF 25
ENDMDL
MODEL 7
REMARK VINA RESULT:      -5.4     10.142     13.164
REMARK  25 active torsions:
REMARK  status: ('A' for Active; 'I' for Inactive)
REMARK    1  A    between atoms: O_1  and  C_2 
REMARK    2  A    between atoms: C_2  and  C_4 
REMARK    3  A    between atoms: C_4  and  N_5 
REMARK    4  A    between atoms: N_5  and  C_6 
REMARK    5  A    between atoms: N_5  and  C_20 
REMARK    6  A    between atoms: C_6  and  C_7 
REMARK    7  A    between atoms: C_7  and  N_8 
REMARK    8  A    between atoms: N_8  and  C_9 
REMARK    9  A    between atoms: N_8  and  C_13 
REMARK   10  A    between atoms: C_9  and  C_10 
REMARK   11  A    between atoms: C_10  and  O_11 
REMARK   12  A    between atoms: C_13  and  C_14 
REMARK       I    between atoms: C_14  and  N_16 
REMARK   13  A    between atoms: N_16  and  C_17 
REMARK   14  A    between atoms: C_17  and  C_18 
REMARK   15  A    between atoms: C_18  and  S_19 
REMARK   16  A    between atoms: C_20  and  C_21 
REMARK   17  A    between atoms: C_21  and  N_22 
REMARK   18  A    between atoms: N_22  and  C_23 
REMARK   19  A    between atoms: N_22  and  C_27 
REMARK   20  A    between atoms: C_23  and  C_24 
REMARK   21  A    between atoms: C_24  and  O_25 
REMARK   22  A    between atoms: C_27  and  C_28 
REMARK       I    between atoms: C_28  and  N_30 
REMARK   23  A    between atoms: N_30  and  C_31 
REMARK   24  A    between atoms: C_31  and  C_32 
REMARK   25  A    between atoms: C_32  and  S_33 
ROOT
HETATM    1  N   UNK N   1      33.269  16.145   8.365  0.00  0.00     0.101 N 
ENDROOT
BRANCH   1   2
HETATM    2  C   UNK N   1      33.656  17.412   8.972  0.00  0.00     0.381 C 
BRANCH   2   3
HETATM    3  C   UNK N   1      34.486  18.215   8.022  0.00  0.00     0.169 C 
HETATM    4  O   UNK N   1      35.215  19.101   8.439  0.00  0.00    -0.649 OA
BRANCH   3   5
HETATM    5  O   UNK N   1      34.442  17.948   6.704  0.00  0.00    -0.775 OA
HETATM    6  H   UNK N   1      35.193  17.791   6.166  0.00  0.00     0.167 HD
ENDBRANCH   3   5
ENDBRANCH   2   3
ENDBRANCH   1   2
BRANCH   1   7
HETATM    7  C   UNK N   1      33.959  15.057   9.075  0.00  0.00     0.303 C 
BRANCH   7   8
HETATM    8  C   UNK N   1      34.245  15.372  10.552  0.00  0.00     0.303 C 
BRANCH   8   9
HETATM    9  N   UNK N   1      34.712  14.197  11.262  0.00  0.00     0.108 N 
BRANCH   9  10
HETATM   10  C   UNK N   1      35.985  14.538  11.890  0.00  0.00     0.382 C 
BRANCH  10  11
HETATM   11  C   UNK N   1      35.963  14.277  13.363  0.00  0.00     0.169 C 
HETATM   12  O   UNK N   1      35.047  13.645  13.861  0.00  0.00    -0.649 OA
BRANCH  11  13
HETATM   13  O   UNK N   1      36.930  14.789  14.145  0.00  0.00    -0.775 OA
HETATM   14  H   UNK N   1      36.969  15.638  14.539  0.00  0.00     0.167 HD
ENDBRANCH  11  13
ENDBRANCH  10  11
ENDBRANCH   9  10
BRANCH   9  15
HETATM   15  C   UNK N   1      35.040  13.211  10.246  0.00  0.00     0.375 C 
BRANCH  15  16
HETATM   16  C   UNK N   1      35.041  11.839  10.825  0.00  0.00     0.246 C 
HETATM   17  O   UNK N   1      36.099  11.247  10.980  0.00  0.00    -0.272 OA
HETATM   18  N   UNK N   1      33.863  11.252  11.145  0.00  0.00    -0.359 N 
HETATM   19  H   UNK N   1      33.031  11.763  11.024  0.00  0.00     0.162 HD
BRANCH  18  20
HETATM   20  C   UNK N   1      33.782   9.905  11.658  0.00  0.00     0.132 C 
BRANCH  20  21
HETATM   21  C   UNK N   1      33.572   8.919  10.520  0.00  0.00     0.090 C 
BRANCH  21  22
HETATM   22  S   UNK N   1      32.327   9.552   9.357  0.00  0.00    -0.181 SA
HETATM   23  H   UNK N   1      31.521  10.591   9.703  0.00  0.00     0.101 HD
ENDBRANCH  21  22
ENDBRANCH  20  21
ENDBRANCH  18  20
ENDBRANCH  15  16
ENDBRANCH   9  15
ENDBRANCH   8   9
ENDBRANCH   7   8
ENDBRANCH   1   7
BRANCH   1  24
HETATM   24  C   UNK N   1      31.823  16.016   8.499  0.00  0.00     0.303 C 
BRANCH  24  25
HETATM   25  C   UNK N   1      31.109  16.489   7.246  0.00  0.00     0.303 C 
BRANCH  25  26
HETATM   26  N   UNK N   1      29.774  17.045   7.492  0.00  0.00     0.108 N 
BRANCH  26  27
HETATM   27  C   UNK N   1      29.866  18.224   8.359  0.00  0.00     0.382 C 
BRANCH  27  28
HETATM   28  C   UNK N   1      28.883  18.109   9.485  0.00  0.00     0.169 C 
HETATM   29  O   UNK N   1      29.282  17.985  10.630  0.00  0.00    -0.649 OA
BRANCH  28  30
HETATM   30  O   UNK N   1      27.560  18.142   9.237  0.00  0.00    -0.775 OA
HETATM   31  H   UNK N   1      26.850  18.261   9.837  0.00  0.00     0.167 HD
ENDBRANCH  28  30
ENDBRANCH  27  28
ENDBRANCH  26  27
BRANCH  26  32
HETATM   32  C   UNK N   1      29.370  17.481   6.158  0.00  0.00     0.375 C 
BRANCH  32  33
HETATM   33  C   UNK N   1      27.970  17.140   5.742  0.00  0.00     0.246 C 
HETATM   34  O   UNK N   1      27.127  16.791   6.561  0.00  0.00    -0.272 OA
HETATM   35  N   UNK N   1      27.655  17.254   4.435  0.00  0.00    -0.359 N 
HETATM   36  H   UNK N   1      28.363  17.524   3.806  0.00  0.00     0.162 HD
BRANCH  35  37
HETATM   37  C   UNK N   1      26.340  17.001   3.912  0.00  0.00     0.132 C 
BRANCH  37  38
HETATM   38  C   UNK N   1      25.651  18.334   3.704  0.00  0.00     0.090 C 
BRANCH  38  39
HETATM   39  S   UNK N   1      24.083  18.372   4.611  0.00  0.00    -0.181 SA
HETATM   40  H   UNK N   1      23.962  17.706   5.791  0.00  0.00     0.101 HD
ENDBRANCH  38  39
ENDBRANCH  37  38
ENDBRANCH  35  37
ENDBRANCH  32  33
ENDBRANCH  26  32
ENDBRANCH  25  26
ENDBRANCH  24  25
ENDBRANCH   1  24
TORSDOF 25
ENDMDL
MODEL 8
REMARK VINA RESULT:      -5.4     10.031     14.017
REMARK  25 active torsions:
REMARK  status: ('A' for Active; 'I' for Inactive)
REMARK    1  A    between atoms: O_1  and  C_2 
REMARK    2  A    between atoms: C_2  and  C_4 
REMARK    3  A    between atoms: C_4  and  N_5 
REMARK    4  A    between atoms: N_5  and  C_6 
REMARK    5  A    between atoms: N_5  and  C_20 
REMARK    6  A    between atoms: C_6  and  C_7 
REMARK    7  A    between atoms: C_7  and  N_8 
REMARK    8  A    between atoms: N_8  and  C_9 
REMARK    9  A    between atoms: N_8  and  C_13 
REMARK   10  A    between atoms: C_9  and  C_10 
REMARK   11  A    between atoms: C_10  and  O_11 
REMARK   12  A    between atoms: C_13  and  C_14 
REMARK       I    between atoms: C_14  and  N_16 
REMARK   13  A    between atoms: N_16  and  C_17 
REMARK   14  A    between atoms: C_17  and  C_18 
REMARK   15  A    between atoms: C_18  and  S_19 
REMARK   16  A    between atoms: C_20  and  C_21 
REMARK   17  A    between atoms: C_21  and  N_22 
REMARK   18  A    between atoms: N_22  and  C_23 
REMARK   19  A    between atoms: N_22  and  C_27 
REMARK   20  A    between atoms: C_23  and  C_24 
REMARK   21  A    between atoms: C_24  and  O_25 
REMARK   22  A    between atoms: C_27  and  C_28 
REMARK       I    between atoms: C_28  and  N_30 
REMARK   23  A    between atoms: N_30  and  C_31 
REMARK   24  A    between atoms: C_31  and  C_32 
REMARK   25  A    between atoms: C_32  and  S_33 
ROOT
HETATM    1  N   UNK N   1      33.021  16.167   7.868  0.00  0.00     0.101 N 
ENDROOT
BRANCH   1   2
HETATM    2  C   UNK N   1      33.106  15.286   6.711  0.00  0.00     0.381 C 
BRANCH   2   3
HETATM    3  C   UNK N   1      34.074  15.831   5.709  0.00  0.00     0.169 C 
HETATM    4  O   UNK N   1      35.235  16.038   6.023  0.00  0.00    -0.649 OA
BRANCH   3   5
HETATM    5  O   UNK N   1      33.666  16.077   4.450  0.00  0.00    -0.775 OA
HETATM    6  H   UNK N   1      34.220  16.387   3.761  0.00  0.00     0.167 HD
ENDBRANCH   3   5
ENDBRANCH   2   3
ENDBRANCH   1   2
BRANCH   1   7
HETATM    7  C   UNK N   1      31.921  17.118   7.651  0.00  0.00     0.303 C 
BRANCH   7   8
HETATM    8  C   UNK N   1      30.632  16.459   7.134  0.00  0.00     0.303 C 
BRANCH   8   9
HETATM    9  N   UNK N   1      29.722  17.442   6.578  0.00  0.00     0.108 N 
BRANCH   9  10
HETATM   10  C   UNK N   1      28.437  17.287   7.254  0.00  0.00     0.382 C 
BRANCH  10  11
HETATM   11  C   UNK N   1      28.350  18.140   8.479  0.00  0.00     0.169 C 
HETATM   12  O   UNK N   1      29.169  19.023   8.672  0.00  0.00    -0.649 OA
BRANCH  11  13
HETATM   13  O   UNK N   1      27.397  17.895   9.396  0.00  0.00    -0.775 OA
HETATM   14  H   UNK N   1      26.599  17.416   9.290  0.00  0.00     0.167 HD
ENDBRANCH  11  13
ENDBRANCH  10  11
ENDBRANCH   9  10
BRANCH   9  15
HETATM   15  C   UNK N   1      29.480  17.040   5.202  0.00  0.00     0.375 C 
BRANCH  15  16
HETATM   16  C   UNK N   1      28.329  17.790   4.629  0.00  0.00     0.246 C 
HETATM   17  O   UNK N   1      27.320  17.189   4.291  0.00  0.00    -0.272 OA
HETATM   18  N   UNK N   1      28.428  19.131   4.460  0.00  0.00    -0.359 N 
HETATM   19  H   UNK N   1      29.247  19.586   4.759  0.00  0.00     0.162 HD
BRANCH  18  20
HETATM   20  C   UNK N   1      27.376  19.917   3.860  0.00  0.00     0.132 C 
BRANCH  20  21
HETATM   21  C   UNK N   1      26.450  20.466   4.934  0.00  0.00     0.090 C 
BRANCH  21  22
HETATM   22  S   UNK N   1      27.415  21.203   6.285  0.00  0.00    -0.181 SA
HETATM   23  H   UNK N   1      27.316  22.530   6.563  0.00  0.00     0.101 HD
ENDBRANCH  21  22
ENDBRANCH  20  21
ENDBRANCH  18  20
ENDBRANCH  15  16
ENDBRANCH   9  15
ENDBRANCH   8   9
ENDBRANCH   7   8
ENDBRANCH   1   7
BRANCH   1  24
HETATM   24  C   UNK N   1      32.761  15.334   9.037  0.00  0.00     0.303 C 
BRANCH  24  25
HETATM   25  C   UNK N   1      33.689  14.133   9.075  0.00  0.00     0.303 C 
BRANCH  25  26
HETATM   26  N   UNK N   1      34.855  14.305   9.948  0.00  0.00     0.108 N 
BRANCH  26  27
HETATM   27  C   UNK N   1      34.653  15.446  10.848  0.00  0.00     0.382 C 
BRANCH  27  28
HETATM   28  C   UNK N   1      35.757  16.443  10.665  0.00  0.00     0.169 C 
HETATM   29  O   UNK N   1      35.501  17.574  10.289  0.00  0.00    -0.649 OA
BRANCH  28  30
HETATM   30  O   UNK N   1      37.034  16.095  10.915  0.00  0.00    -0.775 OA
HETATM   31  H   UNK N   1      37.652  15.672  10.352  0.00  0.00     0.167 HD
ENDBRANCH  28  30
ENDBRANCH  27  28
ENDBRANCH  26  27
BRANCH  26  32
HETATM   32  C   UNK N   1      34.830  13.080  10.742  0.00  0.00     0.375 C 
BRANCH  32  33
HETATM   33  C   UNK N   1      35.645  13.085  12.001  0.00  0.00     0.246 C 
HETATM   34  O   UNK N   1      36.866  13.192  11.972  0.00  0.00    -0.272 OA
HETATM   35  N   UNK N   1      34.989  12.994  13.177  0.00  0.00    -0.359 N 
HETATM   36  H   UNK N   1      34.009  12.896  13.158  0.00  0.00     0.162 HD
BRANCH  35  37
HETATM   37  C   UNK N   1      35.646  13.032  14.455  0.00  0.00     0.132 C 
BRANCH  37  38
HETATM   38  C   UNK N   1      34.688  12.486  15.494  0.00  0.00     0.090 C 
BRANCH  38  39
HETATM   39  S   UNK N   1      35.051  13.207  17.116  0.00  0.00    -0.181 SA
HETATM   40  H   UNK N   1      35.951  12.608  17.941  0.00  0.00     0.101 HD
ENDBRANCH  38  39
ENDBRANCH  37  38
ENDBRANCH  35  37
ENDBRANCH  32  33
ENDBRANCH  26  32
ENDBRANCH  25  26
ENDBRANCH  24  25
ENDBRANCH   1  24
TORSDOF 25
ENDMDL
MODEL 9
REMARK VINA RESULT:      -5.3     10.915     13.735
REMARK  25 active torsions:
REMARK  status: ('A' for Active; 'I' for Inactive)
REMARK    1  A    between atoms: O_1  and  C_2 
REMARK    2  A    between atoms: C_2  and  C_4 
REMARK    3  A    between atoms: C_4  and  N_5 
REMARK    4  A    between atoms: N_5  and  C_6 
REMARK    5  A    between atoms: N_5  and  C_20 
REMARK    6  A    between atoms: C_6  and  C_7 
REMARK    7  A    between atoms: C_7  and  N_8 
REMARK    8  A    between atoms: N_8  and  C_9 
REMARK    9  A    between atoms: N_8  and  C_13 
REMARK   10  A    between atoms: C_9  and  C_10 
REMARK   11  A    between atoms: C_10  and  O_11 
REMARK   12  A    between atoms: C_13  and  C_14 
REMARK       I    between atoms: C_14  and  N_16 
REMARK   13  A    between atoms: N_16  and  C_17 
REMARK   14  A    between atoms: C_17  and  C_18 
REMARK   15  A    between atoms: C_18  and  S_19 
REMARK   16  A    between atoms: C_20  and  C_21 
REMARK   17  A    between atoms: C_21  and  N_22 
REMARK   18  A    between atoms: N_22  and  C_23 
REMARK   19  A    between atoms: N_22  and  C_27 
REMARK   20  A    between atoms: C_23  and  C_24 
REMARK   21  A    between atoms: C_24  and  O_25 
REMARK   22  A    between atoms: C_27  and  C_28 
REMARK       I    between atoms: C_28  and  N_30 
REMARK   23  A    between atoms: N_30  and  C_31 
REMARK   24  A    between atoms: C_31  and  C_32 
REMARK   25  A    between atoms: C_32  and  S_33 
ROOT
HETATM    1  N   UNK N   1      32.177  16.852   7.662  0.00  0.00     0.101 N 
ENDROOT
BRANCH   1   2
HETATM    2  C   UNK N   1      32.738  18.066   8.241  0.00  0.00     0.381 C 
BRANCH   2   3
HETATM    3  C   UNK N   1      34.101  18.328   7.684  0.00  0.00     0.169 C 
HETATM    4  O   UNK N   1      34.418  17.880   6.594  0.00  0.00    -0.649 OA
BRANCH   3   5
HETATM    5  O   UNK N   1      34.976  19.079   8.379  0.00  0.00    -0.775 OA
HETATM    6  H   UNK N   1      35.796  19.388   8.047  0.00  0.00     0.167 HD
ENDBRANCH   3   5
ENDBRANCH   2   3
ENDBRANCH   1   2
BRANCH   1   7
HETATM    7  C   UNK N   1      32.077  15.834   8.718  0.00  0.00     0.303 C 
BRANCH   7   8
HETATM    8  C   UNK N   1      33.004  14.627   8.497  0.00  0.00     0.303 C 
BRANCH   8   9
HETATM    9  N   UNK N   1      33.965  14.495   9.575  0.00  0.00     0.108 N 
BRANCH   9  10
HETATM   10  C   UNK N   1      35.168  15.223   9.186  0.00  0.00     0.382 C 
BRANCH  10  11
HETATM   11  C   UNK N   1      35.631  16.145  10.269  0.00  0.00     0.169 C 
HETATM   12  O   UNK N   1      36.764  16.053  10.711  0.00  0.00    -0.649 OA
BRANCH  11  13
HETATM   13  O   UNK N   1      34.777  17.042  10.792  0.00  0.00    -0.775 OA
HETATM   14  H   UNK N   1      34.377  17.777  10.371  0.00  0.00     0.167 HD
ENDBRANCH  11  13
ENDBRANCH  10  11
ENDBRANCH   9  10
BRANCH   9  15
HETATM   15  C   UNK N   1      34.357  13.095   9.600  0.00  0.00     0.375 C 
BRANCH  15  16
HETATM   16  C   UNK N   1      35.093  12.777  10.856  0.00  0.00     0.246 C 
HETATM   17  O   UNK N   1      36.082  12.062  10.815  0.00  0.00    -0.272 OA
HETATM   18  N   UNK N   1      34.634  13.263  12.034  0.00  0.00    -0.359 N 
HETATM   19  H   UNK N   1      33.845  13.850  12.030  0.00  0.00     0.162 HD
BRANCH  18  20
HETATM   20  C   UNK N   1      35.261  12.952  13.298  0.00  0.00     0.132 C 
BRANCH  20  21
HETATM   21  C   UNK N   1      36.152  14.101  13.741  0.00  0.00     0.090 C 
BRANCH  21  22
HETATM   22  S   UNK N   1      36.736  13.829  15.440  0.00  0.00    -0.181 SA
HETATM   23  H   UNK N   1      37.947  13.258  15.673  0.00  0.00     0.101 HD
ENDBRANCH  21  22
ENDBRANCH  20  21
ENDBRANCH  18  20
ENDBRANCH  15  16
ENDBRANCH   9  15
ENDBRANCH   8   9
ENDBRANCH   7   8
ENDBRANCH   1   7
BRANCH   1  24
HETATM   24  C   UNK N   1      30.858  17.185   7.137  0.00  0.00     0.303 C 
BRANCH  24  25
HETATM   25  C   UNK N   1      30.830  17.107   5.622  0.00  0.00     0.303 C 
BRANCH  25  26
HETATM   26  N   UNK N   1      31.163  15.783   5.085  0.00  0.00     0.108 N 
BRANCH  26  27
HETATM   27  C   UNK N   1      30.041  14.859   5.278  0.00  0.00     0.382 C 
BRANCH  27  28
HETATM   28  C   UNK N   1      30.463  13.463   4.933  0.00  0.00     0.169 C 
HETATM   29  O   UNK N   1      31.330  12.909   5.586  0.00  0.00    -0.649 OA
BRANCH  28  30
HETATM   30  O   UNK N   1      29.887  12.815   3.901  0.00  0.00    -0.775 OA
HETATM   31  H   UNK N   1      29.276  13.138   3.269  0.00  0.00     0.167 HD
ENDBRANCH  28  30
ENDBRANCH  27  28
ENDBRANCH  26  27
BRANCH  26  32
HETATM   32  C   UNK N   1      31.299  16.055   3.657  0.00  0.00     0.375 C 
BRANCH  32  33
HETATM   33  C   UNK N   1      32.542  15.536   2.996  0.00  0.00     0.246 C 
HETATM   34  O   UNK N   1      33.369  16.297   2.505  0.00  0.00    -0.272 OA
HETATM   35  N   UNK N   1      32.738  14.201   2.979  0.00  0.00    -0.359 N 
HETATM   36  H   UNK N   1      32.044  13.623   3.371  0.00  0.00     0.162 HD
BRANCH  35  37
HETATM   37  C   UNK N   1      33.905  13.579   2.417  0.00  0.00     0.132 C 
BRANCH  37  38
HETATM   38  C   UNK N   1      33.465  12.713   1.255  0.00  0.00     0.090 C 
BRANCH  38  39
HETATM   39  S   UNK N   1      34.735  12.711  -0.037  0.00  0.00    -0.181 SA
HETATM   40  H   UNK N   1      36.028  12.428   0.278  0.00  0.00     0.101 HD
ENDBRANCH  38  39
ENDBRANCH  37  38
ENDBRANCH  35  37
ENDBRANCH  32  33
ENDBRANCH  26  32
ENDBRANCH  25  26
ENDBRANCH  24  25
ENDBRANCH   1  24
TORSDOF 25
ENDMDL
