REMARK  4 active torsions:
REMARK  status: ('A' for Active; 'I' for Inactive)
REMARK    1  A    between atoms: C_4  and  O_5 
REMARK    2  A    between atoms: C_6  and  O_7 
REMARK    3  A    between atoms: C_8  and  O_9 
REMARK    4  A    between atoms: C_10  and  O_11 
ROOT
HETATM    1  C   UNK N   1      -1.883   2.273   0.000  0.00  0.00     0.042 C 
HETATM    2  C   UNK N   1      -0.597   1.468  -0.000  0.00  0.00     0.152 A 
HETATM    3  O   UNK N   1       0.610   2.224   0.000  0.00  0.00    -0.351 OA
HETATM    4  C   UNK N   1       1.810   1.464  -0.000  0.00  0.00     0.288 A 
HETATM    5  C   UNK N   1       1.888  -0.060   0.000  0.00  0.00     0.204 A 
HETATM    6  C   UNK N   1       0.624  -0.846  -0.000  0.00  0.00     0.182 A 
HETATM    7  C   UNK N   1      -0.647  -0.065   0.000  0.00  0.00     0.178 A 
ENDROOT
BRANCH   4   8
HETATM    8  O   UNK N   1       2.995   2.200   0.000  0.00  0.00    -0.369 OA
HETATM    9  H   UNK N   1       3.850   1.742   0.000  0.00  0.00     0.212 HD
ENDBRANCH   4   8
BRANCH   5  10
HETATM   10  O   UNK N   1       3.114  -0.722  -0.000  0.00  0.00    -0.388 OA
HETATM   11  H   UNK N   1       3.143  -1.691  -0.000  0.00  0.00     0.210 HD
ENDBRANCH   5  10
BRANCH   6  12
HETATM   12  O   UNK N   1       0.631  -2.239   0.000  0.00  0.00    -0.390 OA
HETATM   13  H   UNK N   1      -0.207  -2.729   0.000  0.00  0.00     0.210 HD
ENDBRANCH   6  12
BRANCH   7  14
HETATM   14  O   UNK N   1      -1.866  -0.745  -0.000  0.00  0.00    -0.390 OA
HETATM   15  H   UNK N   1      -2.699  -0.248  -0.000  0.00  0.00     0.210 HD
ENDBRANCH   7  14
TORSDOF 4
