MODEL 1
REMARK VINA RESULT:      -7.6      0.000      0.000
REMARK  10 active torsions:
REMARK  status: ('A' for Active; 'I' for Inactive)
REMARK    1  A    between atoms: C_30  and  C_6 
REMARK    2  A    between atoms: C_30  and  C_7 
REMARK    3  A    between atoms: C_9  and  C_8 
REMARK    4  A    between atoms: C_21  and  C_11 
REMARK    5  A    between atoms: C_14  and  C_13 
REMARK    6  A    between atoms: C_30  and  C_18 
REMARK    7  A    between atoms: C_26  and  C_21 
REMARK    8  A    between atoms: C_25  and  O_31 
REMARK    9  A    between atoms: C_28  and  O_32 
REMARK   10  A    between atoms: O_33  and  C_30 
ROOT
HETATM    1  C   UNK N   1      34.246  15.933   8.959  0.00  0.00     0.016 C 
HETATM    2  C   UNK N   1      34.536  16.464   6.067  0.00  0.00     0.005 C 
HETATM    3  C   UNK N   1      33.155  15.946   5.604  0.00  0.00     0.034 C 
HETATM    4  C   UNK N   1      31.163  15.113   6.885  0.00  0.00     0.004 C 
HETATM    5  C   UNK N   1      33.965  13.054   9.452  0.00  0.00     0.007 C 
HETATM    6  C   UNK N   1      32.769  13.355   8.566  0.00  0.00     0.010 C 
HETATM    7  C   UNK N   1      35.395  15.401   6.798  0.00  0.00     0.010 C 
HETATM    8  C   UNK N   1      32.485  15.100   6.663  0.00  0.00    -0.075 C 
HETATM    9  C   UNK N   1      35.205  13.606   8.714  0.00  0.00     0.002 C 
HETATM   10  C   UNK N   1      33.364  14.129   7.393  0.00  0.00     0.023 C 
HETATM   11  C   UNK N   1      34.602  14.807   7.968  0.00  0.00    -0.032 C 
ENDROOT
BRANCH   4  12
HETATM   12  C   UNK N   1      30.179  15.970   6.193  0.00  0.00     0.008 C 
HETATM   13  C   UNK N   1      29.675  17.059   6.817  0.00  0.00    -0.048 C 
HETATM   14  C   UNK N   1      30.033  17.287   8.279  0.00  0.00     0.071 C 
HETATM   15  C   UNK N   1      28.738  18.010   6.143  0.00  0.00    -0.033 C 
HETATM   16  C   UNK N   1      29.615  18.617   8.866  0.00  0.00     0.125 C 
HETATM   17  C   UNK N   1      28.204  18.955   8.430  0.00  0.00     0.068 C 
HETATM   18  C   UNK N   1      28.106  19.148   6.915  0.00  0.00     0.153 C 
HETATM   19  C   UNK N   1      28.571  17.966   4.813  0.00  0.00     0.022 C 
BRANCH  16  20
HETATM   20  O   UNK N   1      29.656  18.519  10.257  0.00  0.00    -0.395 OA
HETATM   21  H   UNK N   1      29.866  19.245  10.867  0.00  0.00     0.210 HD
ENDBRANCH  16  20
BRANCH  18  22
HETATM   22  O   UNK N   1      26.753  19.255   6.591  0.00  0.00    -0.391 OA
HETATM   23  H   UNK N   1      25.995  19.580   7.100  0.00  0.00     0.210 HD
ENDBRANCH  18  22
ENDBRANCH   4  12
BRANCH   9  24
HETATM   24  C   UNK N   1      36.414  13.832   9.661  0.00  0.00     0.009 C 
HETATM   25  C   UNK N   1      37.530  12.839   9.357  0.00  0.00     0.014 C 
BRANCH  24  26
HETATM   26  C   UNK N   1      35.866  13.714  11.067  0.00  0.00    -0.022 C 
HETATM   27  C   UNK N   1      36.313  14.315  12.185  0.00  0.00    -0.004 C 
BRANCH  27  28
HETATM   28  C   UNK N   1      35.718  13.941  13.500  0.00  0.00    -0.001 C 
HETATM   29  C   UNK N   1      35.388  12.649  13.756  0.00  0.00     0.010 C 
BRANCH  29  30
HETATM   30  C   UNK N   1      34.759  12.103  15.024  0.00  0.00     0.075 C 
BRANCH  30  31
HETATM   31  C   UNK N   1      35.878  11.573  15.929  0.00  0.00     0.037 C 
HETATM   32  C   UNK N   1      35.487  11.533  17.405  0.00  0.00     0.008 C 
ENDBRANCH  30  31
BRANCH  30  33
HETATM   33  C   UNK N   1      33.787  10.937  14.809  0.00  0.00     0.037 C 
HETATM   34  C   UNK N   1      33.821  10.376  13.397  0.00  0.00     0.008 C 
ENDBRANCH  30  33
BRANCH  30  35
HETATM   35  O   UNK N   1      34.100  13.140  15.693  0.00  0.00    -0.386 OA
HETATM   36  H   UNK N   1      33.853  14.074  15.778  0.00  0.00     0.211 HD
ENDBRANCH  30  35
ENDBRANCH  29  30
ENDBRANCH  27  28
ENDBRANCH  24  26
ENDBRANCH   9  24
TORSDOF 10
ENDMDL
MODEL 2
REMARK VINA RESULT:      -7.4      1.727      2.255
REMARK  10 active torsions:
REMARK  status: ('A' for Active; 'I' for Inactive)
REMARK    1  A    between atoms: C_30  and  C_6 
REMARK    2  A    between atoms: C_30  and  C_7 
REMARK    3  A    between atoms: C_9  and  C_8 
REMARK    4  A    between atoms: C_21  and  C_11 
REMARK    5  A    between atoms: C_14  and  C_13 
REMARK    6  A    between atoms: C_30  and  C_18 
REMARK    7  A    between atoms: C_26  and  C_21 
REMARK    8  A    between atoms: C_25  and  O_31 
REMARK    9  A    between atoms: C_28  and  O_32 
REMARK   10  A    between atoms: O_33  and  C_30 
ROOT
HETATM    1  C   UNK N   1      34.221  17.109   8.976  0.00  0.00     0.016 C 
HETATM    2  C   UNK N   1      33.787  17.362   6.064  0.00  0.00     0.005 C 
HETATM    3  C   UNK N   1      32.249  17.211   6.052  0.00  0.00     0.034 C 
HETATM    4  C   UNK N   1      30.570  17.032   7.909  0.00  0.00     0.004 C 
HETATM    5  C   UNK N   1      33.401  14.451   9.909  0.00  0.00     0.007 C 
HETATM    6  C   UNK N   1      32.112  15.010   9.334  0.00  0.00     0.010 C 
HETATM    7  C   UNK N   1      34.534  16.152   6.682  0.00  0.00     0.010 C 
HETATM    8  C   UNK N   1      31.726  16.647   7.353  0.00  0.00    -0.075 C 
HETATM    9  C   UNK N   1      34.472  14.598   8.806  0.00  0.00     0.002 C 
HETATM   10  C   UNK N   1      32.514  15.519   7.953  0.00  0.00     0.023 C 
HETATM   11  C   UNK N   1      33.991  15.870   8.088  0.00  0.00    -0.032 C 
ENDROOT
BRANCH   4  12
HETATM   12  C   UNK N   1      29.667  18.080   7.389  0.00  0.00     0.008 C 
HETATM   13  C   UNK N   1      28.605  17.739   6.625  0.00  0.00    -0.048 C 
HETATM   14  C   UNK N   1      28.454  16.284   6.202  0.00  0.00     0.071 C 
HETATM   15  C   UNK N   1      27.611  18.744   6.136  0.00  0.00    -0.033 C 
HETATM   16  C   UNK N   1      27.149  15.921   5.528  0.00  0.00     0.125 C 
HETATM   17  C   UNK N   1      26.774  16.986   4.518  0.00  0.00     0.068 C 
HETATM   18  C   UNK N   1      26.505  18.336   5.187  0.00  0.00     0.153 C 
HETATM   19  C   UNK N   1      27.587  19.980   6.657  0.00  0.00     0.022 C 
BRANCH  16  20
HETATM   20  O   UNK N   1      27.316  14.702   4.870  0.00  0.00    -0.395 OA
HETATM   21  H   UNK N   1      27.536  13.858   5.295  0.00  0.00     0.210 HD
ENDBRANCH  16  20
BRANCH  18  22
HETATM   22  O   UNK N   1      26.367  19.287   4.176  0.00  0.00    -0.391 OA
HETATM   23  H   UNK N   1      26.807  19.380   3.317  0.00  0.00     0.210 HD
ENDBRANCH  18  22
ENDBRANCH   4  12
BRANCH   9  24
HETATM   24  C   UNK N   1      35.919  14.545   9.364  0.00  0.00     0.009 C 
HETATM   25  C   UNK N   1      36.838  13.792   8.409  0.00  0.00     0.014 C 
BRANCH  24  26
HETATM   26  C   UNK N   1      35.812  13.904  10.731  0.00  0.00    -0.022 C 
HETATM   27  C   UNK N   1      36.745  13.851  11.698  0.00  0.00    -0.004 C 
BRANCH  27  28
HETATM   28  C   UNK N   1      36.484  13.034  12.919  0.00  0.00    -0.001 C 
HETATM   29  C   UNK N   1      35.231  12.966  13.438  0.00  0.00     0.010 C 
BRANCH  29  30
HETATM   30  C   UNK N   1      34.798  12.204  14.677  0.00  0.00     0.075 C 
BRANCH  30  31
HETATM   31  C   UNK N   1      36.036  11.542  15.293  0.00  0.00     0.037 C 
HETATM   32  C   UNK N   1      35.853  11.185  16.767  0.00  0.00     0.008 C 
ENDBRANCH  30  31
BRANCH  30  33
HETATM   33  C   UNK N   1      33.788  11.081  14.419  0.00  0.00     0.037 C 
HETATM   34  C   UNK N   1      34.159  10.194  13.243  0.00  0.00     0.008 C 
ENDBRANCH  30  33
BRANCH  30  35
HETATM   35  O   UNK N   1      34.266  13.104  15.606  0.00  0.00    -0.386 OA
HETATM   36  H   UNK N   1      33.760  13.903  15.822  0.00  0.00     0.211 HD
ENDBRANCH  30  35
ENDBRANCH  29  30
ENDBRANCH  27  28
ENDBRANCH  24  26
ENDBRANCH   9  24
TORSDOF 10
ENDMDL
MODEL 3
REMARK VINA RESULT:      -7.3      5.686     11.938
REMARK  10 active torsions:
REMARK  status: ('A' for Active; 'I' for Inactive)
REMARK    1  A    between atoms: C_30  and  C_6 
REMARK    2  A    between atoms: C_30  and  C_7 
REMARK    3  A    between atoms: C_9  and  C_8 
REMARK    4  A    between atoms: C_21  and  C_11 
REMARK    5  A    between atoms: C_14  and  C_13 
REMARK    6  A    between atoms: C_30  and  C_18 
REMARK    7  A    between atoms: C_26  and  C_21 
REMARK    8  A    between atoms: C_25  and  O_31 
REMARK    9  A    between atoms: C_28  and  O_32 
REMARK   10  A    between atoms: O_33  and  C_30 
ROOT
HETATM    1  C   UNK N   1      25.699  17.350   3.061  0.00  0.00     0.016 C 
HETATM    2  C   UNK N   1      26.907  19.984   3.640  0.00  0.00     0.005 C 
HETATM    3  C   UNK N   1      28.030  19.512   4.592  0.00  0.00     0.034 C 
HETATM    4  C   UNK N   1      28.783  17.221   5.286  0.00  0.00     0.004 C 
HETATM    5  C   UNK N   1      24.599  16.164   5.509  0.00  0.00     0.007 C 
HETATM    6  C   UNK N   1      26.070  16.316   5.850  0.00  0.00     0.010 C 
HETATM    7  C   UNK N   1      25.479  19.611   4.118  0.00  0.00     0.010 C 
HETATM    8  C   UNK N   1      27.795  18.104   5.088  0.00  0.00    -0.075 C 
HETATM    9  C   UNK N   1      24.117  17.549   5.024  0.00  0.00     0.002 C 
HETATM   10  C   UNK N   1      26.388  17.762   5.479  0.00  0.00     0.023 C 
HETATM   11  C   UNK N   1      25.395  18.102   4.373  0.00  0.00    -0.032 C 
ENDROOT
BRANCH   4  12
HETATM   12  C   UNK N   1      30.216  17.450   5.007  0.00  0.00     0.008 C 
HETATM   13  C   UNK N   1      31.141  17.183   5.957  0.00  0.00    -0.048 C 
HETATM   14  C   UNK N   1      30.659  16.787   7.346  0.00  0.00     0.071 C 
HETATM   15  C   UNK N   1      32.609  17.317   5.709  0.00  0.00    -0.033 C 
HETATM   16  C   UNK N   1      31.724  16.302   8.305  0.00  0.00     0.125 C 
HETATM   17  C   UNK N   1      32.947  17.193   8.215  0.00  0.00     0.068 C 
HETATM   18  C   UNK N   1      33.603  17.122   6.834  0.00  0.00     0.153 C 
HETATM   19  C   UNK N   1      33.075  17.450   4.458  0.00  0.00     0.022 C 
BRANCH  16  20
HETATM   20  O   UNK N   1      31.210  16.356   9.601  0.00  0.00    -0.395 OA
HETATM   21  H   UNK N   1      31.705  16.161  10.412  0.00  0.00     0.210 HD
ENDBRANCH  16  20
BRANCH  18  22
HETATM   22  O   UNK N   1      34.585  18.111   6.784  0.00  0.00    -0.391 OA
HETATM   23  H   UNK N   1      35.089  18.552   7.485  0.00  0.00     0.210 HD
ENDBRANCH  18  22
ENDBRANCH   4  12
BRANCH   9  24
HETATM   24  C   UNK N   1      22.813  17.470   4.185  0.00  0.00     0.009 C 
HETATM   25  C   UNK N   1      22.466  18.833   3.599  0.00  0.00     0.014 C 
BRANCH  24  26
HETATM   26  C   UNK N   1      21.753  16.926   5.118  0.00  0.00    -0.022 C 
HETATM   27  C   UNK N   1      20.429  16.827   4.902  0.00  0.00    -0.004 C 
BRANCH  27  28
HETATM   28  C   UNK N   1      19.539  16.398   6.019  0.00  0.00    -0.001 C 
HETATM   29  C   UNK N   1      19.666  16.963   7.248  0.00  0.00     0.010 C 
BRANCH  29  30
HETATM   30  C   UNK N   1      18.862  16.632   8.491  0.00  0.00     0.075 C 
BRANCH  30  31
HETATM   31  C   UNK N   1      18.919  17.838   9.437  0.00  0.00     0.037 C 
HETATM   32  C   UNK N   1      17.606  18.077  10.181  0.00  0.00     0.008 C 
ENDBRANCH  30  31
BRANCH  30  33
HETATM   33  C   UNK N   1      19.379  15.430   9.289  0.00  0.00     0.037 C 
HETATM   34  C   UNK N   1      20.866  15.175   9.102  0.00  0.00     0.008 C 
ENDBRANCH  30  33
BRANCH  30  35
HETATM   35  O   UNK N   1      17.529  16.413   8.131  0.00  0.00    -0.386 OA
HETATM   36  H   UNK N   1      16.833  15.856   7.748  0.00  0.00     0.211 HD
ENDBRANCH  30  35
ENDBRANCH  29  30
ENDBRANCH  27  28
ENDBRANCH  24  26
ENDBRANCH   9  24
TORSDOF 10
ENDMDL
MODEL 4
REMARK VINA RESULT:      -7.3      5.788     12.538
REMARK  10 active torsions:
REMARK  status: ('A' for Active; 'I' for Inactive)
REMARK    1  A    between atoms: C_30  and  C_6 
REMARK    2  A    between atoms: C_30  and  C_7 
REMARK    3  A    between atoms: C_9  and  C_8 
REMARK    4  A    between atoms: C_21  and  C_11 
REMARK    5  A    between atoms: C_14  and  C_13 
REMARK    6  A    between atoms: C_30  and  C_18 
REMARK    7  A    between atoms: C_26  and  C_21 
REMARK    8  A    between atoms: C_25  and  O_31 
REMARK    9  A    between atoms: C_28  and  O_32 
REMARK   10  A    between atoms: O_33  and  C_30 
ROOT
HETATM    1  C   UNK N   1      25.708  17.787   2.993  0.00  0.00     0.016 C 
HETATM    2  C   UNK N   1      27.008  20.290   3.875  0.00  0.00     0.005 C 
HETATM    3  C   UNK N   1      28.103  19.670   4.773  0.00  0.00     0.034 C 
HETATM    4  C   UNK N   1      28.762  17.287   5.207  0.00  0.00     0.004 C 
HETATM    5  C   UNK N   1      24.539  16.374   5.283  0.00  0.00     0.007 C 
HETATM    6  C   UNK N   1      26.011  16.430   5.648  0.00  0.00     0.010 C 
HETATM    7  C   UNK N   1      25.563  19.920   4.298  0.00  0.00     0.010 C 
HETATM    8  C   UNK N   1      27.810  18.224   5.105  0.00  0.00    -0.075 C 
HETATM    9  C   UNK N   1      24.114  17.823   4.956  0.00  0.00     0.002 C 
HETATM   10  C   UNK N   1      26.386  17.895   5.445  0.00  0.00     0.023 C 
HETATM   11  C   UNK N   1      25.419  18.396   4.379  0.00  0.00    -0.032 C 
ENDROOT
BRANCH   4  12
HETATM   12  C   UNK N   1      30.205  17.491   4.964  0.00  0.00     0.008 C 
HETATM   13  C   UNK N   1      31.097  17.250   5.951  0.00  0.00    -0.048 C 
HETATM   14  C   UNK N   1      30.568  16.911   7.339  0.00  0.00     0.071 C 
HETATM   15  C   UNK N   1      32.574  17.359   5.745  0.00  0.00    -0.033 C 
HETATM   16  C   UNK N   1      31.597  16.451   8.348  0.00  0.00     0.125 C 
HETATM   17  C   UNK N   1      32.832  17.325   8.263  0.00  0.00     0.068 C 
HETATM   18  C   UNK N   1      33.530  17.196   6.907  0.00  0.00     0.153 C 
HETATM   19  C   UNK N   1      33.079  17.441   4.505  0.00  0.00     0.022 C 
BRANCH  16  20
HETATM   20  O   UNK N   1      31.044  16.559   9.624  0.00  0.00    -0.395 OA
HETATM   21  H   UNK N   1      30.516  17.306   9.948  0.00  0.00     0.210 HD
ENDBRANCH  16  20
BRANCH  18  22
HETATM   22  O   UNK N   1      34.525  18.173   6.851  0.00  0.00    -0.391 OA
HETATM   23  H   UNK N   1      35.257  18.309   6.229  0.00  0.00     0.210 HD
ENDBRANCH  18  22
ENDBRANCH   4  12
BRANCH   9  24
HETATM   24  C   UNK N   1      22.817  17.890   4.105  0.00  0.00     0.009 C 
HETATM   25  C   UNK N   1      21.697  18.570   4.884  0.00  0.00     0.014 C 
BRANCH  24  26
HETATM   26  C   UNK N   1      22.503  16.461   3.717  0.00  0.00    -0.022 C 
HETATM   27  C   UNK N   1      21.368  15.978   3.179  0.00  0.00    -0.004 C 
BRANCH  27  28
HETATM   28  C   UNK N   1      21.211  14.505   3.013  0.00  0.00    -0.001 C 
HETATM   29  C   UNK N   1      21.414  13.930   1.798  0.00  0.00     0.010 C 
BRANCH  29  30
HETATM   30  C   UNK N   1      21.277  12.459   1.452  0.00  0.00     0.075 C 
BRANCH  30  31
HETATM   31  C   UNK N   1      22.549  12.017   0.719  0.00  0.00     0.037 C 
HETATM   32  C   UNK N   1      23.295  13.176   0.060  0.00  0.00     0.008 C 
ENDBRANCH  30  31
BRANCH  30  33
HETATM   33  C   UNK N   1      20.104  12.125   0.525  0.00  0.00     0.037 C 
HETATM   34  C   UNK N   1      19.110  13.265   0.373  0.00  0.00     0.008 C 
ENDBRANCH  30  33
BRANCH  30  35
HETATM   35  O   UNK N   1      21.163  11.718   2.632  0.00  0.00    -0.386 OA
HETATM   36  H   UNK N   1      21.367  11.577   3.570  0.00  0.00     0.211 HD
ENDBRANCH  30  35
ENDBRANCH  29  30
ENDBRANCH  27  28
ENDBRANCH  24  26
ENDBRANCH   9  24
TORSDOF 10
ENDMDL
MODEL 5
REMARK VINA RESULT:      -7.3      5.418     10.067
REMARK  10 active torsions:
REMARK  status: ('A' for Active; 'I' for Inactive)
REMARK    1  A    between atoms: C_30  and  C_6 
REMARK    2  A    between atoms: C_30  and  C_7 
REMARK    3  A    between atoms: C_9  and  C_8 
REMARK    4  A    between atoms: C_21  and  C_11 
REMARK    5  A    between atoms: C_14  and  C_13 
REMARK    6  A    between atoms: C_30  and  C_18 
REMARK    7  A    between atoms: C_26  and  C_21 
REMARK    8  A    between atoms: C_25  and  O_31 
REMARK    9  A    between atoms: C_28  and  O_32 
REMARK   10  A    between atoms: O_33  and  C_30 
ROOT
HETATM    1  C   UNK N   1      26.790  14.380   4.476  0.00  0.00     0.016 C 
HETATM    2  C   UNK N   1      28.321  14.827   1.989  0.00  0.00     0.005 C 
HETATM    3  C   UNK N   1      29.120  16.072   2.438  0.00  0.00     0.034 C 
HETATM    4  C   UNK N   1      29.279  17.252   4.647  0.00  0.00     0.004 C 
HETATM    5  C   UNK N   1      25.016  16.654   5.014  0.00  0.00     0.007 C 
HETATM    6  C   UNK N   1      26.389  17.300   5.020  0.00  0.00     0.010 C 
HETATM    7  C   UNK N   1      26.782  15.011   2.052  0.00  0.00     0.010 C 
HETATM    8  C   UNK N   1      28.533  16.703   3.680  0.00  0.00    -0.075 C 
HETATM    9  C   UNK N   1      24.906  15.872   3.686  0.00  0.00     0.002 C 
HETATM   10  C   UNK N   1      27.037  16.803   3.731  0.00  0.00     0.023 C 
HETATM   11  C   UNK N   1      26.370  15.460   3.459  0.00  0.00    -0.032 C 
ENDROOT
BRANCH   4  12
HETATM   12  C   UNK N   1      30.756  17.282   4.688  0.00  0.00     0.008 C 
HETATM   13  C   UNK N   1      31.399  17.276   5.878  0.00  0.00    -0.048 C 
HETATM   14  C   UNK N   1      30.569  17.386   7.150  0.00  0.00     0.071 C 
HETATM   15  C   UNK N   1      32.890  17.223   5.986  0.00  0.00    -0.033 C 
HETATM   16  C   UNK N   1      31.314  17.168   8.449  0.00  0.00     0.125 C 
HETATM   17  C   UNK N   1      32.642  17.897   8.414  0.00  0.00     0.068 C 
HETATM   18  C   UNK N   1      33.570  17.338   7.333  0.00  0.00     0.153 C 
HETATM   19  C   UNK N   1      33.635  16.911   4.915  0.00  0.00     0.022 C 
BRANCH  16  20
HETATM   20  O   UNK N   1      30.539  17.674   9.493  0.00  0.00    -0.395 OA
HETATM   21  H   UNK N   1      29.981  17.147  10.087  0.00  0.00     0.210 HD
ENDBRANCH  16  20
BRANCH  18  22
HETATM   22  O   UNK N   1      34.672  18.189   7.243  0.00  0.00    -0.391 OA
HETATM   23  H   UNK N   1      35.622  18.023   7.348  0.00  0.00     0.210 HD
ENDBRANCH  18  22
ENDBRANCH   4  12
BRANCH   9  24
HETATM   24  C   UNK N   1      23.809  14.775   3.725  0.00  0.00     0.009 C 
HETATM   25  C   UNK N   1      22.569  15.226   2.963  0.00  0.00     0.014 C 
BRANCH  24  26
HETATM   26  C   UNK N   1      23.550  14.500   5.191  0.00  0.00    -0.022 C 
HETATM   27  C   UNK N   1      22.373  14.512   5.842  0.00  0.00    -0.004 C 
BRANCH  27  28
HETATM   28  C   UNK N   1      22.360  14.361   7.326  0.00  0.00    -0.001 C 
HETATM   29  C   UNK N   1      22.701  13.174   7.893  0.00  0.00     0.010 C 
BRANCH  29  30
HETATM   30  C   UNK N   1      22.722  12.845   9.374  0.00  0.00     0.075 C 
BRANCH  30  31
HETATM   31  C   UNK N   1      23.085  11.363   9.533  0.00  0.00     0.037 C 
HETATM   32  C   UNK N   1      23.472  10.697   8.213  0.00  0.00     0.008 C 
ENDBRANCH  30  31
BRANCH  30  33
HETATM   33  C   UNK N   1      21.384  13.044  10.094  0.00  0.00     0.037 C 
HETATM   34  C   UNK N   1      21.229  12.174  11.331  0.00  0.00     0.008 C 
ENDBRANCH  30  33
BRANCH  30  35
HETATM   35  O   UNK N   1      23.707  13.614  10.002  0.00  0.00    -0.386 OA
HETATM   36  H   UNK N   1      24.310  14.373  10.017  0.00  0.00     0.211 HD
ENDBRANCH  30  35
ENDBRANCH  29  30
ENDBRANCH  27  28
ENDBRANCH  24  26
ENDBRANCH   9  24
TORSDOF 10
ENDMDL
MODEL 6
REMARK VINA RESULT:      -7.2      4.655      8.380
REMARK  10 active torsions:
REMARK  status: ('A' for Active; 'I' for Inactive)
REMARK    1  A    between atoms: C_30  and  C_6 
REMARK    2  A    between atoms: C_30  and  C_7 
REMARK    3  A    between atoms: C_9  and  C_8 
REMARK    4  A    between atoms: C_21  and  C_11 
REMARK    5  A    between atoms: C_14  and  C_13 
REMARK    6  A    between atoms: C_30  and  C_18 
REMARK    7  A    between atoms: C_26  and  C_21 
REMARK    8  A    between atoms: C_25  and  O_31 
REMARK    9  A    between atoms: C_28  and  O_32 
REMARK   10  A    between atoms: O_33  and  C_30 
ROOT
HETATM    1  C   UNK N   1      27.988  16.667   3.091  0.00  0.00     0.016 C 
HETATM    2  C   UNK N   1      25.827  15.092   1.833  0.00  0.00     0.005 C 
HETATM    3  C   UNK N   1      24.740  15.301   2.912  0.00  0.00     0.034 C 
HETATM    4  C   UNK N   1      24.690  16.709   4.989  0.00  0.00     0.004 C 
HETATM    5  C   UNK N   1      28.776  15.468   5.650  0.00  0.00     0.007 C 
HETATM    6  C   UNK N   1      27.310  15.791   5.876  0.00  0.00     0.010 C 
HETATM    7  C   UNK N   1      27.124  14.430   2.366  0.00  0.00     0.010 C 
HETATM    8  C   UNK N   1      25.320  15.823   4.206  0.00  0.00    -0.075 C 
HETATM    9  C   UNK N   1      28.847  14.645   4.345  0.00  0.00     0.002 C 
HETATM   10  C   UNK N   1      26.610  15.202   4.654  0.00  0.00     0.023 C 
HETATM   11  C   UNK N   1      27.666  15.232   3.555  0.00  0.00    -0.032 C 
ENDROOT
BRANCH   4  12
HETATM   12  C   UNK N   1      23.389  17.347   4.699  0.00  0.00     0.008 C 
HETATM   13  C   UNK N   1      23.336  18.450   3.919  0.00  0.00    -0.048 C 
HETATM   14  C   UNK N   1      24.647  19.089   3.479  0.00  0.00     0.071 C 
HETATM   15  C   UNK N   1      22.046  19.094   3.524  0.00  0.00    -0.033 C 
HETATM   16  C   UNK N   1      24.535  20.190   2.447  0.00  0.00     0.125 C 
HETATM   17  C   UNK N   1      23.387  21.115   2.798  0.00  0.00     0.068 C 
HETATM   18  C   UNK N   1      22.038  20.395   2.749  0.00  0.00     0.153 C 
HETATM   19  C   UNK N   1      20.884  18.449   3.706  0.00  0.00     0.022 C 
BRANCH  16  20
HETATM   20  O   UNK N   1      25.727  20.915   2.443  0.00  0.00    -0.395 OA
HETATM   21  H   UNK N   1      25.822  21.843   2.712  0.00  0.00     0.210 HD
ENDBRANCH  16  20
BRANCH  18  22
HETATM   22  O   UNK N   1      21.079  21.260   3.274  0.00  0.00    -0.391 OA
HETATM   23  H   UNK N   1      21.076  22.223   3.387  0.00  0.00     0.210 HD
ENDBRANCH  18  22
ENDBRANCH   4  12
BRANCH   9  24
HETATM   24  C   UNK N   1      30.262  14.653   3.707  0.00  0.00     0.009 C 
HETATM   25  C   UNK N   1      30.829  13.240   3.635  0.00  0.00     0.014 C 
BRANCH  24  26
HETATM   26  C   UNK N   1      31.092  15.595   4.553  0.00  0.00    -0.022 C 
HETATM   27  C   UNK N   1      31.937  16.556   4.138  0.00  0.00    -0.004 C 
BRANCH  27  28
HETATM   28  C   UNK N   1      32.774  17.273   5.144  0.00  0.00    -0.001 C 
HETATM   29  C   UNK N   1      32.783  16.863   6.439  0.00  0.00     0.010 C 
BRANCH  29  30
HETATM   30  C   UNK N   1      33.556  17.487   7.586  0.00  0.00     0.075 C 
BRANCH  30  31
HETATM   31  C   UNK N   1      34.121  16.359   8.457  0.00  0.00     0.037 C 
HETATM   32  C   UNK N   1      34.922  16.869   9.654  0.00  0.00     0.008 C 
ENDBRANCH  30  31
BRANCH  30  33
HETATM   33  C   UNK N   1      32.721  18.376   8.514  0.00  0.00     0.037 C 
HETATM   34  C   UNK N   1      31.255  17.980   8.571  0.00  0.00     0.008 C 
ENDBRANCH  30  33
BRANCH  30  35
HETATM   35  O   UNK N   1      34.625  18.228   7.071  0.00  0.00    -0.386 OA
HETATM   36  H   UNK N   1      34.986  19.039   6.680  0.00  0.00     0.211 HD
ENDBRANCH  30  35
ENDBRANCH  29  30
ENDBRANCH  27  28
ENDBRANCH  24  26
ENDBRANCH   9  24
TORSDOF 10
ENDMDL
MODEL 7
REMARK VINA RESULT:      -7.2      5.001     10.077
REMARK  10 active torsions:
REMARK  status: ('A' for Active; 'I' for Inactive)
REMARK    1  A    between atoms: C_30  and  C_6 
REMARK    2  A    between atoms: C_30  and  C_7 
REMARK    3  A    between atoms: C_9  and  C_8 
REMARK    4  A    between atoms: C_21  and  C_11 
REMARK    5  A    between atoms: C_14  and  C_13 
REMARK    6  A    between atoms: C_30  and  C_18 
REMARK    7  A    between atoms: C_26  and  C_21 
REMARK    8  A    between atoms: C_25  and  O_31 
REMARK    9  A    between atoms: C_28  and  O_32 
REMARK   10  A    between atoms: O_33  and  C_30 
ROOT
HETATM    1  C   UNK N   1      28.833  14.634   5.370  0.00  0.00     0.016 C 
HETATM    2  C   UNK N   1      30.304  16.663   3.806  0.00  0.00     0.005 C 
HETATM    3  C   UNK N   1      30.643  17.635   4.960  0.00  0.00     0.034 C 
HETATM    4  C   UNK N   1      30.280  17.481   7.439  0.00  0.00     0.004 C 
HETATM    5  C   UNK N   1      26.404  15.797   6.536  0.00  0.00     0.007 C 
HETATM    6  C   UNK N   1      27.503  16.645   7.150  0.00  0.00     0.010 C 
HETATM    7  C   UNK N   1      28.785  16.419   3.613  0.00  0.00     0.010 C 
HETATM    8  C   UNK N   1      29.808  17.363   6.191  0.00  0.00    -0.075 C 
HETATM    9  C   UNK N   1      26.632  15.827   5.008  0.00  0.00     0.002 C 
HETATM   10  C   UNK N   1      28.356  17.066   5.957  0.00  0.00     0.023 C 
HETATM   11  C   UNK N   1      28.163  15.952   4.935  0.00  0.00    -0.032 C 
ENDROOT
BRANCH   4  12
HETATM   12  C   UNK N   1      31.668  17.830   7.809  0.00  0.00     0.008 C 
HETATM   13  C   UNK N   1      32.518  16.866   8.230  0.00  0.00    -0.048 C 
HETATM   14  C   UNK N   1      31.969  15.462   8.450  0.00  0.00     0.071 C 
HETATM   15  C   UNK N   1      33.954  17.141   8.542  0.00  0.00    -0.033 C 
HETATM   16  C   UNK N   1      32.995  14.384   8.719  0.00  0.00     0.125 C 
HETATM   17  C   UNK N   1      34.034  14.890   9.699  0.00  0.00     0.068 C 
HETATM   18  C   UNK N   1      34.838  16.058   9.123  0.00  0.00     0.153 C 
HETATM   19  C   UNK N   1      34.520  18.296   8.161  0.00  0.00     0.022 C 
BRANCH  16  20
HETATM   20  O   UNK N   1      32.342  13.280   9.271  0.00  0.00    -0.395 OA
HETATM   21  H   UNK N   1      32.762  12.586   9.803  0.00  0.00     0.210 HD
ENDBRANCH  16  20
BRANCH  18  22
HETATM   22  O   UNK N   1      35.620  16.580  10.154  0.00  0.00    -0.391 OA
HETATM   23  H   UNK N   1      36.399  16.227  10.611  0.00  0.00     0.210 HD
ENDBRANCH  18  22
ENDBRANCH   4  12
BRANCH   9  24
HETATM   24  C   UNK N   1      25.934  14.651   4.275  0.00  0.00     0.009 C 
HETATM   25  C   UNK N   1      25.506  15.068   2.872  0.00  0.00     0.014 C 
BRANCH  24  26
HETATM   26  C   UNK N   1      24.778  14.238   5.161  0.00  0.00    -0.022 C 
HETATM   27  C   UNK N   1      24.313  12.998   5.394  0.00  0.00    -0.004 C 
BRANCH  27  28
HETATM   28  C   UNK N   1      23.062  12.827   6.187  0.00  0.00    -0.001 C 
HETATM   29  C   UNK N   1      22.780  13.677   7.209  0.00  0.00     0.010 C 
BRANCH  29  30
HETATM   30  C   UNK N   1      21.571  13.634   8.124  0.00  0.00     0.075 C 
BRANCH  30  31
HETATM   31  C   UNK N   1      20.626  14.775   7.728  0.00  0.00     0.037 C 
HETATM   32  C   UNK N   1      20.587  15.904   8.757  0.00  0.00     0.008 C 
ENDBRANCH  30  31
BRANCH  30  33
HETATM   33  C   UNK N   1      21.884  13.826   9.611  0.00  0.00     0.037 C 
HETATM   34  C   UNK N   1      21.517  12.624  10.466  0.00  0.00     0.008 C 
ENDBRANCH  30  33
BRANCH  30  35
HETATM   35  O   UNK N   1      20.901  12.419   7.943  0.00  0.00    -0.386 OA
HETATM   36  H   UNK N   1      20.903  11.453   7.856  0.00  0.00     0.211 HD
ENDBRANCH  30  35
ENDBRANCH  29  30
ENDBRANCH  27  28
ENDBRANCH  24  26
ENDBRANCH   9  24
TORSDOF 10
ENDMDL
MODEL 8
REMARK VINA RESULT:      -7.2      5.438     11.160
REMARK  10 active torsions:
REMARK  status: ('A' for Active; 'I' for Inactive)
REMARK    1  A    between atoms: C_30  and  C_6 
REMARK    2  A    between atoms: C_30  and  C_7 
REMARK    3  A    between atoms: C_9  and  C_8 
REMARK    4  A    between atoms: C_21  and  C_11 
REMARK    5  A    between atoms: C_14  and  C_13 
REMARK    6  A    between atoms: C_30  and  C_18 
REMARK    7  A    between atoms: C_26  and  C_21 
REMARK    8  A    between atoms: C_25  and  O_31 
REMARK    9  A    between atoms: C_28  and  O_32 
REMARK   10  A    between atoms: O_33  and  C_30 
ROOT
HETATM    1  C   UNK N   1      26.771  14.814   4.713  0.00  0.00     0.016 C 
HETATM    2  C   UNK N   1      28.506  14.462   2.347  0.00  0.00     0.005 C 
HETATM    3  C   UNK N   1      29.387  15.719   2.525  0.00  0.00     0.034 C 
HETATM    4  C   UNK N   1      29.506  17.435   4.353  0.00  0.00     0.004 C 
HETATM    5  C   UNK N   1      25.189  17.274   4.470  0.00  0.00     0.007 C 
HETATM    6  C   UNK N   1      26.615  17.795   4.433  0.00  0.00     0.010 C 
HETATM    7  C   UNK N   1      26.991  14.768   2.218  0.00  0.00     0.010 C 
HETATM    8  C   UNK N   1      28.779  16.702   3.499  0.00  0.00    -0.075 C 
HETATM    9  C   UNK N   1      25.098  16.173   3.390  0.00  0.00     0.002 C 
HETATM   10  C   UNK N   1      27.299  16.922   3.384  0.00  0.00     0.023 C 
HETATM   11  C   UNK N   1      26.528  15.608   3.414  0.00  0.00    -0.032 C 
ENDROOT
BRANCH   4  12
HETATM   12  C   UNK N   1      30.973  17.366   4.520  0.00  0.00     0.008 C 
HETATM   13  C   UNK N   1      31.510  17.328   5.761  0.00  0.00    -0.048 C 
HETATM   14  C   UNK N   1      30.584  17.506   6.957  0.00  0.00     0.071 C 
HETATM   15  C   UNK N   1      32.978  17.177   5.997  0.00  0.00    -0.033 C 
HETATM   16  C   UNK N   1      31.198  17.251   8.315  0.00  0.00     0.125 C 
HETATM   17  C   UNK N   1      32.571  17.889   8.392  0.00  0.00     0.068 C 
HETATM   18  C   UNK N   1      33.548  17.258   7.397  0.00  0.00     0.153 C 
HETATM   19  C   UNK N   1      33.790  16.805   4.995  0.00  0.00     0.022 C 
BRANCH  16  20
HETATM   20  O   UNK N   1      30.373  17.818   9.287  0.00  0.00    -0.395 OA
HETATM   21  H   UNK N   1      30.362  17.577  10.227  0.00  0.00     0.210 HD
ENDBRANCH  16  20
BRANCH  18  22
HETATM   22  O   UNK N   1      34.708  18.032   7.398  0.00  0.00    -0.391 OA
HETATM   23  H   UNK N   1      35.151  18.528   6.691  0.00  0.00     0.210 HD
ENDBRANCH  18  22
ENDBRANCH   4  12
BRANCH   9  24
HETATM   24  C   UNK N   1      23.900  15.211   3.614  0.00  0.00     0.009 C 
HETATM   25  C   UNK N   1      23.113  15.021   2.323  0.00  0.00     0.014 C 
BRANCH  24  26
HETATM   26  C   UNK N   1      23.086  15.819   4.735  0.00  0.00    -0.022 C 
HETATM   27  C   UNK N   1      22.958  15.380   6.000  0.00  0.00    -0.004 C 
BRANCH  27  28
HETATM   28  C   UNK N   1      21.980  16.047   6.907  0.00  0.00    -0.001 C 
HETATM   29  C   UNK N   1      20.825  15.417   7.247  0.00  0.00     0.010 C 
BRANCH  29  30
HETATM   30  C   UNK N   1      19.720  15.956   8.135  0.00  0.00     0.075 C 
BRANCH  30  31
HETATM   31  C   UNK N   1      20.118  17.361   8.601  0.00  0.00     0.037 C 
HETATM   32  C   UNK N   1      19.007  18.075   9.370  0.00  0.00     0.008 C 
ENDBRANCH  30  31
BRANCH  30  33
HETATM   33  C   UNK N   1      19.458  15.136   9.403  0.00  0.00     0.037 C 
HETATM   34  C   UNK N   1      20.548  14.120   9.701  0.00  0.00     0.008 C 
ENDBRANCH  30  33
BRANCH  30  35
HETATM   35  O   UNK N   1      18.539  16.052   7.391  0.00  0.00    -0.386 OA
HETATM   36  H   UNK N   1      18.013  16.450   6.681  0.00  0.00     0.211 HD
ENDBRANCH  30  35
ENDBRANCH  29  30
ENDBRANCH  27  28
ENDBRANCH  24  26
ENDBRANCH   9  24
TORSDOF 10
ENDMDL
MODEL 9
REMARK VINA RESULT:      -7.2      5.560     12.457
REMARK  10 active torsions:
REMARK  status: ('A' for Active; 'I' for Inactive)
REMARK    1  A    between atoms: C_30  and  C_6 
REMARK    2  A    between atoms: C_30  and  C_7 
REMARK    3  A    between atoms: C_9  and  C_8 
REMARK    4  A    between atoms: C_21  and  C_11 
REMARK    5  A    between atoms: C_14  and  C_13 
REMARK    6  A    between atoms: C_30  and  C_18 
REMARK    7  A    between atoms: C_26  and  C_21 
REMARK    8  A    between atoms: C_25  and  O_31 
REMARK    9  A    between atoms: C_28  and  O_32 
REMARK   10  A    between atoms: O_33  and  C_30 
ROOT
HETATM    1  C   UNK N   1      25.988  13.576   3.872  0.00  0.00     0.016 C 
HETATM    2  C   UNK N   1      28.593  12.913   2.646  0.00  0.00     0.005 C 
HETATM    3  C   UNK N   1      29.352  14.209   3.016  0.00  0.00     0.034 C 
HETATM    4  C   UNK N   1      28.699  16.190   4.412  0.00  0.00     0.004 C 
HETATM    5  C   UNK N   1      24.803  15.919   2.564  0.00  0.00     0.007 C 
HETATM    6  C   UNK N   1      26.109  16.471   3.105  0.00  0.00     0.010 C 
HETATM    7  C   UNK N   1      27.320  13.151   1.794  0.00  0.00     0.010 C 
HETATM    8  C   UNK N   1      28.410  15.313   3.442  0.00  0.00    -0.075 C 
HETATM    9  C   UNK N   1      25.165  14.663   1.742  0.00  0.00     0.002 C 
HETATM   10  C   UNK N   1      27.157  15.468   2.631  0.00  0.00     0.023 C 
HETATM   11  C   UNK N   1      26.400  14.152   2.502  0.00  0.00    -0.032 C 
ENDROOT
BRANCH   4  12
HETATM   12  C   UNK N   1      29.923  16.191   5.241  0.00  0.00     0.008 C 
HETATM   13  C   UNK N   1      29.894  16.714   6.488  0.00  0.00    -0.048 C 
HETATM   14  C   UNK N   1      28.626  17.422   6.947  0.00  0.00     0.071 C 
HETATM   15  C   UNK N   1      31.075  16.673   7.404  0.00  0.00    -0.033 C 
HETATM   16  C   UNK N   1      28.573  17.804   8.410  0.00  0.00     0.125 C 
HETATM   17  C   UNK N   1      29.900  18.396   8.840  0.00  0.00     0.068 C 
HETATM   18  C   UNK N   1      31.036  17.374   8.745  0.00  0.00     0.153 C 
HETATM   19  C   UNK N   1      32.121  15.881   7.124  0.00  0.00     0.022 C 
BRANCH  16  20
HETATM   20  O   UNK N   1      27.568  18.757   8.581  0.00  0.00    -0.395 OA
HETATM   21  H   UNK N   1      26.933  19.035   7.901  0.00  0.00     0.210 HD
ENDBRANCH  16  20
BRANCH  18  22
HETATM   22  O   UNK N   1      32.234  18.055   8.964  0.00  0.00    -0.391 OA
HETATM   23  H   UNK N   1      32.482  18.981   8.817  0.00  0.00     0.210 HD
ENDBRANCH  18  22
ENDBRANCH   4  12
BRANCH   9  24
HETATM   24  C   UNK N   1      23.956  13.712   1.535  0.00  0.00     0.009 C 
HETATM   25  C   UNK N   1      23.861  13.269   0.080  0.00  0.00     0.014 C 
BRANCH  24  26
HETATM   26  C   UNK N   1      22.742  14.476   2.015  0.00  0.00    -0.022 C 
HETATM   27  C   UNK N   1      21.653  14.833   1.309  0.00  0.00    -0.004 C 
BRANCH  27  28
HETATM   28  C   UNK N   1      20.634  15.720   1.941  0.00  0.00    -0.001 C 
HETATM   29  C   UNK N   1      21.026  16.769   2.710  0.00  0.00     0.010 C 
BRANCH  29  30
HETATM   30  C   UNK N   1      20.127  17.751   3.438  0.00  0.00     0.075 C 
BRANCH  30  31
HETATM   31  C   UNK N   1      19.665  18.816   2.436  0.00  0.00     0.037 C 
HETATM   32  C   UNK N   1      20.803  19.706   1.940  0.00  0.00     0.008 C 
ENDBRANCH  30  31
BRANCH  30  33
HETATM   33  C   UNK N   1      20.799  18.503   4.591  0.00  0.00     0.037 C 
HETATM   34  C   UNK N   1      22.071  17.835   5.088  0.00  0.00     0.008 C 
ENDBRANCH  30  33
BRANCH  30  35
HETATM   35  O   UNK N   1      19.001  17.074   3.918  0.00  0.00    -0.386 OA
HETATM   36  H   UNK N   1      18.314  16.396   3.825  0.00  0.00     0.211 HD
ENDBRANCH  30  35
ENDBRANCH  29  30
ENDBRANCH  27  28
ENDBRANCH  24  26
ENDBRANCH   9  24
TORSDOF 10
ENDMDL
