REMARK  13 active torsions:
REMARK  status: ('A' for Active; 'I' for Inactive)
REMARK    1  A    between atoms: O_1  and  C_2 
REMARK    2  A    between atoms: C_2  and  C_3 
REMARK    3  A    between atoms: C_3  and  C_5 
REMARK    4  A    between atoms: C_5  and  O_6 
REMARK    5  A    between atoms: C_5  and  C_7 
REMARK    6  A    between atoms: C_7  and  O_8 
REMARK    7  A    between atoms: C_7  and  C_9 
REMARK    8  A    between atoms: C_9  and  O_10 
REMARK    9  A    between atoms: C_9  and  C_11 
REMARK   10  A    between atoms: C_11  and  O_12 
REMARK   11  A    between atoms: O_12  and  P_13 
REMARK   12  A    between atoms: P_13  and  O_14 
REMARK   13  A    between atoms: P_13  and  O_15 
ROOT
HETATM    1  C   UNK N   1       5.173  -2.224  -0.033  0.00  0.00     0.185 C 
ENDROOT
BRANCH   1   2
HETATM    2  C   UNK N   1       3.700  -2.668  -0.104  0.00  0.00     0.221 C 
BRANCH   2   3
HETATM    3  C   UNK N   1       2.699  -1.598   0.281  0.00  0.00     0.181 C 
HETATM    4  O   UNK N   1       3.080  -0.497   0.650  0.00  0.00    -0.293 OA
BRANCH   3   5
HETATM    5  C   UNK N   1       1.221  -1.857   0.207  0.00  0.00     0.245 C 
BRANCH   5   6
HETATM    6  O   UNK N   1       0.943  -3.155  -0.228  0.00  0.00    -0.393 OA
HETATM    7  H   UNK N   1       0.066  -3.438  -0.530  0.00  0.00     0.209 HD
ENDBRANCH   5   6
ENDBRANCH   3   5
ENDBRANCH   2   3
BRANCH   2   8
HETATM    8  O   UNK N   1       3.520  -3.777   0.728  0.00  0.00    -0.385 OA
HETATM    9  H   UNK N   1       2.791  -4.053   1.305  0.00  0.00     0.210 HD
ENDBRANCH   2   8
ENDBRANCH   1   2
BRANCH   1  10
HETATM   10  O   UNK N   1       5.360  -1.022  -0.718  0.00  0.00    -0.390 OA
HETATM   11  H   UNK N   1       6.149  -0.717  -1.194  0.00  0.00     0.210 HD
ENDBRANCH   1  10
BRANCH   1  12
HETATM   12  C   UNK N   1       6.169  -3.248  -0.605  0.00  0.00     0.174 C 
BRANCH  12  13
HETATM   13  O   UNK N   1       5.565  -4.438  -1.018  0.00  0.00    -0.391 OA
HETATM   14  H   UNK N   1       4.640  -4.489  -1.304  0.00  0.00     0.210 HD
ENDBRANCH  12  13
BRANCH  12  15
HETATM   15  C   UNK N   1       7.315  -3.560   0.355  0.00  0.00     0.215 C 
BRANCH  15  16
HETATM   16  O   UNK N   1       7.877  -2.404   0.924  0.00  0.00    -0.294 OA
BRANCH  16  17
HETATM   17  P   UNK N   1       8.932  -1.704  -0.276  0.00  0.00     0.390 P 
HETATM   18  O   UNK N   1       8.309  -0.460   0.414  0.00  0.00    -0.632 OA
BRANCH  17  19
HETATM   19  O   UNK N   1      10.315  -0.766   0.192  0.00  0.00    -0.307 OA
HETATM   20  H   UNK N   1      11.156  -1.174   0.454  0.00  0.00     0.222 HD
ENDBRANCH  17  19
BRANCH  17  21
HETATM   21  O   UNK N   1       9.917  -2.575   0.861  0.00  0.00    -0.307 OA
HETATM   22  H   UNK N   1       9.770  -3.294   1.495  0.00  0.00     0.222 HD
ENDBRANCH  17  21
ENDBRANCH  16  17
ENDBRANCH  15  16
ENDBRANCH  12  15
ENDBRANCH   1  12
TORSDOF 13
