REMARK  20 active torsions:
REMARK  status: ('A' for Active; 'I' for Inactive)
REMARK    1  A    between atoms: C_3  and  C_2 
REMARK    2  A    between atoms: C_4  and  C_3 
REMARK    3  A    between atoms: C_5  and  C_4 
REMARK    4  A    between atoms: C_8  and  C_5 
REMARK    5  A    between atoms: C_7  and  C_6 
REMARK    6  A    between atoms: C_11  and  C_6 
REMARK    7  A    between atoms: C_13  and  C_7 
REMARK    8  A    between atoms: S_28  and  C_8 
REMARK    9  A    between atoms: C_14  and  C_9 
REMARK   10  A    between atoms: N_18  and  C_9 
REMARK   11  A    between atoms: C_12  and  C_10 
REMARK   12  A    between atoms: S_28  and  C_10 
REMARK   13  A    between atoms: C_16  and  C_11 
REMARK   14  A    between atoms: C_11  and  N_17 
REMARK   15  A    between atoms: C_15  and  C_12 
REMARK   16  A    between atoms: C_12  and  N_20 
REMARK   17  A    between atoms: C_13  and  O_22 
REMARK   18  A    between atoms: O_24  and  C_14 
REMARK   19  A    between atoms: O_25  and  C_15 
REMARK   20  A    between atoms: O_27  and  C_16 
ROOT
HETATM    1  C   UNK N   1       1.352   1.844   0.914  0.00  0.00     0.167 C 
ENDROOT
BRANCH   1   2
HETATM    2  C   UNK N   1       0.348   2.829   0.282  0.00  0.00     0.107 C 
BRANCH   2   3
HETATM    3  S   UNK N   1      -0.463   2.296  -1.259  0.00  0.00    -0.167 SA
BRANCH   3   4
HETATM    4  C   UNK N   1      -2.102   2.496  -0.502  0.00  0.00     0.074 C 
BRANCH   4   5
HETATM    5  C   UNK N   1      -2.373   1.345   0.450  0.00  0.00     0.010 C 
BRANCH   5   6
HETATM    6  C   UNK N   1      -3.784   1.422   1.002  0.00  0.00     0.001 C 
BRANCH   6   7
HETATM    7  C   UNK N   1      -4.769   0.744   0.065  0.00  0.00    -0.000 C 
BRANCH   7   8
HETATM    8  C   UNK N   1      -5.133   1.664  -1.084  0.00  0.00    -0.005 C 
HETATM    9  C   UNK N   1      -6.356   1.124  -1.791  0.00  0.00     0.005 C 
ENDBRANCH   7   8
ENDBRANCH   6   7
ENDBRANCH   5   6
ENDBRANCH   4   5
ENDBRANCH   3   4
ENDBRANCH   2   3
ENDBRANCH   1   2
BRANCH   1  10
HETATM   10  C   UNK N   1       1.316   0.410   0.399  0.00  0.00     0.136 C 
HETATM   11  N   UNK N   1       2.392  -0.161  -0.031  0.00  0.00    -0.363 N 
ATOM     12  HN  UNK N   1       3.263   0.371  -0.049  1.00  0.00     0.161 HD
BRANCH  11  13
HETATM   13  C   UNK N   1       2.397  -1.533  -0.488  0.00  0.00     0.231 C 
BRANCH  13  14
HETATM   14  C   UNK N   1       3.687  -2.224  -0.149  0.00  0.00     0.158 C 
HETATM   15  O   UNK N   1       4.589  -1.626   0.416  0.00  0.00    -0.649 OA
BRANCH  14  16
HETATM   16  O   UNK N   1       3.852  -3.518  -0.482  0.00  0.00    -0.775 OA
HETATM   17  H   UNK N   1       3.130  -4.068  -0.714  0.00  0.00     0.167 HD
ENDBRANCH  14  16
ENDBRANCH  13  14
ENDBRANCH  11  13
BRANCH  10  18
HETATM   18  O   UNK N   1       0.155  -0.276   0.434  0.00  0.00    -0.348 OA
HETATM   19  H   UNK N   1      -0.661   0.184   0.458  0.00  0.00     0.219 HD
ENDBRANCH  10  18
ENDBRANCH   1  10
BRANCH   1  20
HETATM   20  N   UNK N   1       2.678   2.438   0.876  0.00  0.00    -0.362 N 
HETATM   21  C   UNK N   1       3.319   2.725  -0.209  0.00  0.00     0.111 C 
ATOM     22  HN  UNK N   1       3.134   2.641   1.766  1.00  0.00     0.162 HD
BRANCH  21  23
HETATM   23  C   UNK N   1       4.647   3.396  -0.118  0.00  0.00     0.086 C 
BRANCH  23  24
HETATM   24  C   UNK N   1       5.714   2.511  -0.732  0.00  0.00     0.043 C 
BRANCH  24  25
HETATM   25  C   UNK N   1       6.671   1.991   0.331  0.00  0.00     0.173 C 
BRANCH  25  26
HETATM   26  C   UNK N   1       7.557   0.944  -0.271  0.00  0.00     0.163 C 
HETATM   27  O   UNK N   1       8.293   1.221  -1.206  0.00  0.00    -0.648 OA
BRANCH  26  28
HETATM   28  O   UNK N   1       7.539  -0.312   0.214  0.00  0.00    -0.775 OA
HETATM   29  H   UNK N   1       6.775  -0.737   0.552  0.00  0.00     0.167 HD
ENDBRANCH  26  28
ENDBRANCH  25  26
BRANCH  25  30
HETATM   30  N   UNK N   1       7.482   3.082   0.849  0.00  0.00    -0.418 N 
HETATM   31  H   UNK N   1       8.429   2.973   1.211  0.00  0.00     0.150 HD
HETATM   32  H   UNK N   1       7.077   4.018   0.849  0.00  0.00     0.150 HD
ENDBRANCH  25  30
ENDBRANCH  24  25
ENDBRANCH  23  24
ENDBRANCH  21  23
BRANCH  21  33
HETATM   33  O   UNK N   1       2.792   2.453  -1.422  0.00  0.00    -0.350 OA
HETATM   34  H   UNK N   1       2.446   2.676  -2.263  0.00  0.00     0.219 HD
ENDBRANCH  21  33
ENDBRANCH   1  20
TORSDOF 20
