MODEL 1
REMARK VINA RESULT:      -4.2      0.000      0.000
REMARK  1 active torsions:
REMARK  status: ('A' for Active; 'I' for Inactive)
REMARK    1  A    between atoms: C_5  and  N_6 
ROOT
HETATM    1  C   UNK N   1      23.831  19.326   3.828  0.00  0.00     0.160 C 
HETATM    2  N   UNK N   1      22.440  19.200   3.421  0.00  0.00    -0.314 N 
HETATM    3  C   UNK N   1      21.822  18.003   3.586  0.00  0.00     0.099 A 
HETATM    4  C   UNK N   1      20.492  17.838   3.210  0.00  0.00     0.065 A 
HETATM    5  C   UNK N   1      19.810  18.922   2.665  0.00  0.00     0.103 A 
HETATM    6  N   UNK N   1      20.441  20.114   2.507  0.00  0.00    -0.295 N 
ATOM      7  HN  UNK N   1      19.936  20.904   2.106  1.00  0.00     0.172 HD
HETATM    8  C   UNK N   1      21.753  20.268   2.879  0.00  0.00     0.327 A 
HETATM    9  O   UNK N   1      22.300  21.346   2.729  0.00  0.00    -0.246 OA
ENDROOT
BRANCH   5  10
HETATM   10  N   UNK N   1      18.465  18.778   2.278  0.00  0.00    -0.385 N 
HETATM   11  H   UNK N   1      17.803  19.460   2.535  0.00  0.00     0.157 HD
HETATM   12  H   UNK N   1      18.185  17.996   1.750  0.00  0.00     0.157 HD
ENDBRANCH   5  10
TORSDOF 1
ENDMDL
MODEL 2
REMARK VINA RESULT:      -4.2     10.597     11.458
REMARK  1 active torsions:
REMARK  status: ('A' for Active; 'I' for Inactive)
REMARK    1  A    between atoms: C_5  and  N_6 
ROOT
HETATM    1  C   UNK N   1      25.875  23.675  -5.544  0.00  0.00     0.160 C 
HETATM    2  N   UNK N   1      25.850  25.022  -4.995  0.00  0.00    -0.314 N 
HETATM    3  C   UNK N   1      25.329  26.020  -5.751  0.00  0.00     0.099 A 
HETATM    4  C   UNK N   1      25.285  27.324  -5.264  0.00  0.00     0.065 A 
HETATM    5  C   UNK N   1      25.785  27.582  -3.992  0.00  0.00     0.103 A 
HETATM    6  N   UNK N   1      26.305  26.572  -3.246  0.00  0.00    -0.295 N 
ATOM      7  HN  UNK N   1      26.669  26.768  -2.314  1.00  0.00     0.172 HD
HETATM    8  C   UNK N   1      26.344  25.289  -3.734  0.00  0.00     0.327 A 
HETATM    9  O   UNK N   1      26.814  24.398  -3.048  0.00  0.00    -0.246 OA
ENDROOT
BRANCH   5  10
HETATM   10  N   UNK N   1      25.752  28.892  -3.479  0.00  0.00    -0.385 N 
HETATM   11  H   UNK N   1      26.079  29.643  -4.026  0.00  0.00     0.157 HD
HETATM   12  H   UNK N   1      25.402  29.058  -2.575  0.00  0.00     0.157 HD
ENDBRANCH   5  10
TORSDOF 1
ENDMDL
MODEL 3
REMARK VINA RESULT:      -4.1     20.130     22.112
REMARK  1 active torsions:
REMARK  status: ('A' for Active; 'I' for Inactive)
REMARK    1  A    between atoms: C_5  and  N_6 
ROOT
HETATM    1  C   UNK N   1      40.518  21.533   1.956  0.00  0.00     0.160 C 
HETATM    2  N   UNK N   1      41.842  21.800   2.499  0.00  0.00    -0.314 N 
HETATM    3  C   UNK N   1      42.517  20.781   3.089  0.00  0.00     0.099 A 
HETATM    4  C   UNK N   1      43.786  20.992   3.621  0.00  0.00     0.065 A 
HETATM    5  C   UNK N   1      44.346  22.263   3.537  0.00  0.00     0.103 A 
HETATM    6  N   UNK N   1      43.658  23.272   2.943  0.00  0.00    -0.295 N 
ATOM      7  HN  UNK N   1      44.075  24.201   2.884  1.00  0.00     0.172 HD
HETATM    8  C   UNK N   1      42.407  23.056   2.420  0.00  0.00     0.327 A 
HETATM    9  O   UNK N   1      41.808  23.976   1.892  0.00  0.00    -0.246 OA
ENDROOT
BRANCH   5  10
HETATM   10  N   UNK N   1      45.628  22.499   4.068  0.00  0.00    -0.385 N 
HETATM   11  H   UNK N   1      46.170  23.248   3.731  0.00  0.00     0.157 HD
HETATM   12  H   UNK N   1      45.982  21.915   4.777  0.00  0.00     0.157 HD
ENDBRANCH   5  10
TORSDOF 1
ENDMDL
MODEL 4
REMARK VINA RESULT:      -4.1      9.442     10.350
REMARK  1 active torsions:
REMARK  status: ('A' for Active; 'I' for Inactive)
REMARK    1  A    between atoms: C_5  and  N_6 
ROOT
HETATM    1  C   UNK N   1      22.993  13.772   7.814  0.00  0.00     0.160 C 
HETATM    2  N   UNK N   1      22.949  13.187   9.146  0.00  0.00    -0.314 N 
HETATM    3  C   UNK N   1      21.750  12.784   9.637  0.00  0.00     0.099 A 
HETATM    4  C   UNK N   1      21.662  12.219  10.906  0.00  0.00     0.065 A 
HETATM    5  C   UNK N   1      22.824  12.077  11.659  0.00  0.00     0.103 A 
HETATM    6  N   UNK N   1      24.017  12.485  11.153  0.00  0.00    -0.295 N 
ATOM      7  HN  UNK N   1      24.864  12.378  11.710  1.00  0.00     0.172 HD
HETATM    8  C   UNK N   1      24.095  13.041   9.901  0.00  0.00     0.327 A 
HETATM    9  O   UNK N   1      25.175  13.400   9.467  0.00  0.00    -0.246 OA
ENDROOT
BRANCH   5  10
HETATM   10  N   UNK N   1      22.759  11.509  12.945  0.00  0.00    -0.385 N 
HETATM   11  H   UNK N   1      21.995  10.941  13.194  0.00  0.00     0.157 HD
HETATM   12  H   UNK N   1      23.478  11.679  13.595  0.00  0.00     0.157 HD
ENDBRANCH   5  10
TORSDOF 1
ENDMDL
MODEL 5
REMARK VINA RESULT:      -4.0     14.879     16.821
REMARK  1 active torsions:
REMARK  status: ('A' for Active; 'I' for Inactive)
REMARK    1  A    between atoms: C_5  and  N_6 
ROOT
HETATM    1  C   UNK N   1      33.578  16.258   9.050  0.00  0.00     0.160 C 
HETATM    2  N   UNK N   1      34.419  15.714  10.105  0.00  0.00    -0.314 N 
HETATM    3  C   UNK N   1      34.173  14.453  10.544  0.00  0.00     0.099 A 
HETATM    4  C   UNK N   1      34.953  13.893  11.552  0.00  0.00     0.065 A 
HETATM    5  C   UNK N   1      35.986  14.648  12.098  0.00  0.00     0.103 A 
HETATM    6  N   UNK N   1      36.220  15.909  11.649  0.00  0.00    -0.295 N 
ATOM      7  HN  UNK N   1      36.979  16.457  12.054  1.00  0.00     0.172 HD
HETATM    8  C   UNK N   1      35.446  16.454  10.655  0.00  0.00     0.327 A 
HETATM    9  O   UNK N   1      35.673  17.586  10.267  0.00  0.00    -0.246 OA
ENDROOT
BRANCH   5  10
HETATM   10  N   UNK N   1      36.788  14.102  13.118  0.00  0.00    -0.385 N 
HETATM   11  H   UNK N   1      37.447  13.403  12.905  0.00  0.00     0.157 HD
HETATM   12  H   UNK N   1      36.690  14.420  14.045  0.00  0.00     0.157 HD
ENDBRANCH   5  10
TORSDOF 1
ENDMDL
MODEL 6
REMARK VINA RESULT:      -4.0     20.113     22.157
REMARK  1 active torsions:
REMARK  status: ('A' for Active; 'I' for Inactive)
REMARK    1  A    between atoms: C_5  and  N_6 
ROOT
HETATM    1  C   UNK N   1      40.498  21.699   2.064  0.00  0.00     0.160 C 
HETATM    2  N   UNK N   1      41.837  21.817   2.621  0.00  0.00    -0.314 N 
HETATM    3  C   UNK N   1      42.526  22.967   2.412  0.00  0.00     0.099 A 
HETATM    4  C   UNK N   1      43.810  23.122   2.927  0.00  0.00     0.065 A 
HETATM    5  C   UNK N   1      44.371  22.079   3.658  0.00  0.00     0.103 A 
HETATM    6  N   UNK N   1      43.668  20.934   3.859  0.00  0.00    -0.295 N 
ATOM      7  HN  UNK N   1      44.085  20.174   4.395  1.00  0.00     0.172 HD
HETATM    8  C   UNK N   1      42.403  20.789   3.348  0.00  0.00     0.327 A 
HETATM    9  O   UNK N   1      41.790  19.753   3.540  0.00  0.00    -0.246 OA
ENDROOT
BRANCH   5  10
HETATM   10  N   UNK N   1      45.668  22.214   4.187  0.00  0.00    -0.385 N 
HETATM   11  H   UNK N   1      45.918  23.032   4.675  0.00  0.00     0.157 HD
HETATM   12  H   UNK N   1      46.325  21.491   4.071  0.00  0.00     0.157 HD
ENDBRANCH   5  10
TORSDOF 1
ENDMDL
MODEL 7
REMARK VINA RESULT:      -3.9     13.500     14.657
REMARK  1 active torsions:
REMARK  status: ('A' for Active; 'I' for Inactive)
REMARK    1  A    between atoms: C_5  and  N_6 
ROOT
HETATM    1  C   UNK N   1      33.670  17.616   6.266  0.00  0.00     0.160 C 
HETATM    2  N   UNK N   1      33.928  17.096   7.601  0.00  0.00    -0.314 N 
HETATM    3  C   UNK N   1      33.545  15.826   7.886  0.00  0.00     0.099 A 
HETATM    4  C   UNK N   1      33.773  15.289   9.150  0.00  0.00     0.065 A 
HETATM    5  C   UNK N   1      34.399  16.076  10.111  0.00  0.00     0.103 A 
HETATM    6  N   UNK N   1      34.777  17.346   9.810  0.00  0.00    -0.295 N 
ATOM      7  HN  UNK N   1      35.235  17.918  10.519  1.00  0.00     0.172 HD
HETATM    8  C   UNK N   1      34.549  17.868   8.562  0.00  0.00     0.327 A 
HETATM    9  O   UNK N   1      34.896  19.010   8.313  0.00  0.00    -0.246 OA
ENDROOT
BRANCH   5  10
HETATM   10  N   UNK N   1      34.639  15.554  11.395  0.00  0.00    -0.385 N 
HETATM   11  H   UNK N   1      35.184  16.061  12.039  0.00  0.00     0.157 HD
HETATM   12  H   UNK N   1      34.263  14.681  11.650  0.00  0.00     0.157 HD
ENDBRANCH   5  10
TORSDOF 1
ENDMDL
MODEL 8
REMARK VINA RESULT:      -3.9      9.621     10.524
REMARK  1 active torsions:
REMARK  status: ('A' for Active; 'I' for Inactive)
REMARK    1  A    between atoms: C_5  and  N_6 
ROOT
HETATM    1  C   UNK N   1      23.211  13.102   7.653  0.00  0.00     0.160 C 
HETATM    2  N   UNK N   1      23.087  12.695   9.045  0.00  0.00    -0.314 N 
HETATM    3  C   UNK N   1      24.220  12.516   9.770  0.00  0.00     0.099 A 
HETATM    4  C   UNK N   1      24.148  12.127  11.104  0.00  0.00     0.065 A 
HETATM    5  C   UNK N   1      22.897  11.926  11.678  0.00  0.00     0.103 A 
HETATM    6  N   UNK N   1      21.772  12.109  10.939  0.00  0.00    -0.295 N 
ATOM      7  HN  UNK N   1      20.858  11.960  11.366  1.00  0.00     0.172 HD
HETATM    8  C   UNK N   1      21.851  12.493   9.624  0.00  0.00     0.327 A 
HETATM    9  O   UNK N   1      20.829  12.652   8.980  0.00  0.00    -0.246 OA
ENDROOT
BRANCH   5  10
HETATM   10  N   UNK N   1      22.800  11.532  13.026  0.00  0.00    -0.385 N 
HETATM   11  H   UNK N   1      22.384  12.133  13.685  0.00  0.00     0.157 HD
HETATM   12  H   UNK N   1      23.149  10.657  13.309  0.00  0.00     0.157 HD
ENDBRANCH   5  10
TORSDOF 1
ENDMDL
MODEL 9
REMARK VINA RESULT:      -3.9     11.402     12.126
REMARK  1 active torsions:
REMARK  status: ('A' for Active; 'I' for Inactive)
REMARK    1  A    between atoms: C_5  and  N_6 
ROOT
HETATM    1  C   UNK N   1      33.384  16.540   4.840  0.00  0.00     0.160 C 
HETATM    2  N   UNK N   1      32.683  16.957   6.045  0.00  0.00    -0.314 N 
HETATM    3  C   UNK N   1      31.378  16.612   6.186  0.00  0.00     0.099 A 
HETATM    4  C   UNK N   1      30.668  16.990   7.323  0.00  0.00     0.065 A 
HETATM    5  C   UNK N   1      31.321  17.725   8.307  0.00  0.00     0.103 A 
HETATM    6  N   UNK N   1      32.627  18.063   8.152  0.00  0.00    -0.295 N 
ATOM      7  HN  UNK N   1      33.099  18.602   8.877  1.00  0.00     0.172 HD
HETATM    8  C   UNK N   1      33.320  17.686   7.028  0.00  0.00     0.327 A 
HETATM    9  O   UNK N   1      34.491  18.000   6.909  0.00  0.00    -0.246 OA
ENDROOT
BRANCH   5  10
HETATM   10  N   UNK N   1      30.623  18.118   9.465  0.00  0.00    -0.385 N 
HETATM   11  H   UNK N   1      30.072  17.465   9.953  0.00  0.00     0.157 HD
HETATM   12  H   UNK N   1      30.686  19.046   9.787  0.00  0.00     0.157 HD
ENDBRANCH   5  10
TORSDOF 1
ENDMDL
