MODEL 1
REMARK VINA RESULT:      -4.4      0.000      0.000
REMARK  8 active torsions:
REMARK  status: ('A' for Active; 'I' for Inactive)
REMARK    1  A    between atoms: C_3  and  C_2 
REMARK    2  A    between atoms: C_4  and  C_3 
REMARK    3  A    between atoms: C_6  and  C_4 
REMARK    4  A    between atoms: C_7  and  C_5 
REMARK    5  A    between atoms: O_8  and  C_5 
REMARK    6  A    between atoms: C_7  and  C_6 
REMARK    7  A    between atoms: C_6  and  O_9 
REMARK    8  A    between atoms: C_7  and  O_10 
ROOT
HETATM    1  C   UNK N   1      20.882  19.634   3.207  0.00  0.00     0.149 C 
ENDROOT
BRANCH   1   2
HETATM    2  C   UNK N   1      19.805  18.731   2.612  0.00  0.00     0.034 C 
BRANCH   2   3
HETATM    3  C   UNK N   1      20.053  17.285   3.008  0.00  0.00     0.002 C 
BRANCH   3   4
HETATM    4  C   UNK N   1      20.553  16.496   1.818  0.00  0.00    -0.004 C 
HETATM    5  C   UNK N   1      20.018  17.120   0.547  0.00  0.00     0.005 C 
ENDBRANCH   3   4
ENDBRANCH   2   3
ENDBRANCH   1   2
BRANCH   1   6
HETATM    6  C   UNK N   1      21.534  20.507   2.124  0.00  0.00     0.170 C 
BRANCH   6   7
HETATM    7  C   UNK N   1      20.493  21.047   1.144  0.00  0.00     0.198 C 
BRANCH   7   8
HETATM    8  O   UNK N   1      20.718  20.564  -0.147  0.00  0.00    -0.398 OA
HETATM    9  H   UNK N   1      20.934  19.873  -0.794  0.00  0.00     0.209 HD
ENDBRANCH   7   8
ENDBRANCH   6   7
BRANCH   6  10
HETATM   10  O   UNK N   1      22.214  21.577   2.712  0.00  0.00    -0.391 OA
HETATM   11  H   UNK N   1      22.225  21.981   3.595  0.00  0.00     0.210 HD
ENDBRANCH   6  10
ENDBRANCH   1   6
BRANCH   1  12
HETATM   12  O   UNK N   1      20.298  20.453   4.180  0.00  0.00    -0.393 OA
HETATM   13  H   UNK N   1      20.314  21.404   4.370  0.00  0.00     0.210 HD
ENDBRANCH   1  12
TORSDOF 8
ENDMDL
MODEL 2
REMARK VINA RESULT:      -4.3      9.659     11.261
REMARK  8 active torsions:
REMARK  status: ('A' for Active; 'I' for Inactive)
REMARK    1  A    between atoms: C_3  and  C_2 
REMARK    2  A    between atoms: C_4  and  C_3 
REMARK    3  A    between atoms: C_6  and  C_4 
REMARK    4  A    between atoms: C_7  and  C_5 
REMARK    5  A    between atoms: O_8  and  C_5 
REMARK    6  A    between atoms: C_7  and  C_6 
REMARK    7  A    between atoms: C_6  and  O_9 
REMARK    8  A    between atoms: C_7  and  O_10 
ROOT
HETATM    1  C   UNK N   1      22.307  11.981  10.808  0.00  0.00     0.149 C 
ENDROOT
BRANCH   1   2
HETATM    2  C   UNK N   1      22.188  13.344  10.133  0.00  0.00     0.034 C 
BRANCH   2   3
HETATM    3  C   UNK N   1      20.726  13.701   9.922  0.00  0.00     0.002 C 
BRANCH   3   4
HETATM    4  C   UNK N   1      20.546  14.401   8.592  0.00  0.00    -0.004 C 
HETATM    5  C   UNK N   1      20.199  15.854   8.837  0.00  0.00     0.005 C 
ENDBRANCH   3   4
ENDBRANCH   2   3
ENDBRANCH   1   2
BRANCH   1   6
HETATM    6  C   UNK N   1      23.705  11.782  11.412  0.00  0.00     0.170 C 
BRANCH   6   7
HETATM    7  C   UNK N   1      24.789  12.374  10.512  0.00  0.00     0.198 C 
BRANCH   7   8
HETATM    8  O   UNK N   1      25.675  13.167  11.246  0.00  0.00    -0.398 OA
HETATM    9  H   UNK N   1      26.168  13.983  11.428  0.00  0.00     0.209 HD
ENDBRANCH   7   8
ENDBRANCH   6   7
BRANCH   6  10
HETATM   10  O   UNK N   1      23.775  12.380  12.674  0.00  0.00    -0.391 OA
HETATM   11  H   UNK N   1      23.870  12.054  13.583  0.00  0.00     0.210 HD
ENDBRANCH   6  10
ENDBRANCH   1   6
BRANCH   1  12
HETATM   12  O   UNK N   1      21.343  11.891  11.817  0.00  0.00    -0.393 OA
HETATM   13  H   UNK N   1      20.504  11.415  11.918  0.00  0.00     0.210 HD
ENDBRANCH   1  12
TORSDOF 8
ENDMDL
MODEL 3
REMARK VINA RESULT:      -4.2     19.135     19.969
REMARK  8 active torsions:
REMARK  status: ('A' for Active; 'I' for Inactive)
REMARK    1  A    between atoms: C_3  and  C_2 
REMARK    2  A    between atoms: C_4  and  C_3 
REMARK    3  A    between atoms: C_6  and  C_4 
REMARK    4  A    between atoms: C_7  and  C_5 
REMARK    5  A    between atoms: O_8  and  C_5 
REMARK    6  A    between atoms: C_7  and  C_6 
REMARK    7  A    between atoms: C_6  and  O_9 
REMARK    8  A    between atoms: C_7  and  O_10 
ROOT
HETATM    1  C   UNK N   1      36.372  14.126  13.213  0.00  0.00     0.149 C 
ENDROOT
BRANCH   1   2
HETATM    2  C   UNK N   1      35.697  13.073  14.087  0.00  0.00     0.034 C 
BRANCH   2   3
HETATM    3  C   UNK N   1      36.045  13.302  15.550  0.00  0.00     0.002 C 
BRANCH   3   4
HETATM    4  C   UNK N   1      34.824  13.087  16.416  0.00  0.00    -0.004 C 
HETATM    5  C   UNK N   1      35.131  13.533  17.830  0.00  0.00     0.005 C 
ENDBRANCH   3   4
ENDBRANCH   2   3
ENDBRANCH   1   2
BRANCH   1   6
HETATM    6  C   UNK N   1      35.381  14.731  12.208  0.00  0.00     0.170 C 
BRANCH   6   7
HETATM    7  C   UNK N   1      36.051  15.010  10.864  0.00  0.00     0.198 C 
BRANCH   7   8
HETATM    8  O   UNK N   1      37.036  15.994  10.987  0.00  0.00    -0.398 OA
HETATM    9  H   UNK N   1      37.900  16.331  11.273  0.00  0.00     0.209 HD
ENDBRANCH   7   8
ENDBRANCH   6   7
BRANCH   6  10
HETATM   10  O   UNK N   1      34.301  13.864  12.014  0.00  0.00    -0.391 OA
HETATM   11  H   UNK N   1      34.037  13.243  11.316  0.00  0.00     0.210 HD
ENDBRANCH   6  10
ENDBRANCH   1   6
BRANCH   1  12
HETATM   12  O   UNK N   1      36.883  15.136  14.034  0.00  0.00    -0.393 OA
HETATM   13  H   UNK N   1      36.560  16.000  14.334  0.00  0.00     0.210 HD
ENDBRANCH   1  12
TORSDOF 8
ENDMDL
MODEL 4
REMARK VINA RESULT:      -4.2     15.331     16.292
REMARK  8 active torsions:
REMARK  status: ('A' for Active; 'I' for Inactive)
REMARK    1  A    between atoms: C_3  and  C_2 
REMARK    2  A    between atoms: C_4  and  C_3 
REMARK    3  A    between atoms: C_6  and  C_4 
REMARK    4  A    between atoms: C_7  and  C_5 
REMARK    5  A    between atoms: O_8  and  C_5 
REMARK    6  A    between atoms: C_7  and  C_6 
REMARK    7  A    between atoms: C_6  and  O_9 
REMARK    8  A    between atoms: C_7  and  O_10 
ROOT
HETATM    1  C   UNK N   1      34.498  16.828   9.735  0.00  0.00     0.149 C 
ENDROOT
BRANCH   1   2
HETATM    2  C   UNK N   1      34.521  16.599   8.227  0.00  0.00     0.034 C 
BRANCH   2   3
HETATM    3  C   UNK N   1      34.060  17.850   7.497  0.00  0.00     0.002 C 
BRANCH   3   4
HETATM    4  C   UNK N   1      32.881  17.529   6.605  0.00  0.00    -0.004 C 
HETATM    5  C   UNK N   1      33.375  17.295   5.192  0.00  0.00     0.005 C 
ENDBRANCH   3   4
ENDBRANCH   2   3
ENDBRANCH   1   2
BRANCH   1   6
HETATM    6  C   UNK N   1      34.776  15.524  10.498  0.00  0.00     0.170 C 
BRANCH   6   7
HETATM    7  C   UNK N   1      35.910  15.701  11.506  0.00  0.00     0.198 C 
BRANCH   7   8
HETATM    8  O   UNK N   1      37.145  15.812  10.862  0.00  0.00    -0.398 OA
HETATM    9  H   UNK N   1      38.089  15.621  10.750  0.00  0.00     0.209 HD
ENDBRANCH   7   8
ENDBRANCH   6   7
BRANCH   6  10
HETATM   10  O   UNK N   1      33.623  15.104  11.169  0.00  0.00    -0.391 OA
HETATM   11  H   UNK N   1      33.260  14.245  11.437  0.00  0.00     0.210 HD
ENDBRANCH   6  10
ENDBRANCH   1   6
BRANCH   1  12
HETATM   12  O   UNK N   1      35.470  17.779  10.063  0.00  0.00    -0.393 OA
HETATM   13  H   UNK N   1      36.294  17.764  10.575  0.00  0.00     0.210 HD
ENDBRANCH   1  12
TORSDOF 8
ENDMDL
MODEL 5
REMARK VINA RESULT:      -4.2     17.648     18.440
REMARK  8 active torsions:
REMARK  status: ('A' for Active; 'I' for Inactive)
REMARK    1  A    between atoms: C_3  and  C_2 
REMARK    2  A    between atoms: C_4  and  C_3 
REMARK    3  A    between atoms: C_6  and  C_4 
REMARK    4  A    between atoms: C_7  and  C_5 
REMARK    5  A    between atoms: O_8  and  C_5 
REMARK    6  A    between atoms: C_7  and  C_6 
REMARK    7  A    between atoms: C_6  and  O_9 
REMARK    8  A    between atoms: C_7  and  O_10 
ROOT
HETATM    1  C   UNK N   1      34.944  14.837  11.616  0.00  0.00     0.149 C 
ENDROOT
BRANCH   1   2
HETATM    2  C   UNK N   1      35.284  13.398  11.994  0.00  0.00     0.034 C 
BRANCH   2   3
HETATM    3  C   UNK N   1      35.507  13.286  13.493  0.00  0.00     0.002 C 
BRANCH   3   4
HETATM    4  C   UNK N   1      36.426  14.391  13.968  0.00  0.00    -0.004 C 
HETATM    5  C   UNK N   1      36.850  14.108  15.393  0.00  0.00     0.005 C 
ENDBRANCH   3   4
ENDBRANCH   2   3
ENDBRANCH   1   2
BRANCH   1   6
HETATM    6  C   UNK N   1      35.786  15.310  10.422  0.00  0.00     0.170 C 
BRANCH   6   7
HETATM    7  C   UNK N   1      34.938  16.091   9.419  0.00  0.00     0.198 C 
BRANCH   7   8
HETATM    8  O   UNK N   1      34.475  17.287   9.974  0.00  0.00    -0.398 OA
HETATM    9  H   UNK N   1      34.349  18.249   9.990  0.00  0.00     0.209 HD
ENDBRANCH   7   8
ENDBRANCH   6   7
BRANCH   6  10
HETATM   10  O   UNK N   1      36.838  16.117  10.863  0.00  0.00    -0.391 OA
HETATM   11  H   UNK N   1      37.109  16.484  11.720  0.00  0.00     0.210 HD
ENDBRANCH   6  10
ENDBRANCH   1   6
BRANCH   1  12
HETATM   12  O   UNK N   1      33.586  14.910  11.291  0.00  0.00    -0.393 OA
HETATM   13  H   UNK N   1      32.778  15.127  11.782  0.00  0.00     0.210 HD
ENDBRANCH   1  12
TORSDOF 8
ENDMDL
MODEL 6
REMARK VINA RESULT:      -4.1     20.453     21.287
REMARK  8 active torsions:
REMARK  status: ('A' for Active; 'I' for Inactive)
REMARK    1  A    between atoms: C_3  and  C_2 
REMARK    2  A    between atoms: C_4  and  C_3 
REMARK    3  A    between atoms: C_6  and  C_4 
REMARK    4  A    between atoms: C_7  and  C_5 
REMARK    5  A    between atoms: O_8  and  C_5 
REMARK    6  A    between atoms: C_7  and  C_6 
REMARK    7  A    between atoms: C_6  and  O_9 
REMARK    8  A    between atoms: C_7  and  O_10 
ROOT
HETATM    1  C   UNK N   1      36.731  13.166  15.147  0.00  0.00     0.149 C 
ENDROOT
BRANCH   1   2
HETATM    2  C   UNK N   1      35.391  13.313  15.862  0.00  0.00     0.034 C 
BRANCH   2   3
HETATM    3  C   UNK N   1      35.378  12.475  17.131  0.00  0.00     0.002 C 
BRANCH   3   4
HETATM    4  C   UNK N   1      35.179  13.363  18.340  0.00  0.00    -0.004 C 
HETATM    5  C   UNK N   1      35.306  12.528  19.597  0.00  0.00     0.005 C 
ENDBRANCH   3   4
ENDBRANCH   2   3
ENDBRANCH   1   2
BRANCH   1   6
HETATM    6  C   UNK N   1      36.539  13.066  13.626  0.00  0.00     0.170 C 
BRANCH   6   7
HETATM    7  C   UNK N   1      35.115  12.642  13.272  0.00  0.00     0.198 C 
BRANCH   7   8
HETATM    8  O   UNK N   1      34.504  13.578  12.433  0.00  0.00    -0.398 OA
HETATM    9  H   UNK N   1      33.762  14.129  12.136  0.00  0.00     0.209 HD
ENDBRANCH   7   8
ENDBRANCH   6   7
BRANCH   6  10
HETATM   10  O   UNK N   1      36.818  14.297  13.023  0.00  0.00    -0.391 OA
HETATM   11  H   UNK N   1      36.805  15.222  13.316  0.00  0.00     0.210 HD
ENDBRANCH   6  10
ENDBRANCH   1   6
BRANCH   1  12
HETATM   12  O   UNK N   1      37.529  14.275  15.447  0.00  0.00    -0.393 OA
HETATM   13  H   UNK N   1      37.353  15.179  15.751  0.00  0.00     0.210 HD
ENDBRANCH   1  12
TORSDOF 8
ENDMDL
MODEL 7
REMARK VINA RESULT:      -4.1      2.662      4.298
REMARK  8 active torsions:
REMARK  status: ('A' for Active; 'I' for Inactive)
REMARK    1  A    between atoms: C_3  and  C_2 
REMARK    2  A    between atoms: C_4  and  C_3 
REMARK    3  A    between atoms: C_6  and  C_4 
REMARK    4  A    between atoms: C_7  and  C_5 
REMARK    5  A    between atoms: O_8  and  C_5 
REMARK    6  A    between atoms: C_7  and  C_6 
REMARK    7  A    between atoms: C_6  and  O_9 
REMARK    8  A    between atoms: C_7  and  O_10 
ROOT
HETATM    1  C   UNK N   1      21.923  20.558   2.580  0.00  0.00     0.149 C 
ENDROOT
BRANCH   1   2
HETATM    2  C   UNK N   1      23.045  19.738   3.212  0.00  0.00     0.034 C 
BRANCH   2   3
HETATM    3  C   UNK N   1      24.374  20.461   3.062  0.00  0.00     0.002 C 
BRANCH   3   4
HETATM    4  C   UNK N   1      25.494  19.617   3.631  0.00  0.00    -0.004 C 
HETATM    5  C   UNK N   1      26.802  20.365   3.488  0.00  0.00     0.005 C 
ENDBRANCH   3   4
ENDBRANCH   2   3
ENDBRANCH   1   2
BRANCH   1   6
HETATM    6  C   UNK N   1      20.557  20.171   3.167  0.00  0.00     0.170 C 
BRANCH   6   7
HETATM    7  C   UNK N   1      19.979  18.942   2.467  0.00  0.00     0.198 C 
BRANCH   7   8
HETATM    8  O   UNK N   1      18.585  18.923   2.552  0.00  0.00    -0.398 OA
HETATM    9  H   UNK N   1      17.692  18.782   2.199  0.00  0.00     0.209 HD
ENDBRANCH   7   8
ENDBRANCH   6   7
BRANCH   6  10
HETATM   10  O   UNK N   1      20.676  19.911   4.535  0.00  0.00    -0.391 OA
HETATM   11  H   UNK N   1      20.449  20.391   5.347  0.00  0.00     0.210 HD
ENDBRANCH   6  10
ENDBRANCH   1   6
BRANCH   1  12
HETATM   12  O   UNK N   1      22.168  21.914   2.815  0.00  0.00    -0.393 OA
HETATM   13  H   UNK N   1      22.513  22.426   3.564  0.00  0.00     0.210 HD
ENDBRANCH   1  12
TORSDOF 8
ENDMDL
MODEL 8
REMARK VINA RESULT:      -4.1     16.245     17.164
REMARK  8 active torsions:
REMARK  status: ('A' for Active; 'I' for Inactive)
REMARK    1  A    between atoms: C_3  and  C_2 
REMARK    2  A    between atoms: C_4  and  C_3 
REMARK    3  A    between atoms: C_6  and  C_4 
REMARK    4  A    between atoms: C_7  and  C_5 
REMARK    5  A    between atoms: O_8  and  C_5 
REMARK    6  A    between atoms: C_7  and  C_6 
REMARK    7  A    between atoms: C_6  and  O_9 
REMARK    8  A    between atoms: C_7  and  O_10 
ROOT
HETATM    1  C   UNK N   1      34.688  15.017  10.603  0.00  0.00     0.149 C 
ENDROOT
BRANCH   1   2
HETATM    2  C   UNK N   1      34.796  15.677   9.231  0.00  0.00     0.034 C 
BRANCH   2   3
HETATM    3  C   UNK N   1      33.843  16.858   9.140  0.00  0.00     0.002 C 
BRANCH   3   4
HETATM    4  C   UNK N   1      34.386  17.894   8.179  0.00  0.00    -0.004 C 
HETATM    5  C   UNK N   1      33.850  17.615   6.791  0.00  0.00     0.005 C 
ENDBRANCH   3   4
ENDBRANCH   2   3
ENDBRANCH   1   2
BRANCH   1   6
HETATM    6  C   UNK N   1      35.659  15.659  11.605  0.00  0.00     0.170 C 
BRANCH   6   7
HETATM    7  C   UNK N   1      36.045  14.679  12.711  0.00  0.00     0.198 C 
BRANCH   7   8
HETATM    8  O   UNK N   1      34.963  13.870  13.067  0.00  0.00    -0.398 OA
HETATM    9  H   UNK N   1      34.101  13.698  13.478  0.00  0.00     0.209 HD
ENDBRANCH   7   8
ENDBRANCH   6   7
BRANCH   6  10
HETATM   10  O   UNK N   1      36.815  16.091  10.947  0.00  0.00    -0.391 OA
HETATM   11  H   UNK N   1      37.062  16.237  10.020  0.00  0.00     0.210 HD
ENDBRANCH   6  10
ENDBRANCH   1   6
BRANCH   1  12
HETATM   12  O   UNK N   1      33.376  15.152  11.068  0.00  0.00    -0.393 OA
HETATM   13  H   UNK N   1      32.624  15.719  10.834  0.00  0.00     0.210 HD
ENDBRANCH   1  12
TORSDOF 8
ENDMDL
MODEL 9
REMARK VINA RESULT:      -4.0     13.275     14.082
REMARK  8 active torsions:
REMARK  status: ('A' for Active; 'I' for Inactive)
REMARK    1  A    between atoms: C_3  and  C_2 
REMARK    2  A    between atoms: C_4  and  C_3 
REMARK    3  A    between atoms: C_6  and  C_4 
REMARK    4  A    between atoms: C_7  and  C_5 
REMARK    5  A    between atoms: O_8  and  C_5 
REMARK    6  A    between atoms: C_7  and  C_6 
REMARK    7  A    between atoms: C_6  and  O_9 
REMARK    8  A    between atoms: C_7  and  O_10 
ROOT
HETATM    1  C   UNK N   1      32.871  16.513   8.589  0.00  0.00     0.149 C 
ENDROOT
BRANCH   1   2
HETATM    2  C   UNK N   1      31.824  17.608   8.401  0.00  0.00     0.034 C 
BRANCH   2   3
HETATM    3  C   UNK N   1      30.897  17.256   7.248  0.00  0.00     0.002 C 
BRANCH   3   4
HETATM    4  C   UNK N   1      31.661  16.517   6.171  0.00  0.00    -0.004 C 
HETATM    5  C   UNK N   1      31.624  17.324   4.891  0.00  0.00     0.005 C 
ENDBRANCH   3   4
ENDBRANCH   2   3
ENDBRANCH   1   2
BRANCH   1   6
HETATM    6  C   UNK N   1      34.274  17.113   8.766  0.00  0.00     0.170 C 
BRANCH   6   7
HETATM    7  C   UNK N   1      34.386  18.475   8.084  0.00  0.00     0.198 C 
BRANCH   7   8
HETATM    8  O   UNK N   1      35.409  19.240   8.651  0.00  0.00    -0.398 OA
HETATM    9  H   UNK N   1      35.759  19.931   9.236  0.00  0.00     0.209 HD
ENDBRANCH   7   8
ENDBRANCH   6   7
BRANCH   6  10
HETATM   10  O   UNK N   1      34.571  17.251  10.126  0.00  0.00    -0.391 OA
HETATM   11  H   UNK N   1      34.918  17.966  10.683  0.00  0.00     0.210 HD
ENDBRANCH   6  10
ENDBRANCH   1   6
BRANCH   1  12
HETATM   12  O   UNK N   1      32.538  15.759   9.719  0.00  0.00    -0.393 OA
HETATM   13  H   UNK N   1      31.947  15.890  10.477  0.00  0.00     0.210 HD
ENDBRANCH   1  12
TORSDOF 8
ENDMDL
