MODEL 1
REMARK VINA RESULT:      -6.1      0.000      0.000
REMARK  9 active torsions:
REMARK  status: ('A' for Active; 'I' for Inactive)
REMARK    1  A    between atoms: C_5  and  C_3 
REMARK    2  A    between atoms: O_21  and  C_3 
REMARK    3  A    between atoms: C_6  and  O_14 
REMARK    4  A    between atoms: C_7  and  O_15 
REMARK    5  A    between atoms: O_16  and  C_8 
REMARK    6  A    between atoms: C_9  and  N_13 
REMARK    7  A    between atoms: P_23  and  O_18 
REMARK    8  A    between atoms: P_23  and  O_19 
REMARK    9  A    between atoms: P_23  and  O_21 
ROOT
HETATM    1  C   UNK N   1      35.704  12.425  11.279  0.00  0.00     0.180 C 
HETATM    2  C   UNK N   1      37.209  12.829  11.225  0.00  0.00     0.182 C 
HETATM    3  C   UNK N   1      37.202  13.873  10.115  0.00  0.00     0.198 C 
HETATM    4  C   UNK N   1      35.809  14.426  10.333  0.00  0.00     0.263 C 
HETATM    5  O   UNK N   1      35.027  13.259  10.362  0.00  0.00    -0.353 OA
ENDROOT
BRANCH   4   6
HETATM    6  N   UNK N   1      35.280  15.394   9.359  0.00  0.00    -0.279 N 
HETATM    7  C   UNK N   1      35.091  15.058   8.052  0.00  0.00     0.109 A 
HETATM    8  C   UNK N   1      34.683  16.020   7.127  0.00  0.00     0.005 A 
HETATM    9  C   UNK N   1      34.515  15.649   5.695  0.00  0.00     0.054 C 
HETATM   10  C   UNK N   1      34.461  17.329   7.563  0.00  0.00     0.151 A 
HETATM   11  N   UNK N   1      34.638  17.641   8.869  0.00  0.00    -0.288 N 
HETATM   12  C   UNK N   1      35.050  16.698   9.770  0.00  0.00     0.330 A 
ATOM     13  HN  UNK N   1      34.462  18.594   9.185  1.00  0.00     0.172 HD
HETATM   14  O   UNK N   1      35.221  17.023  10.933  0.00  0.00    -0.246 OA
BRANCH  10  15
HETATM   15  O   UNK N   1      34.080  18.285   6.699  0.00  0.00    -0.346 OA
HETATM   16  H   UNK N   1      33.173  18.394   6.489  0.00  0.00     0.219 HD
ENDBRANCH  10  15
ENDBRANCH   4   6
BRANCH   3  17
HETATM   17  O   UNK N   1      38.221  14.821  10.245  0.00  0.00    -0.388 OA
HETATM   18  H   UNK N   1      38.354  15.779  10.323  0.00  0.00     0.210 HD
ENDBRANCH   3  17
BRANCH   2  19
HETATM   19  O   UNK N   1      37.610  13.417  12.431  0.00  0.00    -0.390 OA
HETATM   20  H   UNK N   1      37.621  13.960  13.234  0.00  0.00     0.210 HD
ENDBRANCH   2  19
BRANCH   1  21
HETATM   21  C   UNK N   1      35.006  12.682  12.623  0.00  0.00     0.215 C 
BRANCH  21  22
HETATM   22  O   UNK N   1      35.171  11.662  13.564  0.00  0.00    -0.294 OA
BRANCH  22  23
HETATM   23  P   UNK N   1      35.403  12.488  15.080  0.00  0.00     0.390 P 
HETATM   24  O   UNK N   1      36.814  11.917  14.779  0.00  0.00    -0.632 OA
BRANCH  23  25
HETATM   25  O   UNK N   1      36.439  13.870  15.237  0.00  0.00    -0.307 OA
HETATM   26  H   UNK N   1      36.359  14.678  14.707  0.00  0.00     0.222 HD
ENDBRANCH  23  25
BRANCH  23  27
HETATM   27  O   UNK N   1      35.033  13.721  13.905  0.00  0.00    -0.307 OA
HETATM   28  H   UNK N   1      34.509  14.012  13.143  0.00  0.00     0.222 HD
ENDBRANCH  23  27
ENDBRANCH  22  23
ENDBRANCH  21  22
ENDBRANCH   1  21
TORSDOF 9
ENDMDL
MODEL 2
REMARK VINA RESULT:      -5.9      2.959      4.223
REMARK  9 active torsions:
REMARK  status: ('A' for Active; 'I' for Inactive)
REMARK    1  A    between atoms: C_5  and  C_3 
REMARK    2  A    between atoms: O_21  and  C_3 
REMARK    3  A    between atoms: C_6  and  O_14 
REMARK    4  A    between atoms: C_7  and  O_15 
REMARK    5  A    between atoms: O_16  and  C_8 
REMARK    6  A    between atoms: C_9  and  N_13 
REMARK    7  A    between atoms: P_23  and  O_18 
REMARK    8  A    between atoms: P_23  and  O_19 
REMARK    9  A    between atoms: P_23  and  O_21 
ROOT
HETATM    1  C   UNK N   1      34.489  15.153   9.268  0.00  0.00     0.180 C 
HETATM    2  C   UNK N   1      35.113  16.576   9.392  0.00  0.00     0.182 C 
HETATM    3  C   UNK N   1      34.486  17.287   8.199  0.00  0.00     0.198 C 
HETATM    4  C   UNK N   1      33.166  16.545   8.161  0.00  0.00     0.263 C 
HETATM    5  O   UNK N   1      33.579  15.202   8.188  0.00  0.00    -0.353 OA
ENDROOT
BRANCH   4   6
HETATM    6  N   UNK N   1      32.254  16.796   7.034  0.00  0.00    -0.279 N 
HETATM    7  C   UNK N   1      32.707  16.855   5.751  0.00  0.00     0.109 A 
HETATM    8  C   UNK N   1      31.841  17.193   4.710  0.00  0.00     0.005 A 
HETATM    9  C   UNK N   1      32.357  17.288   3.316  0.00  0.00     0.054 C 
HETATM   10  C   UNK N   1      30.502  17.460   5.003  0.00  0.00     0.151 A 
HETATM   11  N   UNK N   1      30.065  17.381   6.282  0.00  0.00    -0.288 N 
HETATM   12  C   UNK N   1      30.920  17.062   7.301  0.00  0.00     0.330 A 
ATOM     13  HN  UNK N   1      29.083  17.564   6.489  1.00  0.00     0.172 HD
HETATM   14  O   UNK N   1      30.494  17.024   8.443  0.00  0.00    -0.246 OA
BRANCH  10  15
HETATM   15  O   UNK N   1      29.640  17.801   4.029  0.00  0.00    -0.346 OA
HETATM   16  H   UNK N   1      29.622  18.681   3.706  0.00  0.00     0.219 HD
ENDBRANCH  10  15
ENDBRANCH   4   6
BRANCH   3  17
HETATM   17  O   UNK N   1      34.362  18.667   8.384  0.00  0.00    -0.388 OA
HETATM   18  H   UNK N   1      34.881  19.440   8.658  0.00  0.00     0.210 HD
ENDBRANCH   3  17
BRANCH   2  19
HETATM   19  O   UNK N   1      34.710  17.195  10.582  0.00  0.00    -0.390 OA
HETATM   20  H   UNK N   1      34.469  17.343  11.510  0.00  0.00     0.210 HD
ENDBRANCH   2  19
BRANCH   1  21
HETATM   21  C   UNK N   1      33.640  14.705  10.468  0.00  0.00     0.215 C 
BRANCH  21  22
HETATM   22  O   UNK N   1      34.294  14.785  11.700  0.00  0.00    -0.294 OA
BRANCH  22  23
HETATM   23  P   UNK N   1      35.551  13.581  11.617  0.00  0.00     0.390 P 
HETATM   24  O   UNK N   1      36.295  14.819  12.185  0.00  0.00    -0.632 OA
BRANCH  23  25
HETATM   25  O   UNK N   1      36.339  12.963  13.032  0.00  0.00    -0.307 OA
HETATM   26  H   UNK N   1      36.004  12.229  13.571  0.00  0.00     0.222 HD
ENDBRANCH  23  25
BRANCH  23  27
HETATM   27  O   UNK N   1      34.411  13.016  12.808  0.00  0.00    -0.307 OA
HETATM   28  H   UNK N   1      33.994  12.274  13.274  0.00  0.00     0.222 HD
ENDBRANCH  23  27
ENDBRANCH  22  23
ENDBRANCH  21  22
ENDBRANCH   1  21
TORSDOF 9
ENDMDL
MODEL 3
REMARK VINA RESULT:      -5.8      3.238      6.881
REMARK  9 active torsions:
REMARK  status: ('A' for Active; 'I' for Inactive)
REMARK    1  A    between atoms: C_5  and  C_3 
REMARK    2  A    between atoms: O_21  and  C_3 
REMARK    3  A    between atoms: C_6  and  O_14 
REMARK    4  A    between atoms: C_7  and  O_15 
REMARK    5  A    between atoms: O_16  and  C_8 
REMARK    6  A    between atoms: C_9  and  N_13 
REMARK    7  A    between atoms: P_23  and  O_18 
REMARK    8  A    between atoms: P_23  and  O_19 
REMARK    9  A    between atoms: P_23  and  O_21 
ROOT
HETATM    1  C   UNK N   1      36.366  15.736  10.861  0.00  0.00     0.180 C 
HETATM    2  C   UNK N   1      37.223  14.659  10.130  0.00  0.00     0.182 C 
HETATM    3  C   UNK N   1      37.083  13.469  11.071  0.00  0.00     0.198 C 
HETATM    4  C   UNK N   1      35.690  13.757  11.593  0.00  0.00     0.263 C 
HETATM    5  O   UNK N   1      35.791  15.102  11.985  0.00  0.00    -0.353 OA
ENDROOT
BRANCH   4   6
HETATM    6  N   UNK N   1      35.167  12.924  12.688  0.00  0.00    -0.279 N 
HETATM    7  C   UNK N   1      35.294  13.301  13.992  0.00  0.00     0.109 A 
HETATM    8  C   UNK N   1      34.880  12.449  15.017  0.00  0.00     0.005 A 
HETATM    9  C   UNK N   1      35.057  12.857  16.438  0.00  0.00     0.054 C 
HETATM   10  C   UNK N   1      34.325  11.210  14.686  0.00  0.00     0.151 A 
HETATM   11  N   UNK N   1      34.192  10.859  13.385  0.00  0.00    -0.288 N 
HETATM   12  C   UNK N   1      34.610  11.692  12.384  0.00  0.00     0.330 A 
ATOM     13  HN  UNK N   1      33.774   9.960  13.148  1.00  0.00     0.172 HD
HETATM   14  O   UNK N   1      34.495  11.331  11.224  0.00  0.00    -0.246 OA
BRANCH  10  15
HETATM   15  O   UNK N   1      33.927  10.358  15.645  0.00  0.00    -0.346 OA
HETATM   16  H   UNK N   1      34.548   9.786  16.053  0.00  0.00     0.219 HD
ENDBRANCH  10  15
ENDBRANCH   4   6
BRANCH   3  17
HETATM   17  O   UNK N   1      37.208  12.237  10.423  0.00  0.00    -0.388 OA
HETATM   18  H   UNK N   1      36.738  11.396  10.306  0.00  0.00     0.210 HD
ENDBRANCH   3  17
BRANCH   2  19
HETATM   19  O   UNK N   1      36.670  14.347   8.881  0.00  0.00    -0.390 OA
HETATM   20  H   UNK N   1      36.546  14.251   7.924  0.00  0.00     0.210 HD
ENDBRANCH   2  19
BRANCH   1  21
HETATM   21  C   UNK N   1      35.167  16.270  10.064  0.00  0.00     0.215 C 
BRANCH  21  22
HETATM   22  O   UNK N   1      35.295  17.598   9.647  0.00  0.00    -0.294 OA
BRANCH  22  23
HETATM   23  P   UNK N   1      34.068  17.803   8.428  0.00  0.00     0.390 P 
HETATM   24  O   UNK N   1      34.918  19.093   8.284  0.00  0.00    -0.632 OA
BRANCH  23  25
HETATM   25  O   UNK N   1      34.440  17.853   6.735  0.00  0.00    -0.307 OA
HETATM   26  H   UNK N   1      33.778  17.933   6.030  0.00  0.00     0.222 HD
ENDBRANCH  23  25
BRANCH  23  27
HETATM   27  O   UNK N   1      35.030  16.438   7.928  0.00  0.00    -0.307 OA
HETATM   28  H   UNK N   1      35.459  15.941   7.214  0.00  0.00     0.222 HD
ENDBRANCH  23  27
ENDBRANCH  22  23
ENDBRANCH  21  22
ENDBRANCH   1  21
TORSDOF 9
ENDMDL
MODEL 4
REMARK VINA RESULT:      -5.8     14.878     17.309
REMARK  9 active torsions:
REMARK  status: ('A' for Active; 'I' for Inactive)
REMARK    1  A    between atoms: C_5  and  C_3 
REMARK    2  A    between atoms: O_21  and  C_3 
REMARK    3  A    between atoms: C_6  and  O_14 
REMARK    4  A    between atoms: C_7  and  O_15 
REMARK    5  A    between atoms: O_16  and  C_8 
REMARK    6  A    between atoms: C_9  and  N_13 
REMARK    7  A    between atoms: P_23  and  O_18 
REMARK    8  A    between atoms: P_23  and  O_19 
REMARK    9  A    between atoms: P_23  and  O_21 
ROOT
HETATM    1  C   UNK N   1      21.121  16.404   3.461  0.00  0.00     0.180 C 
HETATM    2  C   UNK N   1      19.569  16.281   3.379  0.00  0.00     0.182 C 
HETATM    3  C   UNK N   1      19.265  15.450   4.620  0.00  0.00     0.198 C 
HETATM    4  C   UNK N   1      20.395  15.939   5.502  0.00  0.00     0.263 C 
HETATM    5  O   UNK N   1      21.514  15.784   4.667  0.00  0.00    -0.353 OA
ENDROOT
BRANCH   4   6
HETATM    6  N   UNK N   1      20.606  15.278   6.800  0.00  0.00    -0.279 N 
HETATM    7  C   UNK N   1      21.347  14.140   6.906  0.00  0.00     0.109 A 
HETATM    8  C   UNK N   1      21.451  13.476   8.129  0.00  0.00     0.005 A 
HETATM    9  C   UNK N   1      22.234  12.213   8.225  0.00  0.00     0.054 C 
HETATM   10  C   UNK N   1      20.793  14.002   9.244  0.00  0.00     0.151 A 
HETATM   11  N   UNK N   1      20.075  15.143   9.123  0.00  0.00    -0.288 N 
HETATM   12  C   UNK N   1      19.965  15.784   7.920  0.00  0.00     0.330 A 
ATOM     13  HN  UNK N   1      19.607  15.531   9.943  1.00  0.00     0.172 HD
HETATM   14  O   UNK N   1      19.290  16.797   7.846  0.00  0.00    -0.246 OA
BRANCH  10  15
HETATM   15  O   UNK N   1      20.859  13.384  10.435  0.00  0.00    -0.346 OA
HETATM   16  H   UNK N   1      20.435  12.558  10.560  0.00  0.00     0.219 HD
ENDBRANCH  10  15
ENDBRANCH   4   6
BRANCH   3  17
HETATM   17  O   UNK N   1      17.989  15.683   5.140  0.00  0.00    -0.388 OA
HETATM   18  H   UNK N   1      17.550  16.061   5.919  0.00  0.00     0.210 HD
ENDBRANCH   3  17
BRANCH   2  19
HETATM   19  O   UNK N   1      18.963  17.539   3.489  0.00  0.00    -0.390 OA
HETATM   20  H   UNK N   1      18.670  18.443   3.293  0.00  0.00     0.210 HD
ENDBRANCH   2  19
BRANCH   1  21
HETATM   21  C   UNK N   1      21.657  17.840   3.572  0.00  0.00     0.215 C 
BRANCH  21  22
HETATM   22  O   UNK N   1      21.298  18.674   2.510  0.00  0.00    -0.294 OA
BRANCH  22  23
HETATM   23  P   UNK N   1      22.176  20.153   2.789  0.00  0.00     0.390 P 
HETATM   24  O   UNK N   1      21.733  20.288   1.309  0.00  0.00    -0.632 OA
BRANCH  23  25
HETATM   25  O   UNK N   1      21.414  21.710   2.738  0.00  0.00    -0.307 OA
HETATM   26  H   UNK N   1      20.712  21.997   3.343  0.00  0.00     0.222 HD
ENDBRANCH  23  25
BRANCH  23  27
HETATM   27  O   UNK N   1      20.763  20.225   3.807  0.00  0.00    -0.307 OA
HETATM   28  H   UNK N   1      20.035  20.744   4.183  0.00  0.00     0.222 HD
ENDBRANCH  23  27
ENDBRANCH  22  23
ENDBRANCH  21  22
ENDBRANCH   1  21
TORSDOF 9
ENDMDL
MODEL 5
REMARK VINA RESULT:      -5.7      6.465      8.361
REMARK  9 active torsions:
REMARK  status: ('A' for Active; 'I' for Inactive)
REMARK    1  A    between atoms: C_5  and  C_3 
REMARK    2  A    between atoms: O_21  and  C_3 
REMARK    3  A    between atoms: C_6  and  O_14 
REMARK    4  A    between atoms: C_7  and  O_15 
REMARK    5  A    between atoms: O_16  and  C_8 
REMARK    6  A    between atoms: C_9  and  N_13 
REMARK    7  A    between atoms: P_23  and  O_18 
REMARK    8  A    between atoms: P_23  and  O_19 
REMARK    9  A    between atoms: P_23  and  O_21 
ROOT
HETATM    1  C   UNK N   1      30.877  17.868   8.320  0.00  0.00     0.180 C 
HETATM    2  C   UNK N   1      29.881  18.101   9.497  0.00  0.00     0.182 C 
HETATM    3  C   UNK N   1      28.595  18.424   8.746  0.00  0.00     0.198 C 
HETATM    4  C   UNK N   1      28.833  17.576   7.514  0.00  0.00     0.263 C 
HETATM    5  O   UNK N   1      30.126  17.969   7.128  0.00  0.00    -0.353 OA
ENDROOT
BRANCH   4   6
HETATM    6  N   UNK N   1      27.888  17.690   6.392  0.00  0.00    -0.279 N 
HETATM    7  C   UNK N   1      27.903  18.765   5.555  0.00  0.00     0.109 A 
HETATM    8  C   UNK N   1      26.934  18.900   4.559  0.00  0.00     0.005 A 
HETATM    9  C   UNK N   1      26.940  20.097   3.674  0.00  0.00     0.054 C 
HETATM   10  C   UNK N   1      25.955  17.911   4.428  0.00  0.00     0.151 A 
HETATM   11  N   UNK N   1      25.965  16.842   5.259  0.00  0.00    -0.288 N 
HETATM   12  C   UNK N   1      26.910  16.720   6.241  0.00  0.00     0.330 A 
ATOM     13  HN  UNK N   1      25.257  16.116   5.151  1.00  0.00     0.172 HD
HETATM   14  O   UNK N   1      26.871  15.754   6.984  0.00  0.00    -0.246 OA
BRANCH  10  15
HETATM   15  O   UNK N   1      24.998  18.013   3.491  0.00  0.00    -0.346 OA
HETATM   16  H   UNK N   1      25.232  18.075   2.586  0.00  0.00     0.219 HD
ENDBRANCH  10  15
ENDBRANCH   4   6
BRANCH   3  17
HETATM   17  O   UNK N   1      27.442  18.086   9.459  0.00  0.00    -0.388 OA
HETATM   18  H   UNK N   1      26.475  18.075   9.369  0.00  0.00     0.210 HD
ENDBRANCH   3  17
BRANCH   2  19
HETATM   19  O   UNK N   1      29.714  16.930  10.247  0.00  0.00    -0.390 OA
HETATM   20  H   UNK N   1      29.863  16.055  10.638  0.00  0.00     0.210 HD
ENDBRANCH   2  19
BRANCH   1  21
HETATM   21  C   UNK N   1      31.505  16.468   8.264  0.00  0.00     0.215 C 
BRANCH  21  22
HETATM   22  O   UNK N   1      32.647  16.315   9.055  0.00  0.00    -0.294 OA
BRANCH  22  23
HETATM   23  P   UNK N   1      32.871  14.592   9.186  0.00  0.00     0.390 P 
HETATM   24  O   UNK N   1      34.324  15.121   9.064  0.00  0.00    -0.632 OA
BRANCH  23  25
HETATM   25  O   UNK N   1      33.680  13.860  10.534  0.00  0.00    -0.307 OA
HETATM   26  H   UNK N   1      34.453  14.239  10.981  0.00  0.00     0.222 HD
ENDBRANCH  23  25
BRANCH  23  27
HETATM   27  O   UNK N   1      32.209  15.116  10.711  0.00  0.00    -0.307 OA
HETATM   28  H   UNK N   1      32.343  15.533  11.576  0.00  0.00     0.222 HD
ENDBRANCH  23  27
ENDBRANCH  22  23
ENDBRANCH  21  22
ENDBRANCH   1  21
TORSDOF 9
ENDMDL
MODEL 6
REMARK VINA RESULT:      -5.7     16.976     20.990
REMARK  9 active torsions:
REMARK  status: ('A' for Active; 'I' for Inactive)
REMARK    1  A    between atoms: C_5  and  C_3 
REMARK    2  A    between atoms: O_21  and  C_3 
REMARK    3  A    between atoms: C_6  and  O_14 
REMARK    4  A    between atoms: C_7  and  O_15 
REMARK    5  A    between atoms: O_16  and  C_8 
REMARK    6  A    between atoms: C_9  and  N_13 
REMARK    7  A    between atoms: P_23  and  O_18 
REMARK    8  A    between atoms: P_23  and  O_19 
REMARK    9  A    between atoms: P_23  and  O_21 
ROOT
HETATM    1  C   UNK N   1      26.865  26.889  -6.275  0.00  0.00     0.180 C 
HETATM    2  C   UNK N   1      25.898  25.687  -6.499  0.00  0.00     0.182 C 
HETATM    3  C   UNK N   1      26.708  24.533  -5.920  0.00  0.00     0.198 C 
HETATM    4  C   UNK N   1      27.457  25.298  -4.848  0.00  0.00     0.263 C 
HETATM    5  O   UNK N   1      27.980  26.385  -5.570  0.00  0.00    -0.353 OA
ENDROOT
BRANCH   4   6
HETATM    6  N   UNK N   1      28.514  24.601  -4.100  0.00  0.00    -0.279 N 
HETATM    7  C   UNK N   1      29.800  24.570  -4.547  0.00  0.00     0.109 A 
HETATM    8  C   UNK N   1      30.765  23.819  -3.873  0.00  0.00     0.005 A 
HETATM    9  C   UNK N   1      32.160  23.764  -4.392  0.00  0.00     0.054 C 
HETATM   10  C   UNK N   1      30.393  23.109  -2.728  0.00  0.00     0.151 A 
HETATM   11  N   UNK N   1      29.113  23.164  -2.290  0.00  0.00    -0.288 N 
HETATM   12  C   UNK N   1      28.169  23.891  -2.960  0.00  0.00     0.330 A 
ATOM     13  HN  UNK N   1      28.850  22.655  -1.446  1.00  0.00     0.172 HD
HETATM   14  O   UNK N   1      27.021  23.898  -2.547  0.00  0.00    -0.246 OA
BRANCH  10  15
HETATM   15  O   UNK N   1      31.290  22.364  -2.060  0.00  0.00    -0.346 OA
HETATM   16  H   UNK N   1      31.000  21.681  -1.488  0.00  0.00     0.219 HD
ENDBRANCH  10  15
ENDBRANCH   4   6
BRANCH   3  17
HETATM   17  O   UNK N   1      25.912  23.494  -5.431  0.00  0.00    -0.388 OA
HETATM   18  H   UNK N   1      25.970  22.691  -4.888  0.00  0.00     0.210 HD
ENDBRANCH   3  17
BRANCH   2  19
HETATM   19  O   UNK N   1      24.716  25.855  -5.767  0.00  0.00    -0.390 OA
HETATM   20  H   UNK N   1      24.095  26.054  -5.048  0.00  0.00     0.210 HD
ENDBRANCH   2  19
BRANCH   1  21
HETATM   21  C   UNK N   1      26.317  28.010  -5.378  0.00  0.00     0.215 C 
BRANCH  21  22
HETATM   22  O   UNK N   1      27.127  29.146  -5.315  0.00  0.00    -0.294 OA
BRANCH  22  23
HETATM   23  P   UNK N   1      26.957  29.724  -3.680  0.00  0.00     0.390 P 
HETATM   24  O   UNK N   1      25.723  28.800  -3.850  0.00  0.00    -0.632 OA
BRANCH  23  25
HETATM   25  O   UNK N   1      27.052  28.670  -2.307  0.00  0.00    -0.307 OA
HETATM   26  H   UNK N   1      27.658  28.795  -1.560  0.00  0.00     0.222 HD
ENDBRANCH  23  25
BRANCH  23  27
HETATM   27  O   UNK N   1      28.399  28.746  -3.704  0.00  0.00    -0.307 OA
HETATM   28  H   UNK N   1      28.859  27.951  -4.016  0.00  0.00     0.222 HD
ENDBRANCH  23  27
ENDBRANCH  22  23
ENDBRANCH  21  22
ENDBRANCH   1  21
TORSDOF 9
ENDMDL
MODEL 7
REMARK VINA RESULT:      -5.6     17.203     20.143
REMARK  9 active torsions:
REMARK  status: ('A' for Active; 'I' for Inactive)
REMARK    1  A    between atoms: C_5  and  C_3 
REMARK    2  A    between atoms: O_21  and  C_3 
REMARK    3  A    between atoms: C_6  and  O_14 
REMARK    4  A    between atoms: C_7  and  O_15 
REMARK    5  A    between atoms: O_16  and  C_8 
REMARK    6  A    between atoms: C_9  and  N_13 
REMARK    7  A    between atoms: P_23  and  O_18 
REMARK    8  A    between atoms: P_23  and  O_19 
REMARK    9  A    between atoms: P_23  and  O_21 
ROOT
HETATM    1  C   UNK N   1      27.281  26.096  -5.169  0.00  0.00     0.180 C 
HETATM    2  C   UNK N   1      26.288  25.549  -4.100  0.00  0.00     0.182 C 
HETATM    3  C   UNK N   1      26.831  24.143  -3.873  0.00  0.00     0.198 C 
HETATM    4  C   UNK N   1      28.298  24.423  -4.130  0.00  0.00     0.263 C 
HETATM    5  O   UNK N   1      28.260  25.097  -5.362  0.00  0.00    -0.353 OA
ENDROOT
BRANCH   4   6
HETATM    6  N   UNK N   1      29.230  23.286  -4.175  0.00  0.00    -0.279 N 
HETATM    7  C   UNK N   1      29.399  22.549  -5.309  0.00  0.00     0.109 A 
HETATM    8  C   UNK N   1      30.213  21.415  -5.300  0.00  0.00     0.005 A 
HETATM    9  C   UNK N   1      30.361  20.598  -6.536  0.00  0.00     0.054 C 
HETATM   10  C   UNK N   1      30.859  21.054  -4.115  0.00  0.00     0.151 A 
HETATM   11  N   UNK N   1      30.692  21.807  -3.002  0.00  0.00    -0.288 N 
HETATM   12  C   UNK N   1      29.884  22.911  -3.012  0.00  0.00     0.330 A 
ATOM     13  HN  UNK N   1      31.176  21.547  -2.143  1.00  0.00     0.172 HD
HETATM   14  O   UNK N   1      29.740  23.550  -1.984  0.00  0.00    -0.246 OA
BRANCH  10  15
HETATM   15  O   UNK N   1      31.640  19.961  -4.064  0.00  0.00    -0.346 OA
HETATM   16  H   UNK N   1      31.252  19.110  -4.009  0.00  0.00     0.219 HD
ENDBRANCH  10  15
ENDBRANCH   4   6
BRANCH   3  17
HETATM   17  O   UNK N   1      26.558  23.648  -2.595  0.00  0.00    -0.388 OA
HETATM   18  H   UNK N   1      26.770  23.811  -1.662  0.00  0.00     0.210 HD
ENDBRANCH   3  17
BRANCH   2  19
HETATM   19  O   UNK N   1      26.373  26.290  -2.915  0.00  0.00    -0.390 OA
HETATM   20  H   UNK N   1      26.722  26.814  -2.177  0.00  0.00     0.210 HD
ENDBRANCH   2  19
BRANCH   1  21
HETATM   21  C   UNK N   1      28.078  27.340  -4.745  0.00  0.00     0.215 C 
BRANCH  21  22
HETATM   22  O   UNK N   1      27.543  28.549  -5.194  0.00  0.00    -0.294 OA
BRANCH  22  23
HETATM   23  P   UNK N   1      27.555  29.589  -3.797  0.00  0.00     0.390 P 
HETATM   24  O   UNK N   1      26.091  29.077  -3.833  0.00  0.00    -0.632 OA
BRANCH  23  25
HETATM   25  O   UNK N   1      27.299  28.989  -2.190  0.00  0.00    -0.307 OA
HETATM   26  H   UNK N   1      27.929  29.092  -1.459  0.00  0.00     0.222 HD
ENDBRANCH  23  25
BRANCH  23  27
HETATM   27  O   UNK N   1      28.609  28.253  -3.420  0.00  0.00    -0.307 OA
HETATM   28  H   UNK N   1      28.776  27.444  -2.911  0.00  0.00     0.222 HD
ENDBRANCH  23  27
ENDBRANCH  22  23
ENDBRANCH  21  22
ENDBRANCH   1  21
TORSDOF 9
ENDMDL
MODEL 8
REMARK VINA RESULT:      -5.5      3.737      6.998
REMARK  9 active torsions:
REMARK  status: ('A' for Active; 'I' for Inactive)
REMARK    1  A    between atoms: C_5  and  C_3 
REMARK    2  A    between atoms: O_21  and  C_3 
REMARK    3  A    between atoms: C_6  and  O_14 
REMARK    4  A    between atoms: C_7  and  O_15 
REMARK    5  A    between atoms: O_16  and  C_8 
REMARK    6  A    between atoms: C_9  and  N_13 
REMARK    7  A    between atoms: P_23  and  O_18 
REMARK    8  A    between atoms: P_23  and  O_19 
REMARK    9  A    between atoms: P_23  and  O_21 
ROOT
HETATM    1  C   UNK N   1      32.326  17.807   8.189  0.00  0.00     0.180 C 
HETATM    2  C   UNK N   1      33.075  17.649   6.830  0.00  0.00     0.182 C 
HETATM    3  C   UNK N   1      34.381  17.003   7.277  0.00  0.00     0.198 C 
HETATM    4  C   UNK N   1      33.853  16.224   8.465  0.00  0.00     0.263 C 
HETATM    5  O   UNK N   1      33.143  17.208   9.173  0.00  0.00    -0.353 OA
ENDROOT
BRANCH   4   6
HETATM    6  N   UNK N   1      34.820  15.538   9.337  0.00  0.00    -0.279 N 
HETATM    7  C   UNK N   1      34.913  14.179   9.365  0.00  0.00     0.109 A 
HETATM    8  C   UNK N   1      35.766  13.547  10.271  0.00  0.00     0.005 A 
HETATM    9  C   UNK N   1      35.833  12.061  10.316  0.00  0.00     0.054 C 
HETATM   10  C   UNK N   1      36.529  14.330  11.142  0.00  0.00     0.151 A 
HETATM   11  N   UNK N   1      36.435  15.680  11.089  0.00  0.00    -0.288 N 
HETATM   12  C   UNK N   1      35.589  16.294  10.208  0.00  0.00     0.330 A 
ATOM     13  HN  UNK N   1      37.004  16.247  11.717  1.00  0.00     0.172 HD
HETATM   14  O   UNK N   1      35.514  17.511  10.206  0.00  0.00    -0.246 OA
BRANCH  10  15
HETATM   15  O   UNK N   1      37.351  13.758  12.037  0.00  0.00    -0.346 OA
HETATM   16  H   UNK N   1      37.323  14.022  12.936  0.00  0.00     0.219 HD
ENDBRANCH  10  15
ENDBRANCH   4   6
BRANCH   3  17
HETATM   17  O   UNK N   1      34.969  16.210   6.288  0.00  0.00    -0.388 OA
HETATM   18  H   UNK N   1      34.746  15.735   5.472  0.00  0.00     0.210 HD
ENDBRANCH   3  17
BRANCH   2  19
HETATM   19  O   UNK N   1      32.381  16.780   5.978  0.00  0.00    -0.390 OA
HETATM   20  H   UNK N   1      31.666  16.322   5.510  0.00  0.00     0.210 HD
ENDBRANCH   2  19
BRANCH   1  21
HETATM   21  C   UNK N   1      30.989  17.057   8.289  0.00  0.00     0.215 C 
BRANCH  21  22
HETATM   22  O   UNK N   1      29.919  17.697   7.657  0.00  0.00    -0.294 OA
BRANCH  22  23
HETATM   23  P   UNK N   1      29.129  18.598   8.922  0.00  0.00     0.390 P 
HETATM   24  O   UNK N   1      28.367  19.050   7.648  0.00  0.00    -0.632 OA
BRANCH  23  25
HETATM   25  O   UNK N   1      27.464  18.349   9.339  0.00  0.00    -0.307 OA
HETATM   26  H   UNK N   1      26.766  19.014   9.229  0.00  0.00     0.222 HD
ENDBRANCH  23  25
BRANCH  23  27
HETATM   27  O   UNK N   1      28.773  16.919   9.223  0.00  0.00    -0.307 OA
HETATM   28  H   UNK N   1      28.933  16.116   9.743  0.00  0.00     0.222 HD
ENDBRANCH  23  27
ENDBRANCH  22  23
ENDBRANCH  21  22
ENDBRANCH   1  21
TORSDOF 9
ENDMDL
MODEL 9
REMARK VINA RESULT:      -5.5      4.822      6.164
REMARK  9 active torsions:
REMARK  status: ('A' for Active; 'I' for Inactive)
REMARK    1  A    between atoms: C_5  and  C_3 
REMARK    2  A    between atoms: O_21  and  C_3 
REMARK    3  A    between atoms: C_6  and  O_14 
REMARK    4  A    between atoms: C_7  and  O_15 
REMARK    5  A    between atoms: O_16  and  C_8 
REMARK    6  A    between atoms: C_9  and  N_13 
REMARK    7  A    between atoms: P_23  and  O_18 
REMARK    8  A    between atoms: P_23  and  O_19 
REMARK    9  A    between atoms: P_23  and  O_21 
ROOT
HETATM    1  C   UNK N   1      33.328  14.480   5.239  0.00  0.00     0.180 C 
HETATM    2  C   UNK N   1      34.275  15.706   5.068  0.00  0.00     0.182 C 
HETATM    3  C   UNK N   1      33.409  16.837   5.609  0.00  0.00     0.198 C 
HETATM    4  C   UNK N   1      32.626  16.049   6.639  0.00  0.00     0.263 C 
HETATM    5  O   UNK N   1      32.166  14.954   5.888  0.00  0.00    -0.353 OA
ENDROOT
BRANCH   4   6
HETATM    6  N   UNK N   1      31.515  16.717   7.335  0.00  0.00    -0.279 N 
HETATM    7  C   UNK N   1      30.245  16.686   6.843  0.00  0.00     0.109 A 
HETATM    8  C   UNK N   1      29.227  17.410   7.467  0.00  0.00     0.005 A 
HETATM    9  C   UNK N   1      27.851  17.397   6.899  0.00  0.00     0.054 C 
HETATM   10  C   UNK N   1      29.529  18.158   8.608  0.00  0.00     0.151 A 
HETATM   11  N   UNK N   1      30.794  18.165   9.092  0.00  0.00    -0.288 N 
HETATM   12  C   UNK N   1      31.791  17.464   8.470  0.00  0.00     0.330 A 
ATOM     13  HN  UNK N   1      31.007  18.701   9.932  1.00  0.00     0.172 HD
HETATM   14  O   UNK N   1      32.922  17.513   8.922  0.00  0.00    -0.246 OA
BRANCH  10  15
HETATM   15  O   UNK N   1      28.580  18.878   9.228  0.00  0.00    -0.346 OA
HETATM   16  H   UNK N   1      28.806  19.676   9.665  0.00  0.00     0.219 HD
ENDBRANCH  10  15
ENDBRANCH   4   6
BRANCH   3  17
HETATM   17  O   UNK N   1      34.153  17.893   6.141  0.00  0.00    -0.388 OA
HETATM   18  H   UNK N   1      35.048  18.268   6.125  0.00  0.00     0.210 HD
ENDBRANCH   3  17
BRANCH   2  19
HETATM   19  O   UNK N   1      35.422  15.563   5.859  0.00  0.00    -0.390 OA
HETATM   20  H   UNK N   1      36.311  15.320   6.161  0.00  0.00     0.210 HD
ENDBRANCH   2  19
BRANCH   1  21
HETATM   21  C   UNK N   1      33.857  13.368   6.158  0.00  0.00     0.215 C 
BRANCH  21  22
HETATM   22  O   UNK N   1      32.861  12.598   6.765  0.00  0.00    -0.294 OA
BRANCH  22  23
HETATM   23  P   UNK N   1      33.507  12.185   8.329  0.00  0.00     0.390 P 
HETATM   24  O   UNK N   1      32.431  13.249   8.670  0.00  0.00    -0.632 OA
BRANCH  23  25
HETATM   25  O   UNK N   1      32.553  11.414   9.555  0.00  0.00    -0.307 OA
HETATM   26  H   UNK N   1      32.087  11.885  10.264  0.00  0.00     0.222 HD
ENDBRANCH  23  25
BRANCH  23  27
HETATM   27  O   UNK N   1      32.711  10.752   7.736  0.00  0.00    -0.307 OA
HETATM   28  H   UNK N   1      32.352  10.251   6.988  0.00  0.00     0.222 HD
ENDBRANCH  23  27
ENDBRANCH  22  23
ENDBRANCH  21  22
ENDBRANCH   1  21
TORSDOF 9
ENDMDL
