REMARK  6 active torsions:
REMARK  status: ('A' for Active; 'I' for Inactive)
REMARK    1  A    between atoms: C_2  and  C_3 
REMARK    2  A    between atoms: C_3  and  C_4 
REMARK    3  A    between atoms: C_4  and  S_6 
REMARK    4  A    between atoms: S_6  and  C_7 
REMARK    5  A    between atoms: C_7  and  C_8 
REMARK    6  A    between atoms: C_8  and  N_9 
ROOT
HETATM    1  S   UNK N   1       5.571  -3.528   0.301  0.00  0.00    -0.091 SA
ENDROOT
BRANCH   1   2
HETATM    2  C   UNK N   1       4.112  -2.496   0.069  0.00  0.00     0.186 C 
HETATM    3  O   UNK N   1       4.216  -1.294  -0.135  0.00  0.00    -0.286 OA
BRANCH   2   4
HETATM    4  C   UNK N   1       2.765  -3.158   0.131  0.00  0.00     0.090 C 
BRANCH   4   5
HETATM    5  C   UNK N   1       1.603  -2.197  -0.057  0.00  0.00     0.004 C 
HETATM    6  C   UNK N   1       0.304  -2.974   0.007  0.00  0.00     0.005 C 
ENDBRANCH   4   5
ENDBRANCH   2   4
ENDBRANCH   1   2
BRANCH   1   7
HETATM    7  C   UNK N   1       6.793  -2.193   0.485  0.00  0.00     0.110 C 
BRANCH   7   8
HETATM    8  C   UNK N   1       8.107  -2.663  -0.141  0.00  0.00     0.246 C 
BRANCH   8   9
HETATM    9  N   UNK N   1       9.156  -1.641  -0.152  0.00  0.00    -0.078 N 
HETATM   10  C   UNK N   1       9.500  -1.216   1.197  0.00  0.00     0.271 C 
HETATM   11  C   UNK N   1      10.340  -2.221  -0.760  0.00  0.00     0.271 C 
HETATM   12  C   UNK N   1       8.754  -0.490  -0.944  0.00  0.00     0.271 C 
ENDBRANCH   8   9
ENDBRANCH   7   8
ENDBRANCH   1   7
TORSDOF 6
