MODEL 1
REMARK VINA RESULT:      -4.9      0.000      0.000
REMARK  5 active torsions:
REMARK  status: ('A' for Active; 'I' for Inactive)
REMARK    1  A    between atoms: C_2  and  C_1 
REMARK    2  A    between atoms: O_8  and  C_1 
REMARK    3  A    between atoms: C_4  and  O_9 
REMARK    4  A    between atoms: C_5  and  O_10 
REMARK    5  A    between atoms: C_6  and  O_11 
ROOT
HETATM    1  C   UNK N   1      21.011  19.436   2.278  0.00  0.00     0.179 C 
HETATM    2  C   UNK N   1      20.337  17.438   4.226  0.00  0.00     0.256 C 
HETATM    3  C   UNK N   1      20.114  18.246   1.861  0.00  0.00     0.180 C 
HETATM    4  C   UNK N   1      20.447  17.037   2.750  0.00  0.00     0.188 C 
HETATM    5  C   UNK N   1      21.236  18.660   4.465  0.00  0.00     0.294 C 
HETATM    6  F   UNK N   1      20.732  16.384   5.032  0.00  0.00    -0.241 F 
HETATM    7  O   UNK N   1      20.819  19.743   3.652  0.00  0.00    -0.348 OA
ENDROOT
BRANCH   1   8
HETATM    8  C   UNK N   1      20.676  20.685   1.467  0.00  0.00     0.198 C 
BRANCH   8   9
HETATM    9  O   UNK N   1      20.552  20.379   0.110  0.00  0.00    -0.398 OA
HETATM   10  H   UNK N   1      21.170  20.527  -0.622  0.00  0.00     0.209 HD
ENDBRANCH   8   9
ENDBRANCH   1   8
BRANCH   3  11
HETATM   11  O   UNK N   1      18.766  18.589   2.010  0.00  0.00    -0.390 OA
HETATM   12  H   UNK N   1      17.801  18.651   1.930  0.00  0.00     0.210 HD
ENDBRANCH   3  11
BRANCH   4  13
HETATM   13  O   UNK N   1      19.587  15.972   2.469  0.00  0.00    -0.390 OA
HETATM   14  H   UNK N   1      19.531  15.203   3.057  0.00  0.00     0.210 HD
ENDBRANCH   4  13
BRANCH   5  15
HETATM   15  O   UNK N   1      21.142  19.043   5.805  0.00  0.00    -0.368 OA
HETATM   16  H   UNK N   1      21.704  18.760   6.543  0.00  0.00     0.212 HD
ENDBRANCH   5  15
TORSDOF 5
ENDMDL
MODEL 2
REMARK VINA RESULT:      -4.8     14.565     16.032
REMARK  5 active torsions:
REMARK  status: ('A' for Active; 'I' for Inactive)
REMARK    1  A    between atoms: C_2  and  C_1 
REMARK    2  A    between atoms: O_8  and  C_1 
REMARK    3  A    between atoms: C_4  and  O_9 
REMARK    4  A    between atoms: C_5  and  O_10 
REMARK    5  A    between atoms: C_6  and  O_11 
ROOT
HETATM    1  C   UNK N   1      34.783  16.268  10.162  0.00  0.00     0.179 C 
HETATM    2  C   UNK N   1      34.366  17.163   7.467  0.00  0.00     0.256 C 
HETATM    3  C   UNK N   1      34.610  15.220   9.036  0.00  0.00     0.180 C 
HETATM    4  C   UNK N   1      33.752  15.831   7.916  0.00  0.00     0.188 C 
HETATM    5  C   UNK N   1      34.525  18.065   8.700  0.00  0.00     0.294 C 
HETATM    6  F   UNK N   1      33.547  17.768   6.529  0.00  0.00    -0.241 F 
HETATM    7  O   UNK N   1      35.379  17.452   9.650  0.00  0.00    -0.348 OA
ENDROOT
BRANCH   1   8
HETATM    8  C   UNK N   1      35.682  15.732  11.274  0.00  0.00     0.198 C 
BRANCH   8   9
HETATM    9  O   UNK N   1      37.025  15.997  10.999  0.00  0.00    -0.398 OA
HETATM   10  H   UNK N   1      37.495  16.843  10.937  0.00  0.00     0.209 HD
ENDBRANCH   8   9
ENDBRANCH   1   8
BRANCH   3  11
HETATM   11  O   UNK N   1      35.862  14.852   8.529  0.00  0.00    -0.390 OA
HETATM   12  H   UNK N   1      36.811  14.774   8.345  0.00  0.00     0.210 HD
ENDBRANCH   3  11
BRANCH   4  13
HETATM   13  O   UNK N   1      33.657  14.949   6.837  0.00  0.00    -0.390 OA
HETATM   14  H   UNK N   1      32.800  14.736   6.436  0.00  0.00     0.210 HD
ENDBRANCH   4  13
BRANCH   5  15
HETATM   15  O   UNK N   1      35.090  19.281   8.309  0.00  0.00    -0.368 OA
HETATM   16  H   UNK N   1      34.628  20.087   8.032  0.00  0.00     0.212 HD
ENDBRANCH   5  15
TORSDOF 5
ENDMDL
MODEL 3
REMARK VINA RESULT:      -4.7     13.789     15.550
REMARK  5 active torsions:
REMARK  status: ('A' for Active; 'I' for Inactive)
REMARK    1  A    between atoms: C_2  and  C_1 
REMARK    2  A    between atoms: O_8  and  C_1 
REMARK    3  A    between atoms: C_4  and  O_9 
REMARK    4  A    between atoms: C_5  and  O_10 
REMARK    5  A    between atoms: C_6  and  O_11 
ROOT
HETATM    1  C   UNK N   1      34.470  15.241   9.510  0.00  0.00     0.179 C 
HETATM    2  C   UNK N   1      33.166  17.631   8.598  0.00  0.00     0.256 C 
HETATM    3  C   UNK N   1      35.186  16.604   9.675  0.00  0.00     0.180 C 
HETATM    4  C   UNK N   1      34.698  17.559   8.574  0.00  0.00     0.188 C 
HETATM    5  C   UNK N   1      32.611  16.203   8.482  0.00  0.00     0.294 C 
HETATM    6  F   UNK N   1      32.713  18.410   7.547  0.00  0.00    -0.241 F 
HETATM    7  O   UNK N   1      33.060  15.412   9.569  0.00  0.00    -0.348 OA
ENDROOT
BRANCH   1   8
HETATM    8  C   UNK N   1      34.873  14.273  10.619  0.00  0.00     0.198 C 
BRANCH   8   9
HETATM    9  O   UNK N   1      34.002  14.372  11.706  0.00  0.00    -0.398 OA
HETATM   10  H   UNK N   1      34.023  14.969  12.470  0.00  0.00     0.209 HD
ENDBRANCH   8   9
ENDBRANCH   1   8
BRANCH   3  11
HETATM   11  O   UNK N   1      34.900  17.143  10.934  0.00  0.00    -0.390 OA
HETATM   12  H   UNK N   1      34.860  17.332  11.885  0.00  0.00     0.210 HD
ENDBRANCH   3  11
BRANCH   4  13
HETATM   13  O   UNK N   1      35.248  18.831   8.751  0.00  0.00    -0.390 OA
HETATM   14  H   UNK N   1      35.920  19.177   8.143  0.00  0.00     0.210 HD
ENDBRANCH   4  13
BRANCH   5  15
HETATM   15  O   UNK N   1      31.215  16.250   8.510  0.00  0.00    -0.368 OA
HETATM   16  H   UNK N   1      30.639  16.268   9.290  0.00  0.00     0.212 HD
ENDBRANCH   5  15
TORSDOF 5
ENDMDL
MODEL 4
REMARK VINA RESULT:      -4.6     22.252     23.065
REMARK  5 active torsions:
REMARK  status: ('A' for Active; 'I' for Inactive)
REMARK    1  A    between atoms: C_2  and  C_1 
REMARK    2  A    between atoms: O_8  and  C_1 
REMARK    3  A    between atoms: C_4  and  O_9 
REMARK    4  A    between atoms: C_5  and  O_10 
REMARK    5  A    between atoms: C_6  and  O_11 
ROOT
HETATM    1  C   UNK N   1      43.847  21.714   2.945  0.00  0.00     0.179 C 
HETATM    2  C   UNK N   1      41.444  22.856   1.868  0.00  0.00     0.256 C 
HETATM    3  C   UNK N   1      43.849  23.196   2.499  0.00  0.00     0.180 C 
HETATM    4  C   UNK N   1      42.802  23.382   1.388  0.00  0.00     0.188 C 
HETATM    5  C   UNK N   1      41.621  21.401   2.327  0.00  0.00     0.294 C 
HETATM    6  F   UNK N   1      40.520  22.928   0.840  0.00  0.00    -0.241 F 
HETATM    7  O   UNK N   1      42.554  21.332   3.392  0.00  0.00    -0.348 OA
ENDROOT
BRANCH   1   8
HETATM    8  C   UNK N   1      44.827  21.488   4.093  0.00  0.00     0.198 C 
BRANCH   8   9
HETATM    9  O   UNK N   1      45.820  22.469   4.101  0.00  0.00    -0.398 OA
HETATM   10  H   UNK N   1      46.785  22.380   4.132  0.00  0.00     0.209 HD
ENDBRANCH   8   9
ENDBRANCH   1   8
BRANCH   3  11
HETATM   11  O   UNK N   1      43.540  24.022   3.586  0.00  0.00    -0.390 OA
HETATM   12  H   UNK N   1      43.102  24.614   4.217  0.00  0.00     0.210 HD
ENDBRANCH   3  11
BRANCH   4  13
HETATM   13  O   UNK N   1      42.704  24.729   1.029  0.00  0.00    -0.390 OA
HETATM   14  H   UNK N   1      42.465  24.993   0.127  0.00  0.00     0.210 HD
ENDBRANCH   4  13
BRANCH   5  15
HETATM   15  O   UNK N   1      40.393  20.908   2.775  0.00  0.00    -0.368 OA
HETATM   16  H   UNK N   1      39.649  21.414   3.136  0.00  0.00     0.212 HD
ENDBRANCH   5  15
TORSDOF 5
ENDMDL
MODEL 5
REMARK VINA RESULT:      -4.5     14.364     15.602
REMARK  5 active torsions:
REMARK  status: ('A' for Active; 'I' for Inactive)
REMARK    1  A    between atoms: C_2  and  C_1 
REMARK    2  A    between atoms: O_8  and  C_1 
REMARK    3  A    between atoms: C_4  and  O_9 
REMARK    4  A    between atoms: C_5  and  O_10 
REMARK    5  A    between atoms: C_6  and  O_11 
ROOT
HETATM    1  C   UNK N   1      34.659  16.934   8.627  0.00  0.00     0.179 C 
HETATM    2  C   UNK N   1      34.271  14.936  10.652  0.00  0.00     0.256 C 
HETATM    3  C   UNK N   1      33.324  16.151   8.671  0.00  0.00     0.180 C 
HETATM    4  C   UNK N   1      33.578  14.769   9.294  0.00  0.00     0.188 C 
HETATM    5  C   UNK N   1      35.540  15.777  10.449  0.00  0.00     0.294 C 
HETATM    6  F   UNK N   1      34.593  13.695  11.174  0.00  0.00    -0.241 F 
HETATM    7  O   UNK N   1      35.206  17.054   9.933  0.00  0.00    -0.348 OA
ENDROOT
BRANCH   1   8
HETATM    8  C   UNK N   1      34.449  18.342   8.074  0.00  0.00     0.198 C 
BRANCH   8   9
HETATM    9  O   UNK N   1      35.313  19.251   8.688  0.00  0.00    -0.398 OA
HETATM   10  H   UNK N   1      35.406  19.490   9.622  0.00  0.00     0.209 HD
ENDBRANCH   8   9
ENDBRANCH   1   8
BRANCH   3  11
HETATM   11  O   UNK N   1      32.385  16.852   9.437  0.00  0.00    -0.390 OA
HETATM   12  H   UNK N   1      31.694  17.459   9.745  0.00  0.00     0.210 HD
ENDBRANCH   3  11
BRANCH   4  13
HETATM   13  O   UNK N   1      32.377  14.071   9.442  0.00  0.00    -0.390 OA
HETATM   14  H   UNK N   1      31.521  14.522   9.371  0.00  0.00     0.210 HD
ENDBRANCH   4  13
BRANCH   5  15
HETATM   15  O   UNK N   1      36.180  15.945  11.679  0.00  0.00    -0.368 OA
HETATM   16  H   UNK N   1      35.906  15.596  12.542  0.00  0.00     0.212 HD
ENDBRANCH   5  15
TORSDOF 5
ENDMDL
MODEL 6
REMARK VINA RESULT:      -4.5     14.269     15.677
REMARK  5 active torsions:
REMARK  status: ('A' for Active; 'I' for Inactive)
REMARK    1  A    between atoms: C_2  and  C_1 
REMARK    2  A    between atoms: O_8  and  C_1 
REMARK    3  A    between atoms: C_4  and  O_9 
REMARK    4  A    between atoms: C_5  and  O_10 
REMARK    5  A    between atoms: C_6  and  O_11 
ROOT
HETATM    1  C   UNK N   1      33.524  15.421   8.756  0.00  0.00     0.179 C 
HETATM    2  C   UNK N   1      35.042  15.835  11.157  0.00  0.00     0.256 C 
HETATM    3  C   UNK N   1      33.240  14.535   9.993  0.00  0.00     0.180 C 
HETATM    4  C   UNK N   1      34.521  14.429  10.834  0.00  0.00     0.188 C 
HETATM    5  C   UNK N   1      35.218  16.603   9.838  0.00  0.00     0.294 C 
HETATM    6  F   UNK N   1      36.249  15.750  11.829  0.00  0.00    -0.241 F 
HETATM    7  O   UNK N   1      33.977  16.706   9.161  0.00  0.00    -0.348 OA
ENDROOT
BRANCH   1   8
HETATM    8  C   UNK N   1      32.262  15.611   7.918  0.00  0.00     0.198 C 
BRANCH   8   9
HETATM    9  O   UNK N   1      31.498  16.674   8.402  0.00  0.00    -0.398 OA
HETATM   10  H   UNK N   1      30.802  16.686   9.077  0.00  0.00     0.209 HD
ENDBRANCH   8   9
ENDBRANCH   1   8
BRANCH   3  11
HETATM   11  O   UNK N   1      32.213  15.099  10.759  0.00  0.00    -0.390 OA
HETATM   12  H   UNK N   1      31.373  15.286  11.206  0.00  0.00     0.210 HD
ENDBRANCH   3  11
BRANCH   4  13
HETATM   13  O   UNK N   1      34.277  13.718  12.012  0.00  0.00    -0.390 OA
HETATM   14  H   UNK N   1      33.403  13.728  12.432  0.00  0.00     0.210 HD
ENDBRANCH   4  13
BRANCH   5  15
HETATM   15  O   UNK N   1      35.685  17.890  10.115  0.00  0.00    -0.368 OA
HETATM   16  H   UNK N   1      35.219  18.601  10.580  0.00  0.00     0.212 HD
ENDBRANCH   5  15
TORSDOF 5
ENDMDL
MODEL 7
REMARK VINA RESULT:      -4.5     20.885     21.595
REMARK  5 active torsions:
REMARK  status: ('A' for Active; 'I' for Inactive)
REMARK    1  A    between atoms: C_2  and  C_1 
REMARK    2  A    between atoms: O_8  and  C_1 
REMARK    3  A    between atoms: C_4  and  O_9 
REMARK    4  A    between atoms: C_5  and  O_10 
REMARK    5  A    between atoms: C_6  and  O_11 
ROOT
HETATM    1  C   UNK N   1      42.973  21.932   2.468  0.00  0.00     0.179 C 
HETATM    2  C   UNK N   1      40.216  21.231   2.080  0.00  0.00     0.256 C 
HETATM    3  C   UNK N   1      42.110  22.768   1.492  0.00  0.00     0.180 C 
HETATM    4  C   UNK N   1      40.993  21.876   0.926  0.00  0.00     0.188 C 
HETATM    5  C   UNK N   1      41.214  20.491   2.984  0.00  0.00     0.294 C 
HETATM    6  F   UNK N   1      39.274  20.349   1.581  0.00  0.00    -0.241 F 
HETATM    7  O   UNK N   1      42.167  21.400   3.510  0.00  0.00    -0.348 OA
ENDROOT
BRANCH   1   8
HETATM    8  C   UNK N   1      44.061  22.790   3.108  0.00  0.00     0.198 C 
BRANCH   8   9
HETATM    9  O   UNK N   1      43.511  23.696   4.016  0.00  0.00    -0.398 OA
HETATM   10  H   UNK N   1      42.683  23.651   4.519  0.00  0.00     0.209 HD
ENDBRANCH   8   9
ENDBRANCH   1   8
BRANCH   3  11
HETATM   11  O   UNK N   1      41.551  23.860   2.164  0.00  0.00    -0.390 OA
HETATM   12  H   UNK N   1      40.967  24.571   2.474  0.00  0.00     0.210 HD
ENDBRANCH   3  11
BRANCH   4  13
HETATM   13  O   UNK N   1      40.133  22.622   0.117  0.00  0.00    -0.390 OA
HETATM   14  H   UNK N   1      40.474  23.171  -0.606  0.00  0.00     0.210 HD
ENDBRANCH   4  13
BRANCH   5  15
HETATM   15  O   UNK N   1      40.523  19.904   4.046  0.00  0.00    -0.368 OA
HETATM   16  H   UNK N   1      40.765  19.105   4.541  0.00  0.00     0.212 HD
ENDBRANCH   5  15
TORSDOF 5
ENDMDL
MODEL 8
REMARK VINA RESULT:      -4.4      8.508     10.141
REMARK  5 active torsions:
REMARK  status: ('A' for Active; 'I' for Inactive)
REMARK    1  A    between atoms: C_2  and  C_1 
REMARK    2  A    between atoms: O_8  and  C_1 
REMARK    3  A    between atoms: C_4  and  O_9 
REMARK    4  A    between atoms: C_5  and  O_10 
REMARK    5  A    between atoms: C_6  and  O_11 
ROOT
HETATM    1  C   UNK N   1      22.392  13.200   9.350  0.00  0.00     0.179 C 
HETATM    2  C   UNK N   1      22.946  11.739  11.758  0.00  0.00     0.256 C 
HETATM    3  C   UNK N   1      23.816  12.641   9.585  0.00  0.00     0.180 C 
HETATM    4  C   UNK N   1      24.070  12.546  11.097  0.00  0.00     0.188 C 
HETATM    5  C   UNK N   1      21.602  12.383  11.386  0.00  0.00     0.294 C 
HETATM    6  F   UNK N   1      23.113  11.732  13.132  0.00  0.00    -0.241 F 
HETATM    7  O   UNK N   1      21.424  12.371   9.980  0.00  0.00    -0.348 OA
ENDROOT
BRANCH   1   8
HETATM    8  C   UNK N   1      22.064  13.255   7.860  0.00  0.00     0.198 C 
BRANCH   8   9
HETATM    9  O   UNK N   1      20.923  12.504   7.574  0.00  0.00    -0.398 OA
HETATM   10  H   UNK N   1      20.103  12.395   8.080  0.00  0.00     0.209 HD
ENDBRANCH   8   9
ENDBRANCH   1   8
BRANCH   3  11
HETATM   11  O   UNK N   1      23.933  11.374   9.002  0.00  0.00    -0.390 OA
HETATM   12  H   UNK N   1      24.249  10.581   8.542  0.00  0.00     0.210 HD
ENDBRANCH   3  11
BRANCH   4  13
HETATM   13  O   UNK N   1      25.309  11.952  11.349  0.00  0.00    -0.390 OA
HETATM   14  H   UNK N   1      25.381  11.149  11.888  0.00  0.00     0.210 HD
ENDBRANCH   4  13
BRANCH   5  15
HETATM   15  O   UNK N   1      20.566  11.654  11.975  0.00  0.00    -0.368 OA
HETATM   16  H   UNK N   1      19.618  11.705  11.773  0.00  0.00     0.212 HD
ENDBRANCH   5  15
TORSDOF 5
ENDMDL
MODEL 9
REMARK VINA RESULT:      -4.4     22.101     22.747
REMARK  5 active torsions:
REMARK  status: ('A' for Active; 'I' for Inactive)
REMARK    1  A    between atoms: C_2  and  C_1 
REMARK    2  A    between atoms: O_8  and  C_1 
REMARK    3  A    between atoms: C_4  and  O_9 
REMARK    4  A    between atoms: C_5  and  O_10 
REMARK    5  A    between atoms: C_6  and  O_11 
ROOT
HETATM    1  C   UNK N   1      42.032  21.469   1.911  0.00  0.00     0.179 C 
HETATM    2  C   UNK N   1      44.173  21.518   3.822  0.00  0.00     0.256 C 
HETATM    3  C   UNK N   1      42.640  20.132   2.400  0.00  0.00     0.180 C 
HETATM    4  C   UNK N   1      44.102  20.370   2.808  0.00  0.00     0.188 C 
HETATM    5  C   UNK N   1      43.483  22.748   3.213  0.00  0.00     0.294 C 
HETATM    6  F   UNK N   1      45.494  21.806   4.119  0.00  0.00    -0.241 F 
HETATM    7  O   UNK N   1      42.125  22.457   2.928  0.00  0.00    -0.348 OA
ENDROOT
BRANCH   1   8
HETATM    8  C   UNK N   1      40.557  21.301   1.553  0.00  0.00     0.198 C 
BRANCH   8   9
HETATM    9  O   UNK N   1      39.756  21.379   2.693  0.00  0.00    -0.398 OA
HETATM   10  H   UNK N   1      38.955  20.887   2.928  0.00  0.00     0.209 HD
ENDBRANCH   8   9
ENDBRANCH   1   8
BRANCH   3  11
HETATM   11  O   UNK N   1      41.914  19.650   3.495  0.00  0.00    -0.390 OA
HETATM   12  H   UNK N   1      41.212  19.362   4.099  0.00  0.00     0.210 HD
ENDBRANCH   3  11
BRANCH   4  13
HETATM   13  O   UNK N   1      44.655  19.207   3.349  0.00  0.00    -0.390 OA
HETATM   14  H   UNK N   1      44.712  19.077   4.308  0.00  0.00     0.210 HD
ENDBRANCH   4  13
BRANCH   5  15
HETATM   15  O   UNK N   1      43.532  23.802   4.129  0.00  0.00    -0.368 OA
HETATM   16  H   UNK N   1      43.797  23.764   5.061  0.00  0.00     0.212 HD
ENDBRANCH   5  15
TORSDOF 5
ENDMDL
