MODEL 1
REMARK VINA RESULT:      -4.3      0.000      0.000
REMARK  3 active torsions:
REMARK  status: ('A' for Active; 'I' for Inactive)
REMARK    1  A    between atoms: N_2  and  C_3 
REMARK    2  A    between atoms: C_3  and  C_6 
REMARK    3  A    between atoms: C_6  and  O_7 
ROOT
HETATM    1  C   UNK N   1      34.074  17.145   8.975  0.00  0.00     0.098 C 
HETATM    2  C   UNK N   1      33.133  16.318   8.498  0.00  0.00     0.005 C 
HETATM    3  C   UNK N   1      32.518  15.229   9.315  0.00  0.00     0.038 C 
ENDROOT
BRANCH   1   4
HETATM    4  N   UNK N   1      34.526  16.996  10.323  0.00  0.00    -0.389 N 
HETATM    5  C   UNK N   1      35.759  16.345  10.688  0.00  0.00     0.146 C 
HETATM    6  H   UNK N   1      33.963  17.359  11.044  0.00  0.00     0.159 HD
ENDBRANCH   1   4
BRANCH   1   7
HETATM    7  C   UNK N   1      34.606  18.200   8.067  0.00  0.00     0.192 C 
HETATM    8  O   UNK N   1      34.428  18.145   6.863  0.00  0.00    -0.645 OA
BRANCH   7   9
HETATM    9  O   UNK N   1      35.304  19.234   8.581  0.00  0.00    -0.772 OA
HETATM   10  H   UNK N   1      34.876  19.866   9.125  0.00  0.00     0.167 HD
ENDBRANCH   7   9
ENDBRANCH   1   7
TORSDOF 3
ENDMDL
MODEL 2
REMARK VINA RESULT:      -4.1      1.340      2.218
REMARK  3 active torsions:
REMARK  status: ('A' for Active; 'I' for Inactive)
REMARK    1  A    between atoms: N_2  and  C_3 
REMARK    2  A    between atoms: C_3  and  C_6 
REMARK    3  A    between atoms: C_6  and  O_7 
ROOT
HETATM    1  C   UNK N   1      34.045  17.210   8.983  0.00  0.00     0.098 C 
HETATM    2  C   UNK N   1      34.891  16.513   9.756  0.00  0.00     0.005 C 
HETATM    3  C   UNK N   1      34.437  15.460  10.713  0.00  0.00     0.038 C 
ENDROOT
BRANCH   1   4
HETATM    4  N   UNK N   1      32.641  16.950   9.061  0.00  0.00    -0.389 N 
HETATM    5  C   UNK N   1      31.630  17.856   8.577  0.00  0.00     0.146 C 
HETATM    6  H   UNK N   1      32.348  16.104   9.471  0.00  0.00     0.159 HD
ENDBRANCH   1   4
BRANCH   1   7
HETATM    7  C   UNK N   1      34.617  18.230   8.061  0.00  0.00     0.192 C 
HETATM    8  O   UNK N   1      34.497  18.126   6.853  0.00  0.00    -0.645 OA
BRANCH   7   9
HETATM    9  O   UNK N   1      35.289  19.286   8.565  0.00  0.00    -0.772 OA
HETATM   10  H   UNK N   1      35.973  19.150   9.192  0.00  0.00     0.167 HD
ENDBRANCH   7   9
ENDBRANCH   1   7
TORSDOF 3
ENDMDL
MODEL 3
REMARK VINA RESULT:      -4.0     14.980     15.774
REMARK  3 active torsions:
REMARK  status: ('A' for Active; 'I' for Inactive)
REMARK    1  A    between atoms: N_2  and  C_3 
REMARK    2  A    between atoms: C_3  and  C_6 
REMARK    3  A    between atoms: C_6  and  O_7 
ROOT
HETATM    1  C   UNK N   1      20.444  19.048   1.992  0.00  0.00     0.098 C 
HETATM    2  C   UNK N   1      20.954  18.852   3.217  0.00  0.00     0.005 C 
HETATM    3  C   UNK N   1      20.645  17.646   4.042  0.00  0.00     0.038 C 
ENDROOT
BRANCH   1   4
HETATM    4  N   UNK N   1      19.563  18.072   1.430  0.00  0.00    -0.389 N 
HETATM    5  C   UNK N   1      19.988  17.039   0.520  0.00  0.00     0.146 C 
HETATM    6  H   UNK N   1      18.611  18.109   1.678  0.00  0.00     0.159 HD
ENDBRANCH   1   4
BRANCH   1   7
HETATM    7  C   UNK N   1      20.833  20.287   1.261  0.00  0.00     0.192 C 
HETATM    8  O   UNK N   1      21.360  21.221   1.839  0.00  0.00    -0.645 OA
BRANCH   7   9
HETATM    9  O   UNK N   1      20.592  20.385  -0.063  0.00  0.00    -0.772 OA
HETATM   10  H   UNK N   1      21.057  19.840  -0.666  0.00  0.00     0.167 HD
ENDBRANCH   7   9
ENDBRANCH   1   7
TORSDOF 3
ENDMDL
MODEL 4
REMARK VINA RESULT:      -3.8      6.156      7.106
REMARK  3 active torsions:
REMARK  status: ('A' for Active; 'I' for Inactive)
REMARK    1  A    between atoms: N_2  and  C_3 
REMARK    2  A    between atoms: C_3  and  C_6 
REMARK    3  A    between atoms: C_6  and  O_7 
ROOT
HETATM    1  C   UNK N   1      36.101  13.729  14.795  0.00  0.00     0.098 C 
HETATM    2  C   UNK N   1      35.149  13.103  15.502  0.00  0.00     0.005 C 
HETATM    3  C   UNK N   1      35.216  12.934  16.985  0.00  0.00     0.038 C 
ENDROOT
BRANCH   1   4
HETATM    4  N   UNK N   1      37.242  14.267  15.470  0.00  0.00    -0.389 N 
HETATM    5  C   UNK N   1      37.388  15.659  15.812  0.00  0.00     0.146 C 
HETATM    6  H   UNK N   1      37.970  13.651  15.715  0.00  0.00     0.159 HD
ENDBRANCH   1   4
BRANCH   1   7
HETATM    7  C   UNK N   1      35.919  13.844  13.321  0.00  0.00     0.192 C 
HETATM    8  O   UNK N   1      34.810  13.819  12.819  0.00  0.00    -0.645 OA
BRANCH   7   9
HETATM    9  O   UNK N   1      36.999  13.969  12.523  0.00  0.00    -0.772 OA
HETATM   10  H   UNK N   1      37.823  13.608  12.787  0.00  0.00     0.167 HD
ENDBRANCH   7   9
ENDBRANCH   1   7
TORSDOF 3
ENDMDL
MODEL 5
REMARK VINA RESULT:      -3.7      2.308      2.909
REMARK  3 active torsions:
REMARK  status: ('A' for Active; 'I' for Inactive)
REMARK    1  A    between atoms: N_2  and  C_3 
REMARK    2  A    between atoms: C_3  and  C_6 
REMARK    3  A    between atoms: C_6  and  O_7 
ROOT
HETATM    1  C   UNK N   1      33.445  17.874   7.783  0.00  0.00     0.098 C 
HETATM    2  C   UNK N   1      32.247  17.782   8.376  0.00  0.00     0.005 C 
HETATM    3  C   UNK N   1      30.998  17.431   7.636  0.00  0.00     0.038 C 
ENDROOT
BRANCH   1   4
HETATM    4  N   UNK N   1      33.557  17.629   6.378  0.00  0.00    -0.389 N 
HETATM    5  C   UNK N   1      34.134  16.434   5.817  0.00  0.00     0.146 C 
HETATM    6  H   UNK N   1      33.222  18.317   5.759  0.00  0.00     0.159 HD
ENDBRANCH   1   4
BRANCH   1   7
HETATM    7  C   UNK N   1      34.621  18.224   8.627  0.00  0.00     0.192 C 
HETATM    8  O   UNK N   1      35.280  19.224   8.408  0.00  0.00    -0.645 OA
BRANCH   7   9
HETATM    9  O   UNK N   1      34.973  17.417   9.650  0.00  0.00    -0.772 OA
HETATM   10  H   UNK N   1      35.397  17.774  10.405  0.00  0.00     0.167 HD
ENDBRANCH   7   9
ENDBRANCH   1   7
TORSDOF 3
ENDMDL
MODEL 6
REMARK VINA RESULT:      -3.7     11.992     13.212
REMARK  3 active torsions:
REMARK  status: ('A' for Active; 'I' for Inactive)
REMARK    1  A    between atoms: N_2  and  C_3 
REMARK    2  A    between atoms: C_3  and  C_6 
REMARK    3  A    between atoms: C_6  and  O_7 
ROOT
HETATM    1  C   UNK N   1      22.264  12.724  10.572  0.00  0.00     0.098 C 
HETATM    2  C   UNK N   1      22.089  12.085  11.737  0.00  0.00     0.005 C 
HETATM    3  C   UNK N   1      23.197  11.853  12.712  0.00  0.00     0.038 C 
ENDROOT
BRANCH   1   4
HETATM    4  N   UNK N   1      23.563  13.214  10.224  0.00  0.00    -0.389 N 
HETATM    5  C   UNK N   1      24.461  12.533   9.326  0.00  0.00     0.146 C 
HETATM    6  H   UNK N   1      23.860  14.063  10.622  0.00  0.00     0.159 HD
ENDBRANCH   1   4
BRANCH   1   7
HETATM    7  C   UNK N   1      21.081  12.904   9.686  0.00  0.00     0.192 C 
HETATM    8  O   UNK N   1      21.096  12.525   8.528  0.00  0.00    -0.645 OA
BRANCH   7   9
HETATM    9  O   UNK N   1      19.972  13.505  10.166  0.00  0.00    -0.772 OA
HETATM   10  H   UNK N   1      19.944  14.437  10.254  0.00  0.00     0.167 HD
ENDBRANCH   7   9
ENDBRANCH   1   7
TORSDOF 3
ENDMDL
MODEL 7
REMARK VINA RESULT:      -3.6      3.372      4.494
REMARK  3 active torsions:
REMARK  status: ('A' for Active; 'I' for Inactive)
REMARK    1  A    between atoms: N_2  and  C_3 
REMARK    2  A    between atoms: C_3  and  C_6 
REMARK    3  A    between atoms: C_6  and  O_7 
ROOT
HETATM    1  C   UNK N   1      35.466  14.778  11.964  0.00  0.00     0.098 C 
HETATM    2  C   UNK N   1      36.004  14.528  13.167  0.00  0.00     0.005 C 
HETATM    3  C   UNK N   1      35.607  13.360  14.009  0.00  0.00     0.038 C 
ENDROOT
BRANCH   1   4
HETATM    4  N   UNK N   1      34.465  13.899  11.444  0.00  0.00    -0.389 N 
HETATM    5  C   UNK N   1      34.545  13.271  10.149  0.00  0.00     0.146 C 
HETATM    6  H   UNK N   1      33.675  13.713  12.001  0.00  0.00     0.159 HD
ENDBRANCH   1   4
BRANCH   1   7
HETATM    7  C   UNK N   1      35.950  15.970  11.213  0.00  0.00     0.192 C 
HETATM    8  O   UNK N   1      35.218  16.920  10.999  0.00  0.00    -0.645 OA
BRANCH   7   9
HETATM    9  O   UNK N   1      37.218  15.999  10.752  0.00  0.00    -0.772 OA
HETATM   10  H   UNK N   1      37.385  16.207   9.853  0.00  0.00     0.167 HD
ENDBRANCH   7   9
ENDBRANCH   1   7
TORSDOF 3
ENDMDL
MODEL 8
REMARK VINA RESULT:      -3.5     16.894     17.894
REMARK  3 active torsions:
REMARK  status: ('A' for Active; 'I' for Inactive)
REMARK    1  A    between atoms: N_2  and  C_3 
REMARK    2  A    between atoms: C_3  and  C_6 
REMARK    3  A    between atoms: C_6  and  O_7 
ROOT
HETATM    1  C   UNK N   1      26.036  25.227  -4.686  0.00  0.00     0.098 C 
HETATM    2  C   UNK N   1      25.778  26.541  -4.763  0.00  0.00     0.005 C 
HETATM    3  C   UNK N   1      24.752  27.116  -5.683  0.00  0.00     0.038 C 
ENDROOT
BRANCH   1   4
HETATM    4  N   UNK N   1      25.307  24.316  -5.514  0.00  0.00    -0.389 N 
HETATM    5  C   UNK N   1      25.917  23.236  -6.247  0.00  0.00     0.146 C 
HETATM    6  H   UNK N   1      24.332  24.435  -5.588  0.00  0.00     0.159 HD
ENDBRANCH   1   4
BRANCH   1   7
HETATM    7  C   UNK N   1      27.076  24.772  -3.723  0.00  0.00     0.192 C 
HETATM    8  O   UNK N   1      28.236  25.128  -3.833  0.00  0.00    -0.645 OA
BRANCH   7   9
HETATM    9  O   UNK N   1      26.736  23.943  -2.714  0.00  0.00    -0.772 OA
HETATM   10  H   UNK N   1      26.109  23.262  -2.858  0.00  0.00     0.167 HD
ENDBRANCH   7   9
ENDBRANCH   1   7
TORSDOF 3
ENDMDL
MODEL 9
REMARK VINA RESULT:      -3.5      5.307      6.194
REMARK  3 active torsions:
REMARK  status: ('A' for Active; 'I' for Inactive)
REMARK    1  A    between atoms: N_2  and  C_3 
REMARK    2  A    between atoms: C_3  and  C_6 
REMARK    3  A    between atoms: C_6  and  O_7 
ROOT
HETATM    1  C   UNK N   1      29.453  17.645   8.302  0.00  0.00     0.098 C 
HETATM    2  C   UNK N   1      30.557  18.035   8.956  0.00  0.00     0.005 C 
HETATM    3  C   UNK N   1      31.932  17.886   8.391  0.00  0.00     0.038 C 
ENDROOT
BRANCH   1   4
HETATM    4  N   UNK N   1      29.573  17.058   7.003  0.00  0.00    -0.389 N 
HETATM    5  C   UNK N   1      28.939  17.588   5.823  0.00  0.00     0.146 C 
HETATM    6  H   UNK N   1      30.119  16.245   6.911  0.00  0.00     0.159 HD
ENDBRANCH   1   4
BRANCH   1   7
HETATM    7  C   UNK N   1      28.135  17.854   8.965  0.00  0.00     0.192 C 
HETATM    8  O   UNK N   1      27.636  16.988   9.662  0.00  0.00    -0.645 OA
BRANCH   7   9
HETATM    9  O   UNK N   1      27.474  19.016   8.786  0.00  0.00    -0.772 OA
HETATM   10  H   UNK N   1      27.044  19.191   7.972  0.00  0.00     0.167 HD
ENDBRANCH   7   9
ENDBRANCH   1   7
TORSDOF 3
ENDMDL
