MODEL 1
REMARK VINA RESULT:      -5.2      0.000      0.000
REMARK  4 active torsions:
REMARK  status: ('A' for Active; 'I' for Inactive)
REMARK    1  A    between atoms: O_1  and  C_2 
REMARK    2  A    between atoms: C_2  and  C_4 
REMARK    3  A    between atoms: C_8  and  C_11 
REMARK    4  A    between atoms: C_11  and  O_12 
ROOT
HETATM    1  C   UNK N   1      30.163  17.965   8.454  0.00  0.00     0.107 A 
HETATM    2  C   UNK N   1      29.787  17.420   7.219  0.00  0.00     0.037 A 
HETATM    3  C   UNK N   1      30.777  17.005   6.325  0.00  0.00     0.005 A 
HETATM    4  C   UNK N   1      32.124  17.136   6.669  0.00  0.00     0.037 A 
HETATM    5  C   UNK N   1      32.463  17.686   7.913  0.00  0.00     0.107 A 
HETATM    6  N   UNK N   1      31.480  18.081   8.764  0.00  0.00    -0.345 N 
ATOM      7  HN  UNK N   1      31.740  18.479   9.666  1.00  0.00     0.166 HD
ENDROOT
BRANCH   1   8
HETATM    8  C   UNK N   1      29.153  18.414   9.423  0.00  0.00     0.193 C 
HETATM    9  O   UNK N   1      29.502  18.793  10.531  0.00  0.00    -0.645 OA
BRANCH   8  10
HETATM   10  O   UNK N   1      27.846  18.412   9.103  0.00  0.00    -0.772 OA
HETATM   11  H   UNK N   1      27.540  17.886   8.390  0.00  0.00     0.167 HD
ENDBRANCH   8  10
ENDBRANCH   1   8
BRANCH   5  12
HETATM   12  C   UNK N   1      33.868  17.841   8.315  0.00  0.00     0.193 C 
HETATM   13  O   UNK N   1      34.675  18.320   7.530  0.00  0.00    -0.645 OA
BRANCH  12  14
HETATM   14  O   UNK N   1      34.277  17.463   9.540  0.00  0.00    -0.772 OA
HETATM   15  H   UNK N   1      35.043  16.932   9.634  0.00  0.00     0.167 HD
ENDBRANCH  12  14
ENDBRANCH   5  12
TORSDOF 4
ENDMDL
MODEL 2
REMARK VINA RESULT:      -5.2      0.019      4.353
REMARK  4 active torsions:
REMARK  status: ('A' for Active; 'I' for Inactive)
REMARK    1  A    between atoms: O_1  and  C_2 
REMARK    2  A    between atoms: C_2  and  C_4 
REMARK    3  A    between atoms: C_8  and  C_11 
REMARK    4  A    between atoms: C_11  and  O_12 
ROOT
HETATM    1  C   UNK N   1      32.462  17.688   7.906  0.00  0.00     0.107 A 
HETATM    2  C   UNK N   1      32.119  17.149   6.658  0.00  0.00     0.037 A 
HETATM    3  C   UNK N   1      30.771  17.023   6.315  0.00  0.00     0.005 A 
HETATM    4  C   UNK N   1      29.784  17.433   7.214  0.00  0.00     0.037 A 
HETATM    5  C   UNK N   1      30.164  17.967   8.453  0.00  0.00     0.107 A 
HETATM    6  N   UNK N   1      31.482  18.078   8.761  0.00  0.00    -0.345 N 
ATOM      7  HN  UNK N   1      31.746  18.469   9.666  1.00  0.00     0.166 HD
ENDROOT
BRANCH   1   8
HETATM    8  C   UNK N   1      33.869  17.837   8.306  0.00  0.00     0.193 C 
HETATM    9  O   UNK N   1      34.678  18.302   7.517  0.00  0.00    -0.645 OA
BRANCH   8  10
HETATM   10  O   UNK N   1      34.276  17.467   9.534  0.00  0.00    -0.772 OA
HETATM   11  H   UNK N   1      35.067  16.974   9.635  0.00  0.00     0.167 HD
ENDBRANCH   8  10
ENDBRANCH   1   8
BRANCH   5  12
HETATM   12  C   UNK N   1      29.157  18.411   9.428  0.00  0.00     0.193 C 
HETATM   13  O   UNK N   1      29.512  18.817  10.525  0.00  0.00    -0.645 OA
BRANCH  12  14
HETATM   14  O   UNK N   1      27.846  18.375   9.124  0.00  0.00    -0.772 OA
HETATM   15  H   UNK N   1      27.539  18.764   8.329  0.00  0.00     0.167 HD
ENDBRANCH  12  14
ENDBRANCH   5  12
TORSDOF 4
ENDMDL
MODEL 3
REMARK VINA RESULT:      -5.2     12.347     13.469
REMARK  4 active torsions:
REMARK  status: ('A' for Active; 'I' for Inactive)
REMARK    1  A    between atoms: O_1  and  C_2 
REMARK    2  A    between atoms: C_2  and  C_4 
REMARK    3  A    between atoms: C_8  and  C_11 
REMARK    4  A    between atoms: C_11  and  O_12 
ROOT
HETATM    1  C   UNK N   1      19.937  17.132   1.432  0.00  0.00     0.107 A 
HETATM    2  C   UNK N   1      20.273  16.799   2.752  0.00  0.00     0.037 A 
HETATM    3  C   UNK N   1      20.841  17.771   3.578  0.00  0.00     0.005 A 
HETATM    4  C   UNK N   1      21.067  19.058   3.085  0.00  0.00     0.037 A 
HETATM    5  C   UNK N   1      20.718  19.355   1.760  0.00  0.00     0.107 A 
HETATM    6  N   UNK N   1      20.167  18.391   0.977  0.00  0.00    -0.345 N 
ATOM      7  HN  UNK N   1      19.918  18.619   0.015  1.00  0.00     0.166 HD
ENDROOT
BRANCH   1   8
HETATM    8  C   UNK N   1      19.338  16.138   0.529  0.00  0.00     0.193 C 
HETATM    9  O   UNK N   1      19.796  15.007   0.483  0.00  0.00    -0.645 OA
BRANCH   8  10
HETATM   10  O   UNK N   1      18.289  16.463  -0.249  0.00  0.00    -0.772 OA
HETATM   11  H   UNK N   1      18.381  17.124  -0.907  0.00  0.00     0.167 HD
ENDBRANCH   8  10
ENDBRANCH   1   8
BRANCH   5  12
HETATM   12  C   UNK N   1      20.939  20.696   1.201  0.00  0.00     0.193 C 
HETATM   13  O   UNK N   1      21.062  20.838  -0.007  0.00  0.00    -0.645 OA
BRANCH  12  14
HETATM   14  O   UNK N   1      21.006  21.772   2.007  0.00  0.00    -0.772 OA
HETATM   15  H   UNK N   1      20.247  22.051   2.480  0.00  0.00     0.167 HD
ENDBRANCH  12  14
ENDBRANCH   5  12
TORSDOF 4
ENDMDL
MODEL 4
REMARK VINA RESULT:      -5.2     12.329     13.612
REMARK  4 active torsions:
REMARK  status: ('A' for Active; 'I' for Inactive)
REMARK    1  A    between atoms: O_1  and  C_2 
REMARK    2  A    between atoms: C_2  and  C_4 
REMARK    3  A    between atoms: C_8  and  C_11 
REMARK    4  A    between atoms: C_11  and  O_12 
ROOT
HETATM    1  C   UNK N   1      20.734  19.337   1.759  0.00  0.00     0.107 A 
HETATM    2  C   UNK N   1      21.104  19.031   3.076  0.00  0.00     0.037 A 
HETATM    3  C   UNK N   1      20.887  17.741   3.565  0.00  0.00     0.005 A 
HETATM    4  C   UNK N   1      20.307  16.773   2.741  0.00  0.00     0.037 A 
HETATM    5  C   UNK N   1      19.951  17.115   1.430  0.00  0.00     0.107 A 
HETATM    6  N   UNK N   1      20.173  18.377   0.979  0.00  0.00    -0.345 N 
ATOM      7  HN  UNK N   1      19.908  18.612   0.023  1.00  0.00     0.166 HD
ENDROOT
BRANCH   1   8
HETATM    8  C   UNK N   1      20.945  20.682   1.206  0.00  0.00     0.193 C 
HETATM    9  O   UNK N   1      21.081  20.827   0.000  0.00  0.00    -0.645 OA
BRANCH   8  10
HETATM   10  O   UNK N   1      20.989  21.757   2.014  0.00  0.00    -0.772 OA
HETATM   11  H   UNK N   1      20.345  21.863   2.686  0.00  0.00     0.167 HD
ENDBRANCH   8  10
ENDBRANCH   1   8
BRANCH   5  12
HETATM   12  C   UNK N   1      19.339  16.127   0.530  0.00  0.00     0.193 C 
HETATM   13  O   UNK N   1      19.782  14.988   0.486  0.00  0.00    -0.645 OA
BRANCH  12  14
HETATM   14  O   UNK N   1      18.293  16.463  -0.248  0.00  0.00    -0.772 OA
HETATM   15  H   UNK N   1      17.520  15.932  -0.249  0.00  0.00     0.167 HD
ENDBRANCH  12  14
ENDBRANCH   5  12
TORSDOF 4
ENDMDL
MODEL 5
REMARK VINA RESULT:      -5.1     10.125     11.694
REMARK  4 active torsions:
REMARK  status: ('A' for Active; 'I' for Inactive)
REMARK    1  A    between atoms: O_1  and  C_2 
REMARK    2  A    between atoms: C_2  and  C_4 
REMARK    3  A    between atoms: C_8  and  C_11 
REMARK    4  A    between atoms: C_11  and  O_12 
ROOT
HETATM    1  C   UNK N   1      21.009  19.359   2.733  0.00  0.00     0.107 A 
HETATM    2  C   UNK N   1      20.343  18.298   2.104  0.00  0.00     0.037 A 
HETATM    3  C   UNK N   1      20.055  17.143   2.835  0.00  0.00     0.005 A 
HETATM    4  C   UNK N   1      20.431  17.058   4.178  0.00  0.00     0.037 A 
HETATM    5  C   UNK N   1      21.095  18.139   4.773  0.00  0.00     0.107 A 
HETATM    6  N   UNK N   1      21.363  19.250   4.039  0.00  0.00    -0.345 N 
ATOM      7  HN  UNK N   1      21.847  20.030   4.485  1.00  0.00     0.166 HD
ENDROOT
BRANCH   1   8
HETATM    8  C   UNK N   1      21.331  20.592   2.000  0.00  0.00     0.193 C 
HETATM    9  O   UNK N   1      21.365  20.580   0.779  0.00  0.00    -0.645 OA
BRANCH   8  10
HETATM   10  O   UNK N   1      21.589  21.736   2.661  0.00  0.00    -0.772 OA
HETATM   11  H   UNK N   1      21.593  22.552   2.200  0.00  0.00     0.167 HD
ENDBRANCH   8  10
ENDBRANCH   1   8
BRANCH   5  12
HETATM   12  C   UNK N   1      21.508  18.091   6.183  0.00  0.00     0.193 C 
HETATM   13  O   UNK N   1      20.977  18.832   6.997  0.00  0.00    -0.645 OA
BRANCH  12  14
HETATM   14  O   UNK N   1      22.466  17.237   6.588  0.00  0.00    -0.772 OA
HETATM   15  H   UNK N   1      22.251  16.529   7.164  0.00  0.00     0.167 HD
ENDBRANCH  12  14
ENDBRANCH   5  12
TORSDOF 4
ENDMDL
MODEL 6
REMARK VINA RESULT:      -5.1     10.138     11.611
REMARK  4 active torsions:
REMARK  status: ('A' for Active; 'I' for Inactive)
REMARK    1  A    between atoms: O_1  and  C_2 
REMARK    2  A    between atoms: C_2  and  C_4 
REMARK    3  A    between atoms: C_8  and  C_11 
REMARK    4  A    between atoms: C_11  and  O_12 
ROOT
HETATM    1  C   UNK N   1      21.093  18.129   4.774  0.00  0.00     0.107 A 
HETATM    2  C   UNK N   1      20.451  17.038   4.173  0.00  0.00     0.037 A 
HETATM    3  C   UNK N   1      20.088  17.114   2.826  0.00  0.00     0.005 A 
HETATM    4  C   UNK N   1      20.367  18.272   2.096  0.00  0.00     0.037 A 
HETATM    5  C   UNK N   1      21.010  19.344   2.730  0.00  0.00     0.107 A 
HETATM    6  N   UNK N   1      21.352  19.243   4.041  0.00  0.00    -0.345 N 
ATOM      7  HN  UNK N   1      21.819  20.030   4.490  1.00  0.00     0.166 HD
ENDROOT
BRANCH   1   8
HETATM    8  C   UNK N   1      21.491  18.090   6.188  0.00  0.00     0.193 C 
HETATM    9  O   UNK N   1      20.950  18.833   6.992  0.00  0.00    -0.645 OA
BRANCH   8  10
HETATM   10  O   UNK N   1      22.448  17.241   6.608  0.00  0.00    -0.772 OA
HETATM   11  H   UNK N   1      22.581  17.103   7.525  0.00  0.00     0.167 HD
ENDBRANCH   8  10
ENDBRANCH   1   8
BRANCH   5  12
HETATM   12  C   UNK N   1      21.321  20.580   1.998  0.00  0.00     0.193 C 
HETATM   13  O   UNK N   1      21.346  20.572   0.776  0.00  0.00    -0.645 OA
BRANCH  12  14
HETATM   14  O   UNK N   1      21.580  21.723   2.661  0.00  0.00    -0.772 OA
HETATM   15  H   UNK N   1      22.308  21.769   3.249  0.00  0.00     0.167 HD
ENDBRANCH  12  14
ENDBRANCH   5  12
TORSDOF 4
ENDMDL
MODEL 7
REMARK VINA RESULT:      -5.1     10.101     11.257
REMARK  4 active torsions:
REMARK  status: ('A' for Active; 'I' for Inactive)
REMARK    1  A    between atoms: O_1  and  C_2 
REMARK    2  A    between atoms: C_2  and  C_4 
REMARK    3  A    between atoms: C_8  and  C_11 
REMARK    4  A    between atoms: C_11  and  O_12 
ROOT
HETATM    1  C   UNK N   1      23.009  12.292  10.453  0.00  0.00     0.107 A 
HETATM    2  C   UNK N   1      23.279  11.538   9.302  0.00  0.00     0.037 A 
HETATM    3  C   UNK N   1      22.569  11.804   8.129  0.00  0.00     0.005 A 
HETATM    4  C   UNK N   1      21.603  12.813   8.114  0.00  0.00     0.037 A 
HETATM    5  C   UNK N   1      21.360  13.546   9.284  0.00  0.00     0.107 A 
HETATM    6  N   UNK N   1      22.064  13.266  10.411  0.00  0.00    -0.345 N 
ATOM      7  HN  UNK N   1      21.878  13.807  11.255  1.00  0.00     0.166 HD
ENDROOT
BRANCH   1   8
HETATM    8  C   UNK N   1      23.733  12.044  11.708  0.00  0.00     0.193 C 
HETATM    9  O   UNK N   1      23.114  11.729  12.713  0.00  0.00    -0.645 OA
BRANCH   8  10
HETATM   10  O   UNK N   1      25.073  12.160  11.761  0.00  0.00    -0.772 OA
HETATM   11  H   UNK N   1      25.606  11.726  11.124  0.00  0.00     0.167 HD
ENDBRANCH   8  10
ENDBRANCH   1   8
BRANCH   5  12
HETATM   12  C   UNK N   1      20.352  14.615   9.311  0.00  0.00     0.193 C 
HETATM   13  O   UNK N   1      19.219  14.372   9.701  0.00  0.00    -0.645 OA
BRANCH  12  14
HETATM   14  O   UNK N   1      20.664  15.862   8.912  0.00  0.00    -0.772 OA
HETATM   15  H   UNK N   1      21.234  15.991   8.180  0.00  0.00     0.167 HD
ENDBRANCH  12  14
ENDBRANCH   5  12
TORSDOF 4
ENDMDL
MODEL 8
REMARK VINA RESULT:      -5.0      4.105      5.318
REMARK  4 active torsions:
REMARK  status: ('A' for Active; 'I' for Inactive)
REMARK    1  A    between atoms: O_1  and  C_2 
REMARK    2  A    between atoms: C_2  and  C_4 
REMARK    3  A    between atoms: C_8  and  C_11 
REMARK    4  A    between atoms: C_11  and  O_12 
ROOT
HETATM    1  C   UNK N   1      34.543  17.023   8.977  0.00  0.00     0.107 A 
HETATM    2  C   UNK N   1      35.166  16.908  10.228  0.00  0.00     0.037 A 
HETATM    3  C   UNK N   1      34.956  15.759  10.993  0.00  0.00     0.005 A 
HETATM    4  C   UNK N   1      34.131  14.741  10.507  0.00  0.00     0.037 A 
HETATM    5  C   UNK N   1      33.525  14.891   9.253  0.00  0.00     0.107 A 
HETATM    6  N   UNK N   1      33.746  16.019   8.529  0.00  0.00    -0.345 N 
ATOM      7  HN  UNK N   1      33.299  16.115   7.618  1.00  0.00     0.166 HD
ENDROOT
BRANCH   1   8
HETATM    8  C   UNK N   1      34.737  18.216   8.141  0.00  0.00     0.193 C 
HETATM    9  O   UNK N   1      34.348  18.215   6.982  0.00  0.00    -0.645 OA
BRANCH   8  10
HETATM   10  O   UNK N   1      35.341  19.312   8.637  0.00  0.00    -0.772 OA
HETATM   11  H   UNK N   1      36.272  19.398   8.582  0.00  0.00     0.167 HD
ENDBRANCH   8  10
ENDBRANCH   1   8
BRANCH   5  12
HETATM   12  C   UNK N   1      32.651  13.844   8.704  0.00  0.00     0.193 C 
HETATM   13  O   UNK N   1      32.129  14.000   7.609  0.00  0.00    -0.645 OA
BRANCH  12  14
HETATM   14  O   UNK N   1      32.418  12.713   9.396  0.00  0.00    -0.772 OA
HETATM   15  H   UNK N   1      32.339  11.896   8.945  0.00  0.00     0.167 HD
ENDBRANCH  12  14
ENDBRANCH   5  12
TORSDOF 4
ENDMDL
MODEL 9
REMARK VINA RESULT:      -4.9     15.319     16.274
REMARK  4 active torsions:
REMARK  status: ('A' for Active; 'I' for Inactive)
REMARK    1  A    between atoms: O_1  and  C_2 
REMARK    2  A    between atoms: C_2  and  C_4 
REMARK    3  A    between atoms: C_8  and  C_11 
REMARK    4  A    between atoms: C_11  and  O_12 
ROOT
HETATM    1  C   UNK N   1      26.538  25.487  -4.161  0.00  0.00     0.107 A 
HETATM    2  C   UNK N   1      25.621  25.408  -5.218  0.00  0.00     0.037 A 
HETATM    3  C   UNK N   1      24.971  26.567  -5.647  0.00  0.00     0.005 A 
HETATM    4  C   UNK N   1      25.239  27.787  -5.022  0.00  0.00     0.037 A 
HETATM    5  C   UNK N   1      26.162  27.828  -3.968  0.00  0.00     0.107 A 
HETATM    6  N   UNK N   1      26.780  26.686  -3.570  0.00  0.00    -0.345 N 
ATOM      7  HN  UNK N   1      27.450  26.729  -2.802  1.00  0.00     0.166 HD
ENDROOT
BRANCH   1   8
HETATM    8  C   UNK N   1      27.243  24.291  -3.679  0.00  0.00     0.193 C 
HETATM    9  O   UNK N   1      28.065  23.741  -4.397  0.00  0.00    -0.645 OA
BRANCH   8  10
HETATM   10  O   UNK N   1      26.994  23.795  -2.453  0.00  0.00    -0.772 OA
HETATM   11  H   UNK N   1      26.260  23.227  -2.318  0.00  0.00     0.167 HD
ENDBRANCH   8  10
ENDBRANCH   1   8
BRANCH   5  12
HETATM   12  C   UNK N   1      26.474  29.091  -3.283  0.00  0.00     0.193 C 
HETATM   13  O   UNK N   1      27.198  29.084  -2.297  0.00  0.00    -0.645 OA
BRANCH  12  14
HETATM   14  O   UNK N   1      25.969  30.256  -3.729  0.00  0.00    -0.772 OA
HETATM   15  H   UNK N   1      26.293  30.634  -4.522  0.00  0.00     0.167 HD
ENDBRANCH  12  14
ENDBRANCH   5  12
TORSDOF 4
ENDMDL
