REMARK  3 active torsions:
REMARK  status: ('A' for Active; 'I' for Inactive)
REMARK    1  A    between atoms: C_2  and  N_1 
REMARK    2  A    between atoms: C_2  and  C_5 
REMARK    3  A    between atoms: C_5  and  O_6 
ROOT
HETATM    1  C   UNK N   1       1.415   0.901  -0.000  0.00  0.00     0.253 C 
HETATM    2  C   UNK N   1       0.756   2.211  -0.000  0.00  0.00    -0.081 C 
HETATM    3  C   UNK N   1       0.184   3.271   0.000  0.00  0.00     0.015 C 
ENDROOT
BRANCH   1   4
HETATM    4  N   UNK N   1       2.867   0.852   0.000  0.00  0.00    -0.408 N 
HETATM    5  H   UNK N   1       3.347  -0.048   0.000  0.00  0.00     0.151 HD
HETATM    6  H   UNK N   1       3.407   1.718   0.000  0.00  0.00     0.151 HD
ENDBRANCH   1   4
BRANCH   1   7
HETATM    7  C   UNK N   1       0.641  -0.377   0.000  0.00  0.00     0.175 C 
HETATM    8  O   UNK N   1      -0.577  -0.355   0.000  0.00  0.00    -0.648 OA
BRANCH   7   9
HETATM    9  O   UNK N   1       1.289  -1.558   0.000  0.00  0.00    -0.774 OA
HETATM   10  H   UNK N   1       0.803  -2.359   0.000  0.00  0.00     0.167 HD
ENDBRANCH   7   9
ENDBRANCH   1   7
TORSDOF 3
