REMARK  9 active torsions:
REMARK  status: ('A' for Active; 'I' for Inactive)
REMARK    1  A    between atoms: N_1  and  C_2 
REMARK    2  A    between atoms: C_2  and  C_3 
REMARK    3  A    between atoms: C_3  and  C_4 
REMARK    4  A    between atoms: C_4  and  C_5 
REMARK    5  A    between atoms: C_5  and  C_6 
REMARK    6  A    between atoms: C_6  and  C_7 
REMARK    7  A    between atoms: C_7  and  C_8 
REMARK    8  A    between atoms: C_8  and  C_9 
REMARK    9  A    between atoms: C_9  and  N_10 
ROOT
HETATM    1  C   UNK N   1       4.890   1.905  -0.000  0.00  0.00     0.000 C 
ENDROOT
BRANCH   1   2
HETATM    2  C   UNK N   1       3.649   2.766   0.000  0.00  0.00     0.002 C 
BRANCH   2   3
HETATM    3  C   UNK N   1       2.437   1.866   0.000  0.00  0.00     0.019 C 
BRANCH   3   4
HETATM    4  C   UNK N   1       1.183   2.709  -0.000  0.00  0.00     0.111 C 
BRANCH   4   5
HETATM    5  N   UNK N   1       0.024   1.839  -0.000  0.00  0.00    -0.430 N 
HETATM    6  H   UNK N   1      -0.914   2.239   0.000  0.00  0.00     0.149 HD
HETATM    7  H   UNK N   1       0.147   0.826  -0.000  0.00  0.00     0.149 HD
ENDBRANCH   4   5
ENDBRANCH   3   4
ENDBRANCH   2   3
ENDBRANCH   1   2
BRANCH   1   8
HETATM    8  C   UNK N   1       6.108   2.794  -0.000  0.00  0.00     0.000 C 
BRANCH   8   9
HETATM    9  C   UNK N   1       7.348   1.934   0.000  0.00  0.00     0.002 C 
BRANCH   9  10
HETATM   10  C   UNK N   1       8.560   2.833   0.000  0.00  0.00     0.019 C 
BRANCH  10  11
HETATM   11  C   UNK N   1       9.814   1.990  -0.000  0.00  0.00     0.111 C 
BRANCH  11  12
HETATM   12  N   UNK N   1      10.973   2.860  -0.000  0.00  0.00    -0.430 N 
HETATM   13  H   UNK N   1      11.911   2.460   0.000  0.00  0.00     0.149 HD
HETATM   14  H   UNK N   1      10.850   3.873  -0.000  0.00  0.00     0.149 HD
ENDBRANCH  11  12
ENDBRANCH  10  11
ENDBRANCH   9  10
ENDBRANCH   8   9
ENDBRANCH   1   8
TORSDOF 9
