MODEL 1
REMARK VINA RESULT:      -5.6      0.000      0.000
REMARK  5 active torsions:
REMARK  status: ('A' for Active; 'I' for Inactive)
REMARK    1  A    between atoms: C_8  and  C_5 
REMARK    2  A    between atoms: C_9  and  C_5 
REMARK    3  A    between atoms: C_9  and  C_7 
REMARK    4  A    between atoms: O_14  and  C_7 
REMARK    5  A    between atoms: C_9  and  N_12 
ROOT
HETATM    1  C   UNK N   1      25.538  20.599   2.764  0.00  0.00     0.001 A 
HETATM    2  C   UNK N   1      26.394  19.752   3.503  0.00  0.00     0.002 A 
HETATM    3  C   UNK N   1      24.143  20.477   2.885  0.00  0.00     0.014 A 
HETATM    4  C   UNK N   1      25.860  18.777   4.367  0.00  0.00     0.030 A 
HETATM    5  C   UNK N   1      22.460  18.095   4.981  0.00  0.00     0.096 A 
HETATM    6  C   UNK N   1      22.358  19.148   4.076  0.00  0.00    -0.028 A 
HETATM    7  C   UNK N   1      23.644  19.510   3.758  0.00  0.00    -0.002 A 
HETATM    8  C   UNK N   1      24.474  18.690   4.467  0.00  0.00     0.042 A 
HETATM    9  N   UNK N   1      23.770  17.824   5.220  0.00  0.00    -0.365 N 
HETATM   10  H   UNK N   1      24.130  17.133   5.822  0.00  0.00     0.165 HD
ENDROOT
BRANCH   6  11
HETATM   11  C   UNK N   1      21.081  19.697   3.510  0.00  0.00     0.067 C 
BRANCH  11  12
HETATM   12  C   UNK N   1      20.801  19.368   2.042  0.00  0.00     0.101 C 
BRANCH  12  13
HETATM   13  C   UNK N   1      20.728  20.689   1.290  0.00  0.00     0.189 C 
BRANCH  13  14
HETATM   14  O   UNK N   1      20.615  20.473  -0.084  0.00  0.00    -0.399 OA
HETATM   15  H   UNK N   1      19.853  20.222  -0.629  0.00  0.00     0.209 HD
ENDBRANCH  13  14
ENDBRANCH  12  13
BRANCH  12  16
HETATM   16  N   UNK N   1      19.537  18.666   1.893  0.00  0.00    -0.424 N 
HETATM   17  H   UNK N   1      18.875  18.568   2.663  0.00  0.00     0.150 HD
HETATM   18  H   UNK N   1      19.304  18.258   0.988  0.00  0.00     0.150 HD
ENDBRANCH  12  16
ENDBRANCH  11  12
ENDBRANCH   6  11
TORSDOF 5
ENDMDL
MODEL 2
REMARK VINA RESULT:      -5.5      9.744     11.291
REMARK  5 active torsions:
REMARK  status: ('A' for Active; 'I' for Inactive)
REMARK    1  A    between atoms: C_8  and  C_5 
REMARK    2  A    between atoms: C_9  and  C_5 
REMARK    3  A    between atoms: C_9  and  C_7 
REMARK    4  A    between atoms: O_14  and  C_7 
REMARK    5  A    between atoms: C_9  and  N_12 
ROOT
HETATM    1  C   UNK N   1      25.975  28.025  -3.716  0.00  0.00     0.001 A 
HETATM    2  C   UNK N   1      25.075  28.069  -4.805  0.00  0.00     0.002 A 
HETATM    3  C   UNK N   1      26.640  26.829  -3.394  0.00  0.00     0.014 A 
HETATM    4  C   UNK N   1      24.835  26.917  -5.578  0.00  0.00     0.030 A 
HETATM    5  C   UNK N   1      26.243  23.719  -5.146  0.00  0.00     0.096 A 
HETATM    6  C   UNK N   1      26.865  24.422  -4.118  0.00  0.00    -0.028 A 
HETATM    7  C   UNK N   1      26.389  25.708  -4.185  0.00  0.00    -0.002 A 
HETATM    8  C   UNK N   1      25.516  25.753  -5.235  0.00  0.00     0.042 A 
HETATM    9  N   UNK N   1      25.418  24.551  -5.833  0.00  0.00    -0.365 N 
HETATM   10  H   UNK N   1      24.860  24.321  -6.611  0.00  0.00     0.165 HD
ENDROOT
BRANCH   6  11
HETATM   11  C   UNK N   1      27.798  23.839  -3.096  0.00  0.00     0.067 C 
BRANCH  11  12
HETATM   12  C   UNK N   1      29.245  23.630  -3.548  0.00  0.00     0.101 C 
BRANCH  12  13
HETATM   13  C   UNK N   1      29.845  22.553  -2.656  0.00  0.00     0.189 C 
BRANCH  13  14
HETATM   14  O   UNK N   1      30.290  23.097  -1.451  0.00  0.00    -0.399 OA
HETATM   15  H   UNK N   1      31.163  23.078  -1.028  0.00  0.00     0.209 HD
ENDBRANCH  13  14
ENDBRANCH  12  13
BRANCH  12  16
HETATM   16  N   UNK N   1      30.021  24.850  -3.406  0.00  0.00    -0.424 N 
HETATM   17  H   UNK N   1      29.928  25.633  -4.055  0.00  0.00     0.150 HD
HETATM   18  H   UNK N   1      30.682  24.927  -2.633  0.00  0.00     0.150 HD
ENDBRANCH  12  16
ENDBRANCH  11  12
ENDBRANCH   6  11
TORSDOF 5
ENDMDL
MODEL 3
REMARK VINA RESULT:      -5.4      7.501      9.096
REMARK  5 active torsions:
REMARK  status: ('A' for Active; 'I' for Inactive)
REMARK    1  A    between atoms: C_8  and  C_5 
REMARK    2  A    between atoms: C_9  and  C_5 
REMARK    3  A    between atoms: C_9  and  C_7 
REMARK    4  A    between atoms: O_14  and  C_7 
REMARK    5  A    between atoms: C_9  and  N_12 
ROOT
HETATM    1  C   UNK N   1      24.734  12.985   9.773  0.00  0.00     0.001 A 
HETATM    2  C   UNK N   1      24.788  12.142  10.907  0.00  0.00     0.002 A 
HETATM    3  C   UNK N   1      23.500  13.478   9.314  0.00  0.00     0.014 A 
HETATM    4  C   UNK N   1      23.608  11.789  11.587  0.00  0.00     0.030 A 
HETATM    5  C   UNK N   1      20.314  12.757  10.806  0.00  0.00     0.096 A 
HETATM    6  C   UNK N   1      21.026  13.422   9.812  0.00  0.00    -0.028 A 
HETATM    7  C   UNK N   1      22.350  13.118  10.016  0.00  0.00    -0.002 A 
HETATM    8  C   UNK N   1      22.405  12.301  11.109  0.00  0.00     0.042 A 
HETATM    9  N   UNK N   1      21.174  12.074  11.605  0.00  0.00    -0.365 N 
HETATM   10  H   UNK N   1      20.943  11.523  12.388  0.00  0.00     0.165 HD
ENDROOT
BRANCH   6  11
HETATM   11  C   UNK N   1      20.430  14.230   8.696  0.00  0.00     0.067 C 
BRANCH  11  12
HETATM   12  C   UNK N   1      20.684  15.738   8.749  0.00  0.00     0.101 C 
BRANCH  12  13
HETATM   13  C   UNK N   1      19.325  16.423   8.772  0.00  0.00     0.189 C 
BRANCH  13  14
HETATM   14  O   UNK N   1      18.381  15.632   9.429  0.00  0.00    -0.399 OA
HETATM   15  H   UNK N   1      17.668  15.073   9.083  0.00  0.00     0.209 HD
ENDBRANCH  13  14
ENDBRANCH  12  13
BRANCH  12  16
HETATM   16  N   UNK N   1      21.422  16.188   7.581  0.00  0.00    -0.424 N 
HETATM   17  H   UNK N   1      21.843  15.535   6.919  0.00  0.00     0.150 HD
HETATM   18  H   UNK N   1      21.523  17.190   7.418  0.00  0.00     0.150 HD
ENDBRANCH  12  16
ENDBRANCH  11  12
ENDBRANCH   6  11
TORSDOF 5
ENDMDL
MODEL 4
REMARK VINA RESULT:      -5.4     18.086     20.366
REMARK  5 active torsions:
REMARK  status: ('A' for Active; 'I' for Inactive)
REMARK    1  A    between atoms: C_8  and  C_5 
REMARK    2  A    between atoms: C_9  and  C_5 
REMARK    3  A    between atoms: C_9  and  C_7 
REMARK    4  A    between atoms: O_14  and  C_7 
REMARK    5  A    between atoms: C_9  and  N_12 
ROOT
HETATM    1  C   UNK N   1      35.147   9.486  18.321  0.00  0.00     0.001 A 
HETATM    2  C   UNK N   1      35.135   9.845  19.688  0.00  0.00     0.002 A 
HETATM    3  C   UNK N   1      35.205  10.479  17.328  0.00  0.00     0.014 A 
HETATM    4  C   UNK N   1      35.181  11.199  20.069  0.00  0.00     0.030 A 
HETATM    5  C   UNK N   1      35.316  14.013  17.957  0.00  0.00     0.096 A 
HETATM    6  C   UNK N   1      35.310  12.982  17.022  0.00  0.00    -0.028 A 
HETATM    7  C   UNK N   1      35.260  11.811  17.738  0.00  0.00    -0.002 A 
HETATM    8  C   UNK N   1      35.245  12.154  19.059  0.00  0.00     0.042 A 
HETATM    9  N   UNK N   1      35.282  13.492  19.211  0.00  0.00    -0.365 N 
HETATM   10  H   UNK N   1      35.283  13.992  20.059  0.00  0.00     0.165 HD
ENDROOT
BRANCH   6  11
HETATM   11  C   UNK N   1      35.274  13.150  15.530  0.00  0.00     0.067 C 
BRANCH  11  12
HETATM   12  C   UNK N   1      36.555  13.679  14.883  0.00  0.00     0.101 C 
BRANCH  12  13
HETATM   13  C   UNK N   1      36.162  14.302  13.550  0.00  0.00     0.189 C 
BRANCH  13  14
HETATM   14  O   UNK N   1      37.066  13.943  12.549  0.00  0.00    -0.399 OA
HETATM   15  H   UNK N   1      37.084  14.155  11.603  0.00  0.00     0.209 HD
ENDBRANCH  13  14
ENDBRANCH  12  13
BRANCH  12  16
HETATM   16  N   UNK N   1      37.504  12.606  14.643  0.00  0.00    -0.424 N 
HETATM   17  H   UNK N   1      37.208  11.668  14.370  0.00  0.00     0.150 HD
HETATM   18  H   UNK N   1      38.501  12.795  14.752  0.00  0.00     0.150 HD
ENDBRANCH  12  16
ENDBRANCH  11  12
ENDBRANCH   6  11
TORSDOF 5
ENDMDL
MODEL 5
REMARK VINA RESULT:      -5.3     11.202     12.649
REMARK  5 active torsions:
REMARK  status: ('A' for Active; 'I' for Inactive)
REMARK    1  A    between atoms: C_8  and  C_5 
REMARK    2  A    between atoms: C_9  and  C_5 
REMARK    3  A    between atoms: C_9  and  C_7 
REMARK    4  A    between atoms: O_14  and  C_7 
REMARK    5  A    between atoms: C_9  and  N_12 
ROOT
HETATM    1  C   UNK N   1      28.621  29.971  -6.457  0.00  0.00     0.001 A 
HETATM    2  C   UNK N   1      28.417  30.936  -5.444  0.00  0.00     0.002 A 
HETATM    3  C   UNK N   1      27.900  28.764  -6.442  0.00  0.00     0.014 A 
HETATM    4  C   UNK N   1      27.492  30.698  -4.411  0.00  0.00     0.030 A 
HETATM    5  C   UNK N   1      25.485  27.842  -3.949  0.00  0.00     0.096 A 
HETATM    6  C   UNK N   1      26.155  27.506  -5.121  0.00  0.00    -0.028 A 
HETATM    7  C   UNK N   1      26.983  28.563  -5.410  0.00  0.00    -0.002 A 
HETATM    8  C   UNK N   1      26.791  29.496  -4.431  0.00  0.00     0.042 A 
HETATM    9  N   UNK N   1      25.880  29.074  -3.535  0.00  0.00    -0.365 N 
HETATM   10  H   UNK N   1      25.563  29.560  -2.739  0.00  0.00     0.165 HD
ENDROOT
BRANCH   6  11
HETATM   11  C   UNK N   1      26.043  26.200  -5.853  0.00  0.00     0.067 C 
BRANCH  11  12
HETATM   12  C   UNK N   1      25.646  24.988  -5.007  0.00  0.00     0.101 C 
BRANCH  12  13
HETATM   13  C   UNK N   1      26.869  24.584  -4.197  0.00  0.00     0.189 C 
BRANCH  13  14
HETATM   14  O   UNK N   1      26.495  24.081  -2.950  0.00  0.00    -0.399 OA
HETATM   15  H   UNK N   1      26.897  24.189  -2.074  0.00  0.00     0.209 HD
ENDBRANCH  13  14
ENDBRANCH  12  13
BRANCH  12  16
HETATM   16  N   UNK N   1      25.242  23.872  -5.845  0.00  0.00    -0.424 N 
HETATM   17  H   UNK N   1      24.490  23.236  -5.579  0.00  0.00     0.150 HD
HETATM   18  H   UNK N   1      25.727  23.719  -6.729  0.00  0.00     0.150 HD
ENDBRANCH  12  16
ENDBRANCH  11  12
ENDBRANCH   6  11
TORSDOF 5
ENDMDL
MODEL 6
REMARK VINA RESULT:      -5.2      8.400     11.184
REMARK  5 active torsions:
REMARK  status: ('A' for Active; 'I' for Inactive)
REMARK    1  A    between atoms: C_8  and  C_5 
REMARK    2  A    between atoms: C_9  and  C_5 
REMARK    3  A    between atoms: C_9  and  C_7 
REMARK    4  A    between atoms: O_14  and  C_7 
REMARK    5  A    between atoms: C_9  and  N_12 
ROOT
HETATM    1  C   UNK N   1      29.144  18.652   9.316  0.00  0.00     0.001 A 
HETATM    2  C   UNK N   1      28.218  18.672   8.248  0.00  0.00     0.002 A 
HETATM    3  C   UNK N   1      30.387  18.012   9.166  0.00  0.00     0.014 A 
HETATM    4  C   UNK N   1      28.531  18.051   7.024  0.00  0.00     0.030 A 
HETATM    5  C   UNK N   1      31.485  16.328   6.190  0.00  0.00     0.096 A 
HETATM    6  C   UNK N   1      31.769  16.720   7.495  0.00  0.00    -0.028 A 
HETATM    7  C   UNK N   1      30.671  17.416   7.937  0.00  0.00    -0.002 A 
HETATM    8  C   UNK N   1      29.772  17.434   6.908  0.00  0.00     0.042 A 
HETATM    9  N   UNK N   1      30.254  16.778   5.835  0.00  0.00    -0.365 N 
HETATM   10  H   UNK N   1      29.804  16.650   4.969  0.00  0.00     0.165 HD
ENDROOT
BRANCH   6  11
HETATM   11  C   UNK N   1      33.003  16.360   8.271  0.00  0.00     0.067 C 
BRANCH  11  12
HETATM   12  C   UNK N   1      33.706  17.515   8.988  0.00  0.00     0.101 C 
BRANCH  12  13
HETATM   13  C   UNK N   1      34.507  18.274   7.940  0.00  0.00     0.189 C 
BRANCH  13  14
HETATM   14  O   UNK N   1      35.341  19.219   8.540  0.00  0.00    -0.399 OA
HETATM   15  H   UNK N   1      36.290  19.386   8.438  0.00  0.00     0.209 HD
ENDBRANCH  13  14
ENDBRANCH  12  13
BRANCH  12  16
HETATM   16  N   UNK N   1      34.611  17.023  10.013  0.00  0.00    -0.424 N 
HETATM   17  H   UNK N   1      34.826  17.561  10.853  0.00  0.00     0.150 HD
HETATM   18  H   UNK N   1      35.048  16.110   9.888  0.00  0.00     0.150 HD
ENDBRANCH  12  16
ENDBRANCH  11  12
ENDBRANCH   6  11
TORSDOF 5
ENDMDL
MODEL 7
REMARK VINA RESULT:      -5.1     15.259     17.674
REMARK  5 active torsions:
REMARK  status: ('A' for Active; 'I' for Inactive)
REMARK    1  A    between atoms: C_8  and  C_5 
REMARK    2  A    between atoms: C_9  and  C_5 
REMARK    3  A    between atoms: C_9  and  C_7 
REMARK    4  A    between atoms: O_14  and  C_7 
REMARK    5  A    between atoms: C_9  and  N_12 
ROOT
HETATM    1  C   UNK N   1      34.132  10.446  15.124  0.00  0.00     0.001 A 
HETATM    2  C   UNK N   1      34.721  10.639  16.395  0.00  0.00     0.002 A 
HETATM    3  C   UNK N   1      34.392  11.347  14.078  0.00  0.00     0.014 A 
HETATM    4  C   UNK N   1      35.574  11.734  16.625  0.00  0.00     0.030 A 
HETATM    5  C   UNK N   1      36.502  14.242  14.334  0.00  0.00     0.096 A 
HETATM    6  C   UNK N   1      35.681  13.449  13.537  0.00  0.00    -0.028 A 
HETATM    7  C   UNK N   1      35.250  12.416  14.334  0.00  0.00    -0.002 A 
HETATM    8  C   UNK N   1      35.815  12.602  15.564  0.00  0.00     0.042 A 
HETATM    9  N   UNK N   1      36.583  13.708  15.580  0.00  0.00    -0.365 N 
HETATM   10  H   UNK N   1      37.099  14.059  16.342  0.00  0.00     0.165 HD
ENDROOT
BRANCH   6  11
HETATM   11  C   UNK N   1      35.289  13.740  12.118  0.00  0.00     0.067 C 
BRANCH  11  12
HETATM   12  C   UNK N   1      35.520  15.175  11.638  0.00  0.00     0.101 C 
BRANCH  12  13
HETATM   13  C   UNK N   1      34.398  15.511  10.666  0.00  0.00     0.189 C 
BRANCH  13  14
HETATM   14  O   UNK N   1      33.181  14.993  11.114  0.00  0.00    -0.399 OA
HETATM   15  H   UNK N   1      32.736  15.066  11.972  0.00  0.00     0.209 HD
ENDBRANCH  13  14
ENDBRANCH  12  13
BRANCH  12  16
HETATM   16  N   UNK N   1      36.795  15.300  10.952  0.00  0.00    -0.424 N 
HETATM   17  H   UNK N   1      37.360  14.488  10.701  0.00  0.00     0.150 HD
HETATM   18  H   UNK N   1      37.138  16.231  10.714  0.00  0.00     0.150 HD
ENDBRANCH  12  16
ENDBRANCH  11  12
ENDBRANCH   6  11
TORSDOF 5
ENDMDL
MODEL 8
REMARK VINA RESULT:      -4.9      6.712      8.759
REMARK  5 active torsions:
REMARK  status: ('A' for Active; 'I' for Inactive)
REMARK    1  A    between atoms: C_8  and  C_5 
REMARK    2  A    between atoms: C_9  and  C_5 
REMARK    3  A    between atoms: C_9  and  C_7 
REMARK    4  A    between atoms: O_14  and  C_7 
REMARK    5  A    between atoms: C_9  and  N_12 
ROOT
HETATM    1  C   UNK N   1      33.642  17.377   5.994  0.00  0.00     0.001 A 
HETATM    2  C   UNK N   1      34.193  17.648   7.267  0.00  0.00     0.002 A 
HETATM    3  C   UNK N   1      32.252  17.231   5.840  0.00  0.00     0.014 A 
HETATM    4  C   UNK N   1      33.358  17.774   8.393  0.00  0.00     0.030 A 
HETATM    5  C   UNK N   1      29.851  17.477   8.499  0.00  0.00     0.096 A 
HETATM    6  C   UNK N   1      30.091  17.277   7.142  0.00  0.00    -0.028 A 
HETATM    7  C   UNK N   1      31.450  17.373   6.972  0.00  0.00    -0.002 A 
HETATM    8  C   UNK N   1      31.986  17.631   8.202  0.00  0.00     0.042 A 
HETATM    9  N   UNK N   1      31.026  17.701   9.142  0.00  0.00    -0.365 N 
HETATM   10  H   UNK N   1      31.149  17.877  10.103  0.00  0.00     0.165 HD
ENDROOT
BRANCH   6  11
HETATM   11  C   UNK N   1      29.057  16.935   6.109  0.00  0.00     0.067 C 
BRANCH  11  12
HETATM   12  C   UNK N   1      28.680  18.057   5.139  0.00  0.00     0.101 C 
BRANCH  12  13
HETATM   13  C   UNK N   1      27.205  18.363   5.357  0.00  0.00     0.189 C 
BRANCH  13  14
HETATM   14  O   UNK N   1      27.010  19.033   6.566  0.00  0.00    -0.399 OA
HETATM   15  H   UNK N   1      27.208  18.770   7.478  0.00  0.00     0.209 HD
ENDBRANCH  13  14
ENDBRANCH  12  13
BRANCH  12  16
HETATM   16  N   UNK N   1      28.880  17.648   3.759  0.00  0.00    -0.424 N 
HETATM   17  H   UNK N   1      28.850  18.312   2.985  0.00  0.00     0.150 HD
HETATM   18  H   UNK N   1      29.056  16.663   3.558  0.00  0.00     0.150 HD
ENDBRANCH  12  16
ENDBRANCH  11  12
ENDBRANCH   6  11
TORSDOF 5
ENDMDL
MODEL 9
REMARK VINA RESULT:      -4.8     19.640     20.125
REMARK  5 active torsions:
REMARK  status: ('A' for Active; 'I' for Inactive)
REMARK    1  A    between atoms: C_8  and  C_5 
REMARK    2  A    between atoms: C_9  and  C_5 
REMARK    3  A    between atoms: C_9  and  C_7 
REMARK    4  A    between atoms: O_14  and  C_7 
REMARK    5  A    between atoms: C_9  and  N_12 
ROOT
HETATM    1  C   UNK N   1      35.232   9.455  14.573  0.00  0.00     0.001 A 
HETATM    2  C   UNK N   1      36.289   9.534  13.638  0.00  0.00     0.002 A 
HETATM    3  C   UNK N   1      34.945  10.546  15.413  0.00  0.00     0.014 A 
HETATM    4  C   UNK N   1      37.064  10.705  13.537  0.00  0.00     0.030 A 
HETATM    5  C   UNK N   1      36.733  13.661  15.421  0.00  0.00     0.096 A 
HETATM    6  C   UNK N   1      35.698  12.894  15.950  0.00  0.00    -0.028 A 
HETATM    7  C   UNK N   1      35.724  11.695  15.281  0.00  0.00    -0.002 A 
HETATM    8  C   UNK N   1      36.747  11.767  14.378  0.00  0.00     0.042 A 
HETATM    9  N   UNK N   1      37.370  12.959  14.448  0.00  0.00    -0.365 N 
HETATM   10  H   UNK N   1      38.133  13.260  13.905  0.00  0.00     0.165 HD
ENDROOT
BRANCH   6  11
HETATM   11  C   UNK N   1      34.805  13.292  17.089  0.00  0.00     0.067 C 
BRANCH  11  12
HETATM   12  C   UNK N   1      35.510  13.723  18.377  0.00  0.00     0.101 C 
BRANCH  12  13
HETATM   13  C   UNK N   1      35.038  12.791  19.483  0.00  0.00     0.189 C 
BRANCH  13  14
HETATM   14  O   UNK N   1      34.615  13.517  20.598  0.00  0.00    -0.399 OA
HETATM   15  H   UNK N   1      34.179  13.230  21.415  0.00  0.00     0.209 HD
ENDBRANCH  13  14
ENDBRANCH  12  13
BRANCH  12  16
HETATM   16  N   UNK N   1      35.168  15.091  18.731  0.00  0.00    -0.424 N 
HETATM   17  H   UNK N   1      34.626  15.317  19.565  0.00  0.00     0.150 HD
HETATM   18  H   UNK N   1      35.478  15.849  18.124  0.00  0.00     0.150 HD
ENDBRANCH  12  16
ENDBRANCH  11  12
ENDBRANCH   6  11
TORSDOF 5
ENDMDL
