MODEL 1
REMARK VINA RESULT:      -6.5      0.000      0.000
REMARK  14 active torsions:
REMARK  status: ('A' for Active; 'I' for Inactive)
REMARK    1  A    between atoms: C_2  and  C_4 
REMARK    2  A    between atoms: C_4  and  C_5 
REMARK    3  A    between atoms: C_5  and  N_6 
REMARK    4  A    between atoms: C_5  and  C_15 
REMARK       I    between atoms: N_6  and  C_7 
REMARK    5  A    between atoms: C_7  and  C_9 
REMARK    6  A    between atoms: C_9  and  O_10 
REMARK    7  A    between atoms: C_9  and  C_11 
REMARK    8  A    between atoms: C_11  and  C_12 
REMARK    9  A    between atoms: C_12  and  O_13 
REMARK       I    between atoms: C_15  and  N_17 
REMARK   10  A    between atoms: N_17  and  C_18 
REMARK   11  A    between atoms: C_18  and  C_19 
REMARK   12  A    between atoms: C_19  and  C_20 
REMARK   13  A    between atoms: C_20  and  C_21 
REMARK   14  A    between atoms: C_21  and  N_22 
REMARK       I    between atoms: N_22  and  C_23 
REMARK       I    between atoms: C_23  and  N_24 
ROOT
HETATM    1  C   UNK N   1      21.751  17.362   4.984  0.00  0.00     0.177 C 
ENDROOT
BRANCH   1   2
HETATM    2  C   UNK N   1      21.037  16.183   4.329  0.00  0.00     0.038 C 
BRANCH   2   3
HETATM    3  C   UNK N   1      21.718  15.831   3.020  0.00  0.00    -0.020 C 
HETATM    4  C   UNK N   1      20.693  15.826   1.906  0.00  0.00     0.009 C 
HETATM    5  C   UNK N   1      22.354  14.462   3.124  0.00  0.00     0.009 C 
ENDBRANCH   2   3
ENDBRANCH   1   2
BRANCH   1   6
HETATM    6  N   UNK N   1      21.556  18.566   4.204  0.00  0.00    -0.346 N 
HETATM    7  C   UNK N   1      22.562  19.310   3.676  0.00  0.00     0.247 C 
HETATM    8  O   UNK N   1      23.728  18.979   3.827  0.00  0.00    -0.271 OA
HETATM    9  H   UNK N   1      20.632  18.865   4.045  0.00  0.00     0.163 HD
BRANCH   7  10
HETATM   10  C   UNK N   1      22.232  20.539   2.877  0.00  0.00     0.219 C 
BRANCH  10  11
HETATM   11  O   UNK N   1      23.154  20.702   1.837  0.00  0.00    -0.386 OA
HETATM   12  H   UNK N   1      23.732  19.980   1.545  0.00  0.00     0.210 HD
ENDBRANCH  10  11
BRANCH  10  13
HETATM   13  C   UNK N   1      20.816  20.450   2.317  0.00  0.00     0.151 C 
BRANCH  13  14
HETATM   14  C   UNK N   1      20.738  20.993   0.924  0.00  0.00     0.142 C 
HETATM   15  O   UNK N   1      20.841  20.244  -0.033  0.00  0.00    -0.650 OA
BRANCH  14  16
HETATM   16  O   UNK N   1      20.538  22.309   0.727  0.00  0.00    -0.776 OA
HETATM   17  H   UNK N   1      20.850  22.939   1.346  0.00  0.00     0.167 HD
ENDBRANCH  14  16
ENDBRANCH  13  14
ENDBRANCH  10  13
ENDBRANCH   7  10
ENDBRANCH   1   6
BRANCH   1  18
HETATM   18  C   UNK N   1      21.208  17.576   6.376  0.00  0.00     0.240 C 
HETATM   19  O   UNK N   1      21.055  18.710   6.807  0.00  0.00    -0.271 OA
HETATM   20  N   UNK N   1      20.883  16.506   7.144  0.00  0.00    -0.359 N 
HETATM   21  H   UNK N   1      21.019  15.598   6.788  0.00  0.00     0.162 HD
BRANCH  20  22
HETATM   22  C   UNK N   1      20.343  16.672   8.470  0.00  0.00     0.122 C 
BRANCH  22  23
HETATM   23  C   UNK N   1      20.071  15.312   9.077  0.00  0.00     0.021 C 
BRANCH  23  24
HETATM   24  C   UNK N   1      21.180  14.353   8.701  0.00  0.00     0.022 C 
BRANCH  24  25
HETATM   25  C   UNK N   1      21.441  13.395   9.843  0.00  0.00     0.138 C 
BRANCH  25  26
HETATM   26  N   UNK N   1      22.845  13.416  10.160  0.00  0.00    -0.227 N 
HETATM   27  C   UNK N   1      23.494  12.322  10.787  0.00  0.00     0.665 C 
HETATM   28  N   UNK N   1      24.857  12.429  11.137  0.00  0.00    -0.235 N 
HETATM   29  N   UNK N   1      22.856  11.239  11.040  0.00  0.00    -0.235 N 
HETATM   30  H   UNK N   1      25.352  11.637  11.448  0.00  0.00     0.174 HD
HETATM   31  H   UNK N   1      25.315  13.297  11.070  0.00  0.00     0.174 HD
HETATM   32  H   UNK N   1      21.891  11.170  10.853  0.00  0.00     0.174 HD
HETATM   33  H   UNK N   1      23.334  10.469  11.424  0.00  0.00     0.174 HD
HETATM   34  H   UNK N   1      23.373  14.216   9.932  0.00  0.00     0.177 HD
ENDBRANCH  25  26
ENDBRANCH  24  25
ENDBRANCH  23  24
ENDBRANCH  22  23
ENDBRANCH  20  22
ENDBRANCH   1  18
TORSDOF 14
ENDMDL
MODEL 2
REMARK VINA RESULT:      -6.3     11.774     14.571
REMARK  14 active torsions:
REMARK  status: ('A' for Active; 'I' for Inactive)
REMARK    1  A    between atoms: C_2  and  C_4 
REMARK    2  A    between atoms: C_4  and  C_5 
REMARK    3  A    between atoms: C_5  and  N_6 
REMARK    4  A    between atoms: C_5  and  C_15 
REMARK       I    between atoms: N_6  and  C_7 
REMARK    5  A    between atoms: C_7  and  C_9 
REMARK    6  A    between atoms: C_9  and  O_10 
REMARK    7  A    between atoms: C_9  and  C_11 
REMARK    8  A    between atoms: C_11  and  C_12 
REMARK    9  A    between atoms: C_12  and  O_13 
REMARK       I    between atoms: C_15  and  N_17 
REMARK   10  A    between atoms: N_17  and  C_18 
REMARK   11  A    between atoms: C_18  and  C_19 
REMARK   12  A    between atoms: C_19  and  C_20 
REMARK   13  A    between atoms: C_20  and  C_21 
REMARK   14  A    between atoms: C_21  and  N_22 
REMARK       I    between atoms: N_22  and  C_23 
REMARK       I    between atoms: C_23  and  N_24 
ROOT
HETATM    1  C   UNK N   1      33.721  17.771   8.310  0.00  0.00     0.177 C 
ENDROOT
BRANCH   1   2
HETATM    2  C   UNK N   1      32.313  18.334   8.145  0.00  0.00     0.038 C 
BRANCH   2   3
HETATM    3  C   UNK N   1      31.288  17.256   8.445  0.00  0.00    -0.020 C 
HETATM    4  C   UNK N   1      30.775  16.675   7.145  0.00  0.00     0.009 C 
HETATM    5  C   UNK N   1      30.132  17.849   9.221  0.00  0.00     0.009 C 
ENDBRANCH   2   3
ENDBRANCH   1   2
BRANCH   1   6
HETATM    6  N   UNK N   1      33.743  16.764   9.350  0.00  0.00    -0.346 N 
HETATM    7  C   UNK N   1      34.730  16.636  10.273  0.00  0.00     0.247 C 
HETATM    8  O   UNK N   1      35.680  17.403  10.283  0.00  0.00    -0.271 OA
HETATM    9  H   UNK N   1      32.992  16.130   9.390  0.00  0.00     0.163 HD
BRANCH   7  10
HETATM   10  C   UNK N   1      34.636  15.551  11.310  0.00  0.00     0.219 C 
BRANCH  10  11
HETATM   11  O   UNK N   1      33.425  14.863  11.182  0.00  0.00    -0.386 OA
HETATM   12  H   UNK N   1      33.379  13.967  10.815  0.00  0.00     0.210 HD
ENDBRANCH  10  11
BRANCH  10  13
HETATM   13  C   UNK N   1      35.809  14.584  11.180  0.00  0.00     0.151 C 
BRANCH  13  14
HETATM   14  C   UNK N   1      36.021  13.803  12.439  0.00  0.00     0.142 C 
HETATM   15  O   UNK N   1      35.067  13.474  13.125  0.00  0.00    -0.650 OA
BRANCH  14  16
HETATM   16  O   UNK N   1      37.265  13.445  12.806  0.00  0.00    -0.776 OA
HETATM   17  H   UNK N   1      37.835  13.009  12.203  0.00  0.00     0.167 HD
ENDBRANCH  14  16
ENDBRANCH  13  14
ENDBRANCH  10  13
ENDBRANCH   7  10
ENDBRANCH   1   6
BRANCH   1  18
HETATM   18  C   UNK N   1      34.178  17.157   7.010  0.00  0.00     0.240 C 
HETATM   19  O   UNK N   1      34.188  17.825   5.985  0.00  0.00    -0.271 OA
HETATM   20  N   UNK N   1      34.586  15.864   6.983  0.00  0.00    -0.359 N 
HETATM   21  H   UNK N   1      34.566  15.335   7.813  0.00  0.00     0.162 HD
BRANCH  20  22
HETATM   22  C   UNK N   1      35.049  15.249   5.764  0.00  0.00     0.122 C 
BRANCH  22  23
HETATM   23  C   UNK N   1      34.308  13.948   5.543  0.00  0.00     0.021 C 
BRANCH  23  24
HETATM   24  C   UNK N   1      33.703  13.933   4.156  0.00  0.00     0.022 C 
BRANCH  24  25
HETATM   25  C   UNK N   1      33.568  15.349   3.637  0.00  0.00     0.138 C 
BRANCH  25  26
HETATM   26  N   UNK N   1      32.255  15.518   3.073  0.00  0.00    -0.227 N 
HETATM   27  C   UNK N   1      31.524  16.725   3.211  0.00  0.00     0.665 C 
HETATM   28  N   UNK N   1      30.212  16.808   2.698  0.00  0.00    -0.235 N 
HETATM   29  N   UNK N   1      32.042  17.741   3.797  0.00  0.00    -0.235 N 
HETATM   30  H   UNK N   1      29.746  17.674   2.666  0.00  0.00     0.174 HD
HETATM   31  H   UNK N   1      29.762  15.996   2.369  0.00  0.00     0.174 HD
HETATM   32  H   UNK N   1      32.935  17.681   4.210  0.00  0.00     0.174 HD
HETATM   33  H   UNK N   1      31.544  18.590   3.834  0.00  0.00     0.174 HD
HETATM   34  H   UNK N   1      31.851  14.771   2.574  0.00  0.00     0.177 HD
ENDBRANCH  25  26
ENDBRANCH  24  25
ENDBRANCH  23  24
ENDBRANCH  22  23
ENDBRANCH  20  22
ENDBRANCH   1  18
TORSDOF 14
ENDMDL
MODEL 3
REMARK VINA RESULT:      -6.3      2.974      4.703
REMARK  14 active torsions:
REMARK  status: ('A' for Active; 'I' for Inactive)
REMARK    1  A    between atoms: C_2  and  C_4 
REMARK    2  A    between atoms: C_4  and  C_5 
REMARK    3  A    between atoms: C_5  and  N_6 
REMARK    4  A    between atoms: C_5  and  C_15 
REMARK       I    between atoms: N_6  and  C_7 
REMARK    5  A    between atoms: C_7  and  C_9 
REMARK    6  A    between atoms: C_9  and  O_10 
REMARK    7  A    between atoms: C_9  and  C_11 
REMARK    8  A    between atoms: C_11  and  C_12 
REMARK    9  A    between atoms: C_12  and  O_13 
REMARK       I    between atoms: C_15  and  N_17 
REMARK   10  A    between atoms: N_17  and  C_18 
REMARK   11  A    between atoms: C_18  and  C_19 
REMARK   12  A    between atoms: C_19  and  C_20 
REMARK   13  A    between atoms: C_20  and  C_21 
REMARK   14  A    between atoms: C_21  and  N_22 
REMARK       I    between atoms: N_22  and  C_23 
REMARK       I    between atoms: C_23  and  N_24 
ROOT
HETATM    1  C   UNK N   1      23.551  18.306   4.663  0.00  0.00     0.177 C 
ENDROOT
BRANCH   1   2
HETATM    2  C   UNK N   1      24.936  18.567   4.080  0.00  0.00     0.038 C 
BRANCH   2   3
HETATM    3  C   UNK N   1      25.216  20.057   4.061  0.00  0.00    -0.020 C 
HETATM    4  C   UNK N   1      25.573  20.485   2.654  0.00  0.00     0.009 C 
HETATM    5  C   UNK N   1      26.368  20.375   4.990  0.00  0.00     0.009 C 
ENDBRANCH   2   3
ENDBRANCH   1   2
BRANCH   1   6
HETATM    6  N   UNK N   1      22.534  18.939   3.848  0.00  0.00    -0.346 N 
HETATM    7  C   UNK N   1      21.334  19.369   4.316  0.00  0.00     0.247 C 
HETATM    8  O   UNK N   1      21.046  19.252   5.497  0.00  0.00    -0.271 OA
HETATM    9  H   UNK N   1      22.726  19.065   2.892  0.00  0.00     0.163 HD
BRANCH   7  10
HETATM   10  C   UNK N   1      20.362  20.017   3.371  0.00  0.00     0.219 C 
BRANCH  10  11
HETATM   11  O   UNK N   1      20.633  21.385   3.261  0.00  0.00    -0.386 OA
HETATM   12  H   UNK N   1      21.430  21.717   2.820  0.00  0.00     0.210 HD
ENDBRANCH  10  11
BRANCH  10  13
HETATM   13  C   UNK N   1      20.426  19.354   1.998  0.00  0.00     0.151 C 
BRANCH  13  14
HETATM   14  C   UNK N   1      21.106  20.230   0.994  0.00  0.00     0.142 C 
HETATM   15  O   UNK N   1      22.260  20.586   1.171  0.00  0.00    -0.650 OA
BRANCH  14  16
HETATM   16  O   UNK N   1      20.451  20.613  -0.117  0.00  0.00    -0.776 OA
HETATM   17  H   UNK N   1      20.155  19.979  -0.741  0.00  0.00     0.167 HD
ENDBRANCH  14  16
ENDBRANCH  13  14
ENDBRANCH  10  13
ENDBRANCH   7  10
ENDBRANCH   1   6
BRANCH   1  18
HETATM   18  C   UNK N   1      23.293  16.821   4.720  0.00  0.00     0.240 C 
HETATM   19  O   UNK N   1      23.403  16.218   5.778  0.00  0.00    -0.271 OA
HETATM   20  N   UNK N   1      22.932  16.157   3.594  0.00  0.00    -0.359 N 
HETATM   21  H   UNK N   1      22.855  16.652   2.746  0.00  0.00     0.162 HD
BRANCH  20  22
HETATM   22  C   UNK N   1      22.658  14.742   3.613  0.00  0.00     0.122 C 
BRANCH  22  23
HETATM   23  C   UNK N   1      21.345  14.473   2.909  0.00  0.00     0.021 C 
BRANCH  23  24
HETATM   24  C   UNK N   1      20.446  15.685   3.022  0.00  0.00     0.022 C 
BRANCH  24  25
HETATM   25  C   UNK N   1      19.439  15.478   4.132  0.00  0.00     0.138 C 
BRANCH  25  26
HETATM   26  N   UNK N   1      19.732  16.389   5.207  0.00  0.00    -0.227 N 
HETATM   27  C   UNK N   1      20.305  15.956   6.429  0.00  0.00     0.665 C 
HETATM   28  N   UNK N   1      20.504  16.885   7.473  0.00  0.00    -0.235 N 
HETATM   29  N   UNK N   1      20.644  14.731   6.596  0.00  0.00    -0.235 N 
HETATM   30  H   UNK N   1      21.021  16.631   8.271  0.00  0.00     0.174 HD
HETATM   31  H   UNK N   1      20.126  17.791   7.403  0.00  0.00     0.174 HD
HETATM   32  H   UNK N   1      20.460  14.060   5.898  0.00  0.00     0.174 HD
HETATM   33  H   UNK N   1      21.094  14.458   7.428  0.00  0.00     0.174 HD
HETATM   34  H   UNK N   1      19.528  17.346   5.089  0.00  0.00     0.177 HD
ENDBRANCH  25  26
ENDBRANCH  24  25
ENDBRANCH  23  24
ENDBRANCH  22  23
ENDBRANCH  20  22
ENDBRANCH   1  18
TORSDOF 14
ENDMDL
MODEL 4
REMARK VINA RESULT:      -6.2     10.733     13.736
REMARK  14 active torsions:
REMARK  status: ('A' for Active; 'I' for Inactive)
REMARK    1  A    between atoms: C_2  and  C_4 
REMARK    2  A    between atoms: C_4  and  C_5 
REMARK    3  A    between atoms: C_5  and  N_6 
REMARK    4  A    between atoms: C_5  and  C_15 
REMARK       I    between atoms: N_6  and  C_7 
REMARK    5  A    between atoms: C_7  and  C_9 
REMARK    6  A    between atoms: C_9  and  O_10 
REMARK    7  A    between atoms: C_9  and  C_11 
REMARK    8  A    between atoms: C_11  and  C_12 
REMARK    9  A    between atoms: C_12  and  O_13 
REMARK       I    between atoms: C_15  and  N_17 
REMARK   10  A    between atoms: N_17  and  C_18 
REMARK   11  A    between atoms: C_18  and  C_19 
REMARK   12  A    between atoms: C_19  and  C_20 
REMARK   13  A    between atoms: C_20  and  C_21 
REMARK   14  A    between atoms: C_21  and  N_22 
REMARK       I    between atoms: N_22  and  C_23 
REMARK       I    between atoms: C_23  and  N_24 
ROOT
HETATM    1  C   UNK N   1      32.849  17.480   8.549  0.00  0.00     0.177 C 
ENDROOT
BRANCH   1   2
HETATM    2  C   UNK N   1      31.388  17.042   8.579  0.00  0.00     0.038 C 
BRANCH   2   3
HETATM    3  C   UNK N   1      30.484  18.259   8.532  0.00  0.00    -0.020 C 
HETATM    4  C   UNK N   1      29.918  18.519   9.911  0.00  0.00     0.009 C 
HETATM    5  C   UNK N   1      29.348  18.016   7.560  0.00  0.00     0.009 C 
ENDBRANCH   2   3
ENDBRANCH   1   2
BRANCH   1   6
HETATM    6  N   UNK N   1      33.682  16.505   9.222  0.00  0.00    -0.346 N 
HETATM    7  C   UNK N   1      34.880  16.785   9.795  0.00  0.00     0.247 C 
HETATM    8  O   UNK N   1      35.328  17.922   9.785  0.00  0.00    -0.271 OA
HETATM    9  H   UNK N   1      33.358  15.577   9.266  0.00  0.00     0.163 HD
BRANCH   7  10
HETATM   10  C   UNK N   1      35.651  15.686  10.471  0.00  0.00     0.219 C 
BRANCH  10  11
HETATM   11  O   UNK N   1      36.950  16.116  10.765  0.00  0.00    -0.386 OA
HETATM   12  H   UNK N   1      37.726  15.562  10.592  0.00  0.00     0.210 HD
ENDBRANCH  10  11
BRANCH  10  13
HETATM   13  C   UNK N   1      34.943  15.239  11.745  0.00  0.00     0.151 C 
BRANCH  13  14
HETATM   14  C   UNK N   1      35.373  13.868  12.164  0.00  0.00     0.142 C 
HETATM   15  O   UNK N   1      36.560  13.592  12.234  0.00  0.00    -0.650 OA
BRANCH  14  16
HETATM   16  O   UNK N   1      34.450  12.942  12.483  0.00  0.00    -0.776 OA
HETATM   17  H   UNK N   1      34.587  12.039  12.274  0.00  0.00     0.167 HD
ENDBRANCH  14  16
ENDBRANCH  13  14
ENDBRANCH  10  13
ENDBRANCH   7  10
ENDBRANCH   1   6
BRANCH   1  18
HETATM   18  C   UNK N   1      33.307  17.627   7.119  0.00  0.00     0.240 C 
HETATM   19  O   UNK N   1      34.402  18.113   6.872  0.00  0.00    -0.271 OA
HETATM   20  N   UNK N   1      32.504  17.210   6.109  0.00  0.00    -0.359 N 
HETATM   21  H   UNK N   1      31.622  16.827   6.321  0.00  0.00     0.162 HD
BRANCH  20  22
HETATM   22  C   UNK N   1      32.917  17.315   4.732  0.00  0.00     0.122 C 
BRANCH  22  23
HETATM   23  C   UNK N   1      31.707  17.183   3.832  0.00  0.00     0.021 C 
BRANCH  23  24
HETATM   24  C   UNK N   1      30.891  15.977   4.244  0.00  0.00     0.022 C 
BRANCH  24  25
HETATM   25  C   UNK N   1      29.415  16.283   4.112  0.00  0.00     0.138 C 
BRANCH  25  26
HETATM   26  N   UNK N   1      29.246  17.699   3.920  0.00  0.00    -0.227 N 
HETATM   27  C   UNK N   1      27.986  18.335   4.060  0.00  0.00     0.665 C 
HETATM   28  N   UNK N   1      27.868  19.715   3.791  0.00  0.00    -0.235 N 
HETATM   29  N   UNK N   1      26.953  17.669   4.428  0.00  0.00    -0.235 N 
HETATM   30  H   UNK N   1      27.038  20.194   4.012  0.00  0.00     0.174 HD
HETATM   31  H   UNK N   1      28.620  20.201   3.381  0.00  0.00     0.174 HD
HETATM   32  H   UNK N   1      27.008  16.695   4.565  0.00  0.00     0.174 HD
HETATM   33  H   UNK N   1      26.099  18.135   4.575  0.00  0.00     0.174 HD
HETATM   34  H   UNK N   1      30.031  18.246   3.686  0.00  0.00     0.177 HD
ENDBRANCH  25  26
ENDBRANCH  24  25
ENDBRANCH  23  24
ENDBRANCH  22  23
ENDBRANCH  20  22
ENDBRANCH   1  18
TORSDOF 14
ENDMDL
MODEL 5
REMARK VINA RESULT:      -6.2     10.315     12.916
REMARK  14 active torsions:
REMARK  status: ('A' for Active; 'I' for Inactive)
REMARK    1  A    between atoms: C_2  and  C_4 
REMARK    2  A    between atoms: C_4  and  C_5 
REMARK    3  A    between atoms: C_5  and  N_6 
REMARK    4  A    between atoms: C_5  and  C_15 
REMARK       I    between atoms: N_6  and  C_7 
REMARK    5  A    between atoms: C_7  and  C_9 
REMARK    6  A    between atoms: C_9  and  O_10 
REMARK    7  A    between atoms: C_9  and  C_11 
REMARK    8  A    between atoms: C_11  and  C_12 
REMARK    9  A    between atoms: C_12  and  O_13 
REMARK       I    between atoms: C_15  and  N_17 
REMARK   10  A    between atoms: N_17  and  C_18 
REMARK   11  A    between atoms: C_18  and  C_19 
REMARK   12  A    between atoms: C_19  and  C_20 
REMARK   13  A    between atoms: C_20  and  C_21 
REMARK   14  A    between atoms: C_21  and  N_22 
REMARK       I    between atoms: N_22  and  C_23 
REMARK       I    between atoms: C_23  and  N_24 
ROOT
HETATM    1  C   UNK N   1      33.048  16.466   7.263  0.00  0.00     0.177 C 
ENDROOT
BRANCH   1   2
HETATM    2  C   UNK N   1      33.854  17.062   6.113  0.00  0.00     0.038 C 
BRANCH   2   3
HETATM    3  C   UNK N   1      33.294  16.579   4.788  0.00  0.00    -0.020 C 
HETATM    4  C   UNK N   1      32.378  17.637   4.213  0.00  0.00     0.009 C 
HETATM    5  C   UNK N   1      32.514  15.299   4.996  0.00  0.00     0.009 C 
ENDBRANCH   2   3
ENDBRANCH   1   2
BRANCH   1   6
HETATM    6  N   UNK N   1      33.927  15.799   8.201  0.00  0.00    -0.346 N 
HETATM    7  C   UNK N   1      33.515  14.904   9.135  0.00  0.00     0.247 C 
HETATM    8  O   UNK N   1      32.337  14.593   9.225  0.00  0.00    -0.271 OA
HETATM    9  H   UNK N   1      34.887  16.008   8.158  0.00  0.00     0.163 HD
BRANCH   7  10
HETATM   10  C   UNK N   1      34.525  14.272  10.050  0.00  0.00     0.219 C 
BRANCH  10  11
HETATM   11  O   UNK N   1      35.695  13.971   9.344  0.00  0.00    -0.386 OA
HETATM   12  H   UNK N   1      36.049  14.560   8.661  0.00  0.00     0.210 HD
ENDBRANCH  10  11
BRANCH  10  13
HETATM   13  C   UNK N   1      34.839  15.195  11.222  0.00  0.00     0.151 C 
BRANCH  13  14
HETATM   14  C   UNK N   1      35.828  16.252  10.842  0.00  0.00     0.142 C 
HETATM   15  O   UNK N   1      35.446  17.371  10.539  0.00  0.00    -0.650 OA
BRANCH  14  16
HETATM   16  O   UNK N   1      37.145  15.974  10.853  0.00  0.00    -0.776 OA
HETATM   17  H   UNK N   1      37.547  15.536  10.129  0.00  0.00     0.167 HD
ENDBRANCH  14  16
ENDBRANCH  13  14
ENDBRANCH  10  13
ENDBRANCH   7  10
ENDBRANCH   1   6
BRANCH   1  18
HETATM   18  C   UNK N   1      32.295  17.561   7.977  0.00  0.00     0.240 C 
HETATM   19  O   UNK N   1      32.840  18.631   8.208  0.00  0.00    -0.271 OA
HETATM   20  N   UNK N   1      31.008  17.357   8.355  0.00  0.00    -0.359 N 
HETATM   21  H   UNK N   1      30.583  16.489   8.170  0.00  0.00     0.162 HD
BRANCH  20  22
HETATM   22  C   UNK N   1      30.250  18.387   9.020  0.00  0.00     0.122 C 
BRANCH  22  23
HETATM   23  C   UNK N   1      28.771  18.113   8.852  0.00  0.00     0.021 C 
BRANCH  23  24
HETATM   24  C   UNK N   1      28.432  18.020   7.380  0.00  0.00     0.022 C 
BRANCH  24  25
HETATM   25  C   UNK N   1      27.952  19.364   6.876  0.00  0.00     0.138 C 
BRANCH  25  26
HETATM   26  N   UNK N   1      27.041  19.927   7.838  0.00  0.00    -0.227 N 
HETATM   27  C   UNK N   1      26.294  21.102   7.573  0.00  0.00     0.665 C 
HETATM   28  N   UNK N   1      25.469  21.646   8.581  0.00  0.00    -0.235 N 
HETATM   29  N   UNK N   1      26.360  21.676   6.427  0.00  0.00    -0.235 N 
HETATM   30  H   UNK N   1      24.846  22.378   8.370  0.00  0.00     0.174 HD
HETATM   31  H   UNK N   1      25.517  21.292   9.498  0.00  0.00     0.174 HD
HETATM   32  H   UNK N   1      26.973  21.340   5.733  0.00  0.00     0.174 HD
HETATM   33  H   UNK N   1      25.792  22.458   6.240  0.00  0.00     0.174 HD
HETATM   34  H   UNK N   1      26.931  19.480   8.709  0.00  0.00     0.177 HD
ENDBRANCH  25  26
ENDBRANCH  24  25
ENDBRANCH  23  24
ENDBRANCH  22  23
ENDBRANCH  20  22
ENDBRANCH   1  18
TORSDOF 14
ENDMDL
MODEL 6
REMARK VINA RESULT:      -6.1      2.109      3.250
REMARK  14 active torsions:
REMARK  status: ('A' for Active; 'I' for Inactive)
REMARK    1  A    between atoms: C_2  and  C_4 
REMARK    2  A    between atoms: C_4  and  C_5 
REMARK    3  A    between atoms: C_5  and  N_6 
REMARK    4  A    between atoms: C_5  and  C_15 
REMARK       I    between atoms: N_6  and  C_7 
REMARK    5  A    between atoms: C_7  and  C_9 
REMARK    6  A    between atoms: C_9  and  O_10 
REMARK    7  A    between atoms: C_9  and  C_11 
REMARK    8  A    between atoms: C_11  and  C_12 
REMARK    9  A    between atoms: C_12  and  O_13 
REMARK       I    between atoms: C_15  and  N_17 
REMARK   10  A    between atoms: N_17  and  C_18 
REMARK   11  A    between atoms: C_18  and  C_19 
REMARK   12  A    between atoms: C_19  and  C_20 
REMARK   13  A    between atoms: C_20  and  C_21 
REMARK   14  A    between atoms: C_21  and  N_22 
REMARK       I    between atoms: N_22  and  C_23 
REMARK       I    between atoms: C_23  and  N_24 
ROOT
HETATM    1  C   UNK N   1      23.684  18.234   5.024  0.00  0.00     0.177 C 
ENDROOT
BRANCH   1   2
HETATM    2  C   UNK N   1      25.030  18.463   4.345  0.00  0.00     0.038 C 
BRANCH   2   3
HETATM    3  C   UNK N   1      25.304  19.951   4.233  0.00  0.00    -0.020 C 
HETATM    4  C   UNK N   1      25.457  20.327   2.775  0.00  0.00     0.009 C 
HETATM    5  C   UNK N   1      26.578  20.295   4.976  0.00  0.00     0.009 C 
ENDBRANCH   2   3
ENDBRANCH   1   2
BRANCH   1   6
HETATM    6  N   UNK N   1      22.602  18.648   4.154  0.00  0.00    -0.346 N 
HETATM    7  C   UNK N   1      21.369  19.017   4.586  0.00  0.00     0.247 C 
HETATM    8  O   UNK N   1      21.103  19.033   5.778  0.00  0.00    -0.271 OA
HETATM    9  H   UNK N   1      22.774  18.664   3.186  0.00  0.00     0.163 HD
BRANCH   7  10
HETATM   10  C   UNK N   1      20.330  19.435   3.584  0.00  0.00     0.219 C 
BRANCH  10  11
HETATM   11  O   UNK N   1      19.932  20.755   3.821  0.00  0.00    -0.386 OA
HETATM   12  H   UNK N   1      19.263  21.196   3.275  0.00  0.00     0.210 HD
ENDBRANCH  10  11
BRANCH  10  13
HETATM   13  C   UNK N   1      20.867  19.292   2.163  0.00  0.00     0.151 C 
BRANCH  13  14
HETATM   14  C   UNK N   1      21.372  20.597   1.631  0.00  0.00     0.142 C 
HETATM   15  O   UNK N   1      21.140  20.920   0.477  0.00  0.00    -0.650 OA
BRANCH  14  16
HETATM   16  O   UNK N   1      22.068  21.425   2.431  0.00  0.00    -0.776 OA
HETATM   17  H   UNK N   1      21.806  21.564   3.320  0.00  0.00     0.167 HD
ENDBRANCH  14  16
ENDBRANCH  13  14
ENDBRANCH  10  13
ENDBRANCH   7  10
ENDBRANCH   1   6
BRANCH   1  18
HETATM   18  C   UNK N   1      23.524  16.771   5.357  0.00  0.00     0.240 C 
HETATM   19  O   UNK N   1      24.015  15.919   4.629  0.00  0.00    -0.271 OA
HETATM   20  N   UNK N   1      22.841  16.404   6.469  0.00  0.00    -0.359 N 
HETATM   21  H   UNK N   1      22.444  17.099   7.043  0.00  0.00     0.162 HD
BRANCH  20  22
HETATM   22  C   UNK N   1      22.686  15.017   6.830  0.00  0.00     0.122 C 
BRANCH  22  23
HETATM   23  C   UNK N   1      21.292  14.790   7.374  0.00  0.00     0.021 C 
BRANCH  23  24
HETATM   24  C   UNK N   1      21.217  15.271   8.807  0.00  0.00     0.022 C 
BRANCH  24  25
HETATM   25  C   UNK N   1      20.735  14.150   9.702  0.00  0.00     0.138 C 
BRANCH  25  26
HETATM   26  N   UNK N   1      21.823  13.238   9.938  0.00  0.00    -0.227 N 
HETATM   27  C   UNK N   1      21.749  12.210  10.912  0.00  0.00     0.665 C 
HETATM   28  N   UNK N   1      22.875  11.391  11.147  0.00  0.00    -0.235 N 
HETATM   29  N   UNK N   1      20.673  12.018  11.581  0.00  0.00    -0.235 N 
HETATM   30  H   UNK N   1      22.796  10.594  11.719  0.00  0.00     0.174 HD
HETATM   31  H   UNK N   1      23.741  11.617  10.737  0.00  0.00     0.174 HD
HETATM   32  H   UNK N   1      19.898  12.617  11.468  0.00  0.00     0.174 HD
HETATM   33  H   UNK N   1      20.618  11.264  12.212  0.00  0.00     0.174 HD
HETATM   34  H   UNK N   1      22.646  13.330   9.404  0.00  0.00     0.177 HD
ENDBRANCH  25  26
ENDBRANCH  24  25
ENDBRANCH  23  24
ENDBRANCH  22  23
ENDBRANCH  20  22
ENDBRANCH   1  18
TORSDOF 14
ENDMDL
MODEL 7
REMARK VINA RESULT:      -6.1     14.077     17.160
REMARK  14 active torsions:
REMARK  status: ('A' for Active; 'I' for Inactive)
REMARK    1  A    between atoms: C_2  and  C_4 
REMARK    2  A    between atoms: C_4  and  C_5 
REMARK    3  A    between atoms: C_5  and  N_6 
REMARK    4  A    between atoms: C_5  and  C_15 
REMARK       I    between atoms: N_6  and  C_7 
REMARK    5  A    between atoms: C_7  and  C_9 
REMARK    6  A    between atoms: C_9  and  O_10 
REMARK    7  A    between atoms: C_9  and  C_11 
REMARK    8  A    between atoms: C_11  and  C_12 
REMARK    9  A    between atoms: C_12  and  O_13 
REMARK       I    between atoms: C_15  and  N_17 
REMARK   10  A    between atoms: N_17  and  C_18 
REMARK   11  A    between atoms: C_18  and  C_19 
REMARK   12  A    between atoms: C_19  and  C_20 
REMARK   13  A    between atoms: C_20  and  C_21 
REMARK   14  A    between atoms: C_21  and  N_22 
REMARK       I    between atoms: N_22  and  C_23 
REMARK       I    between atoms: C_23  and  N_24 
ROOT
HETATM    1  C   UNK N   1      35.781  13.003  14.430  0.00  0.00     0.177 C 
ENDROOT
BRANCH   1   2
HETATM    2  C   UNK N   1      34.586  12.058  14.512  0.00  0.00     0.038 C 
BRANCH   2   3
HETATM    3  C   UNK N   1      34.998  10.667  14.069  0.00  0.00    -0.020 C 
HETATM    4  C   UNK N   1      34.030  10.165  13.020  0.00  0.00     0.009 C 
HETATM    5  C   UNK N   1      34.985   9.726  15.255  0.00  0.00     0.009 C 
ENDBRANCH   2   3
ENDBRANCH   1   2
BRANCH   1   6
HETATM    6  N   UNK N   1      35.545  14.029  13.435  0.00  0.00    -0.346 N 
HETATM    7  C   UNK N   1      36.258  14.163  12.287  0.00  0.00     0.247 C 
HETATM    8  O   UNK N   1      37.161  13.385  12.019  0.00  0.00    -0.271 OA
HETATM    9  H   UNK N   1      34.819  14.672  13.602  0.00  0.00     0.163 HD
BRANCH   7  10
HETATM   10  C   UNK N   1      35.913  15.267  11.328  0.00  0.00     0.219 C 
BRANCH  10  11
HETATM   11  O   UNK N   1      37.066  15.974  10.970  0.00  0.00    -0.386 OA
HETATM   12  H   UNK N   1      37.034  16.749  10.388  0.00  0.00     0.210 HD
ENDBRANCH  10  11
BRANCH  10  13
HETATM   13  C   UNK N   1      35.233  14.703  10.084  0.00  0.00     0.151 C 
BRANCH  13  14
HETATM   14  C   UNK N   1      33.795  15.111  10.009  0.00  0.00     0.142 C 
HETATM   15  O   UNK N   1      33.349  15.601   8.984  0.00  0.00    -0.650 OA
BRANCH  14  16
HETATM   16  O   UNK N   1      32.987  14.921  11.068  0.00  0.00    -0.776 OA
HETATM   17  H   UNK N   1      32.862  15.599  11.702  0.00  0.00     0.167 HD
ENDBRANCH  14  16
ENDBRANCH  13  14
ENDBRANCH  10  13
ENDBRANCH   7  10
ENDBRANCH   1   6
BRANCH   1  18
HETATM   18  C   UNK N   1      36.009  13.653  15.772  0.00  0.00     0.240 C 
HETATM   19  O   UNK N   1      36.891  14.489  15.908  0.00  0.00    -0.271 OA
HETATM   20  N   UNK N   1      35.227  13.312  16.827  0.00  0.00    -0.359 N 
HETATM   21  H   UNK N   1      34.525  12.632  16.707  0.00  0.00     0.162 HD
BRANCH  20  22
HETATM   22  C   UNK N   1      35.401  13.927  18.119  0.00  0.00     0.122 C 
BRANCH  22  23
HETATM   23  C   UNK N   1      35.169  12.896  19.203  0.00  0.00     0.021 C 
BRANCH  23  24
HETATM   24  C   UNK N   1      35.355  11.506  18.635  0.00  0.00     0.022 C 
BRANCH  24  25
HETATM   25  C   UNK N   1      35.046  10.470  19.694  0.00  0.00     0.138 C 
BRANCH  25  26
HETATM   26  N   UNK N   1      34.459  11.127  20.833  0.00  0.00    -0.227 N 
HETATM   27  C   UNK N   1      33.533  10.475  21.686  0.00  0.00     0.665 C 
HETATM   28  N   UNK N   1      32.937  11.192  22.746  0.00  0.00    -0.235 N 
HETATM   29  N   UNK N   1      33.231   9.242  21.505  0.00  0.00    -0.235 N 
HETATM   30  H   UNK N   1      32.401  10.721  23.423  0.00  0.00     0.174 HD
HETATM   31  H   UNK N   1      33.060  12.167  22.809  0.00  0.00     0.174 HD
HETATM   32  H   UNK N   1      33.596   8.744  20.737  0.00  0.00     0.174 HD
HETATM   33  H   UNK N   1      32.631   8.787  22.140  0.00  0.00     0.174 HD
HETATM   34  H   UNK N   1      34.710  12.060  21.027  0.00  0.00     0.177 HD
ENDBRANCH  25  26
ENDBRANCH  24  25
ENDBRANCH  23  24
ENDBRANCH  22  23
ENDBRANCH  20  22
ENDBRANCH   1  18
TORSDOF 14
ENDMDL
MODEL 8
REMARK VINA RESULT:      -6.0      2.057      2.475
REMARK  14 active torsions:
REMARK  status: ('A' for Active; 'I' for Inactive)
REMARK    1  A    between atoms: C_2  and  C_4 
REMARK    2  A    between atoms: C_4  and  C_5 
REMARK    3  A    between atoms: C_5  and  N_6 
REMARK    4  A    between atoms: C_5  and  C_15 
REMARK       I    between atoms: N_6  and  C_7 
REMARK    5  A    between atoms: C_7  and  C_9 
REMARK    6  A    between atoms: C_9  and  O_10 
REMARK    7  A    between atoms: C_9  and  C_11 
REMARK    8  A    between atoms: C_11  and  C_12 
REMARK    9  A    between atoms: C_12  and  O_13 
REMARK       I    between atoms: C_15  and  N_17 
REMARK   10  A    between atoms: N_17  and  C_18 
REMARK   11  A    between atoms: C_18  and  C_19 
REMARK   12  A    between atoms: C_19  and  C_20 
REMARK   13  A    between atoms: C_20  and  C_21 
REMARK   14  A    between atoms: C_21  and  N_22 
REMARK       I    between atoms: N_22  and  C_23 
REMARK       I    between atoms: C_23  and  N_24 
ROOT
HETATM    1  C   UNK N   1      20.138  15.288   3.647  0.00  0.00     0.177 C 
ENDROOT
BRANCH   1   2
HETATM    2  C   UNK N   1      19.609  14.054   2.922  0.00  0.00     0.038 C 
BRANCH   2   3
HETATM    3  C   UNK N   1      19.868  14.181   1.433  0.00  0.00    -0.020 C 
HETATM    4  C   UNK N   1      18.579  13.941   0.676  0.00  0.00     0.009 C 
HETATM    5  C   UNK N   1      20.900  13.161   1.003  0.00  0.00     0.009 C 
ENDBRANCH   2   3
ENDBRANCH   1   2
BRANCH   1   6
HETATM    6  N   UNK N   1      19.616  16.494   3.039  0.00  0.00    -0.346 N 
HETATM    7  C   UNK N   1      20.334  17.629   2.845  0.00  0.00     0.247 C 
HETATM    8  O   UNK N   1      21.509  17.688   3.174  0.00  0.00    -0.271 OA
HETATM    9  H   UNK N   1      18.676  16.489   2.746  0.00  0.00     0.163 HD
BRANCH   7  10
HETATM   10  C   UNK N   1      19.681  18.816   2.195  0.00  0.00     0.219 C 
BRANCH  10  11
HETATM   11  O   UNK N   1      18.318  18.849   2.509  0.00  0.00    -0.386 OA
HETATM   12  H   UNK N   1      17.637  18.967   1.829  0.00  0.00     0.210 HD
ENDBRANCH  10  11
BRANCH  10  13
HETATM   13  C   UNK N   1      20.356  20.109   2.639  0.00  0.00     0.151 C 
BRANCH  13  14
HETATM   14  C   UNK N   1      20.927  20.861   1.478  0.00  0.00     0.142 C 
HETATM   15  O   UNK N   1      21.967  20.489   0.957  0.00  0.00    -0.650 OA
BRANCH  14  16
HETATM   16  O   UNK N   1      20.284  21.939   0.993  0.00  0.00    -0.776 OA
HETATM   17  H   UNK N   1      20.751  22.608   0.534  0.00  0.00     0.167 HD
ENDBRANCH  14  16
ENDBRANCH  13  14
ENDBRANCH  10  13
ENDBRANCH   7  10
ENDBRANCH   1   6
BRANCH   1  18
HETATM   18  C   UNK N   1      19.726  15.241   5.097  0.00  0.00     0.240 C 
HETATM   19  O   UNK N   1      18.544  15.148   5.397  0.00  0.00    -0.271 OA
HETATM   20  N   UNK N   1      20.671  15.296   6.068  0.00  0.00    -0.359 N 
HETATM   21  H   UNK N   1      21.619  15.379   5.814  0.00  0.00     0.162 HD
BRANCH  20  22
HETATM   22  C   UNK N   1      20.317  15.233   7.464  0.00  0.00     0.122 C 
BRANCH  22  23
HETATM   23  C   UNK N   1      20.823  13.935   8.055  0.00  0.00     0.021 C 
BRANCH  23  24
HETATM   24  C   UNK N   1      20.795  14.015   9.566  0.00  0.00     0.022 C 
BRANCH  24  25
HETATM   25  C   UNK N   1      21.259  12.703  10.160  0.00  0.00     0.138 C 
BRANCH  25  26
HETATM   26  N   UNK N   1      22.698  12.700  10.223  0.00  0.00    -0.227 N 
HETATM   27  C   UNK N   1      23.404  12.198  11.345  0.00  0.00     0.665 C 
HETATM   28  N   UNK N   1      24.812  12.287  11.378  0.00  0.00    -0.235 N 
HETATM   29  N   UNK N   1      22.777  11.664  12.328  0.00  0.00    -0.235 N 
HETATM   30  H   UNK N   1      25.321  11.825  12.082  0.00  0.00     0.174 HD
HETATM   31  H   UNK N   1      25.287  12.812  10.695  0.00  0.00     0.174 HD
HETATM   32  H   UNK N   1      21.792  11.645  12.344  0.00  0.00     0.174 HD
HETATM   33  H   UNK N   1      23.285  11.268  13.073  0.00  0.00     0.174 HD
HETATM   34  H   UNK N   1      23.208  13.059   9.460  0.00  0.00     0.177 HD
ENDBRANCH  25  26
ENDBRANCH  24  25
ENDBRANCH  23  24
ENDBRANCH  22  23
ENDBRANCH  20  22
ENDBRANCH   1  18
TORSDOF 14
ENDMDL
MODEL 9
REMARK VINA RESULT:      -6.0     11.197     13.879
REMARK  14 active torsions:
REMARK  status: ('A' for Active; 'I' for Inactive)
REMARK    1  A    between atoms: C_2  and  C_4 
REMARK    2  A    between atoms: C_4  and  C_5 
REMARK    3  A    between atoms: C_5  and  N_6 
REMARK    4  A    between atoms: C_5  and  C_15 
REMARK       I    between atoms: N_6  and  C_7 
REMARK    5  A    between atoms: C_7  and  C_9 
REMARK    6  A    between atoms: C_9  and  O_10 
REMARK    7  A    between atoms: C_9  and  C_11 
REMARK    8  A    between atoms: C_11  and  C_12 
REMARK    9  A    between atoms: C_12  and  O_13 
REMARK       I    between atoms: C_15  and  N_17 
REMARK   10  A    between atoms: N_17  and  C_18 
REMARK   11  A    between atoms: C_18  and  C_19 
REMARK   12  A    between atoms: C_19  and  C_20 
REMARK   13  A    between atoms: C_20  and  C_21 
REMARK   14  A    between atoms: C_21  and  N_22 
REMARK       I    between atoms: N_22  and  C_23 
REMARK       I    between atoms: C_23  and  N_24 
ROOT
HETATM    1  C   UNK N   1      32.992  17.198   8.292  0.00  0.00     0.177 C 
ENDROOT
BRANCH   1   2
HETATM    2  C   UNK N   1      31.547  16.711   8.310  0.00  0.00     0.038 C 
BRANCH   2   3
HETATM    3  C   UNK N   1      30.608  17.872   8.041  0.00  0.00    -0.020 C 
HETATM    4  C   UNK N   1      30.241  18.536   9.350  0.00  0.00     0.009 C 
HETATM    5  C   UNK N   1      29.351  17.369   7.363  0.00  0.00     0.009 C 
ENDBRANCH   2   3
ENDBRANCH   1   2
BRANCH   1   6
HETATM    6  N   UNK N   1      33.842  16.285   9.028  0.00  0.00    -0.346 N 
HETATM    7  C   UNK N   1      34.940  16.658   9.733  0.00  0.00     0.247 C 
HETATM    8  O   UNK N   1      35.273  17.831   9.796  0.00  0.00    -0.271 OA
HETATM    9  H   UNK N   1      33.606  15.330   9.016  0.00  0.00     0.163 HD
BRANCH   7  10
HETATM   10  C   UNK N   1      35.740  15.615  10.462  0.00  0.00     0.219 C 
BRANCH  10  11
HETATM   11  O   UNK N   1      36.982  16.136  10.842  0.00  0.00    -0.386 OA
HETATM   12  H   UNK N   1      37.675  16.337  10.193  0.00  0.00     0.210 HD
ENDBRANCH  10  11
BRANCH  10  13
HETATM   13  C   UNK N   1      34.980  15.117  11.687  0.00  0.00     0.151 C 
BRANCH  13  14
HETATM   14  C   UNK N   1      35.688  13.976  12.349  0.00  0.00     0.142 C 
HETATM   15  O   UNK N   1      35.214  12.852  12.308  0.00  0.00    -0.650 OA
BRANCH  14  16
HETATM   16  O   UNK N   1      36.860  14.186  12.976  0.00  0.00    -0.776 OA
HETATM   17  H   UNK N   1      37.218  13.538  13.551  0.00  0.00     0.167 HD
ENDBRANCH  14  16
ENDBRANCH  13  14
ENDBRANCH  10  13
ENDBRANCH   7  10
ENDBRANCH   1   6
BRANCH   1  18
HETATM   18  C   UNK N   1      33.479  17.295   6.868  0.00  0.00     0.240 C 
HETATM   19  O   UNK N   1      34.383  18.067   6.578  0.00  0.00    -0.271 OA
HETATM   20  N   UNK N   1      32.917  16.517   5.909  0.00  0.00    -0.359 N 
HETATM   21  H   UNK N   1      32.184  15.906   6.153  0.00  0.00     0.162 HD
BRANCH  20  22
HETATM   22  C   UNK N   1      33.369  16.567   4.542  0.00  0.00     0.122 C 
BRANCH  22  23
HETATM   23  C   UNK N   1      32.422  17.423   3.728  0.00  0.00     0.021 C 
BRANCH  23  24
HETATM   24  C   UNK N   1      31.022  17.313   4.291  0.00  0.00     0.022 C 
BRANCH  24  25
HETATM   25  C   UNK N   1      30.221  16.311   3.489  0.00  0.00     0.138 C 
BRANCH  25  26
HETATM   26  N   UNK N   1      29.959  15.157   4.308  0.00  0.00    -0.227 N 
HETATM   27  C   UNK N   1      30.595  13.910   4.082  0.00  0.00     0.665 C 
HETATM   28  N   UNK N   1      30.245  12.795   4.874  0.00  0.00    -0.235 N 
HETATM   29  N   UNK N   1      31.483  13.784   3.165  0.00  0.00    -0.235 N 
HETATM   30  H   UNK N   1      30.769  11.965   4.819  0.00  0.00     0.174 HD
HETATM   31  H   UNK N   1      29.474  12.849   5.484  0.00  0.00     0.174 HD
HETATM   32  H   UNK N   1      31.697  14.538   2.568  0.00  0.00     0.174 HD
HETATM   33  H   UNK N   1      31.956  12.928   3.058  0.00  0.00     0.174 HD
HETATM   34  H   UNK N   1      29.318  15.236   5.052  0.00  0.00     0.177 HD
ENDBRANCH  25  26
ENDBRANCH  24  25
ENDBRANCH  23  24
ENDBRANCH  22  23
ENDBRANCH  20  22
ENDBRANCH   1  18
TORSDOF 14
ENDMDL
