MODEL 1
REMARK VINA RESULT:      -6.0      0.000      0.000
REMARK  8 active torsions:
REMARK  status: ('A' for Active; 'I' for Inactive)
REMARK       I    between atoms: N_1  and  C_2 
REMARK    1  A    between atoms: N_10  and  C_11 
REMARK    2  A    between atoms: C_11  and  C_12 
REMARK    3  A    between atoms: C_12  and  C_13 
REMARK    4  A    between atoms: C_13  and  C_14 
REMARK    5  A    between atoms: C_14  and  C_15 
REMARK    6  A    between atoms: C_15  and  P_18 
REMARK    7  A    between atoms: P_18  and  O_19 
REMARK    8  A    between atoms: P_18  and  O_20 
ROOT
HETATM    1  N   UNK N   1      31.990  22.251  -5.737  0.00  0.00    -0.234 N 
HETATM    2  C   UNK N   1      30.938  22.670  -4.900  0.00  0.00     0.680 A 
HETATM    3  N   UNK N   1      29.752  23.076  -5.450  0.00  0.00    -0.174 N 
ATOM      4  HN  UNK N   1      29.616  23.079  -6.461  1.00  0.00     0.186 HD
HETATM    5  C   UNK N   1      28.765  23.475  -4.609  0.00  0.00     0.156 A 
HETATM    6  C   UNK N   1      28.908  23.490  -3.273  0.00  0.00     0.147 A 
HETATM    7  N   UNK N   1      27.776  23.946  -2.698  0.00  0.00    -0.345 N 
ATOM      8  HN  UNK N   1      27.583  24.065  -1.703  1.00  0.00     0.167 HD
HETATM    9  C   UNK N   1      26.951  24.214  -3.748  0.00  0.00     0.185 A 
HETATM   10  N   UNK N   1      27.550  23.921  -4.928  0.00  0.00    -0.327 N 
HETATM   11  C   UNK N   1      30.095  23.083  -2.696  0.00  0.00     0.290 A 
HETATM   12  O   UNK N   1      30.252  23.093  -1.489  0.00  0.00    -0.265 OA
HETATM   13  N   UNK N   1      31.110  22.673  -3.536  0.00  0.00    -0.154 N 
HETATM   14  H   UNK N   1      31.828  22.071  -6.692  0.00  0.00     0.174 HD
HETATM   15  H   UNK N   1      32.894  22.137  -5.366  0.00  0.00     0.174 HD
HETATM   16  H   UNK N   1      31.968  22.377  -3.154  0.00  0.00     0.187 HD
ENDROOT
BRANCH  10  17
HETATM   17  C   UNK N   1      26.993  24.112  -6.250  0.00  0.00     0.131 C 
BRANCH  17  18
HETATM   18  C   UNK N   1      25.646  24.810  -6.186  0.00  0.00     0.020 C 
BRANCH  18  19
HETATM   19  C   UNK N   1      25.691  26.228  -6.761  0.00  0.00     0.008 C 
BRANCH  19  20
HETATM   20  C   UNK N   1      25.591  27.378  -5.742  0.00  0.00     0.092 C 
BRANCH  20  21
HETATM   21  C   UNK N   1      26.893  28.078  -5.320  0.00  0.00     0.337 C 
HETATM   22  F   UNK N   1      27.906  27.140  -5.330  0.00  0.00    -0.193 F 
HETATM   23  F   UNK N   1      27.228  29.063  -6.225  0.00  0.00    -0.193 F 
BRANCH  21  24
HETATM   24  P   UNK N   1      26.802  28.827  -3.614  0.00  0.00     0.309 P 
HETATM   25  O   UNK N   1      25.991  27.942  -2.631  0.00  0.00    -0.650 OA
BRANCH  24  26
HETATM   26  O   UNK N   1      25.970  30.349  -3.573  0.00  0.00    -0.325 OA
HETATM   27  H   UNK N   1      25.264  30.726  -3.024  0.00  0.00     0.220 HD
ENDBRANCH  24  26
BRANCH  24  28
HETATM   28  O   UNK N   1      28.326  29.067  -2.824  0.00  0.00    -0.325 OA
HETATM   29  H   UNK N   1      29.131  28.599  -2.552  0.00  0.00     0.220 HD
ENDBRANCH  24  28
ENDBRANCH  21  24
ENDBRANCH  20  21
ENDBRANCH  19  20
ENDBRANCH  18  19
ENDBRANCH  17  18
ENDBRANCH  10  17
TORSDOF 8
ENDMDL
MODEL 2
REMARK VINA RESULT:      -6.0     18.531     21.478
REMARK  8 active torsions:
REMARK  status: ('A' for Active; 'I' for Inactive)
REMARK       I    between atoms: N_1  and  C_2 
REMARK    1  A    between atoms: N_10  and  C_11 
REMARK    2  A    between atoms: C_11  and  C_12 
REMARK    3  A    between atoms: C_12  and  C_13 
REMARK    4  A    between atoms: C_13  and  C_14 
REMARK    5  A    between atoms: C_14  and  C_15 
REMARK    6  A    between atoms: C_15  and  P_18 
REMARK    7  A    between atoms: P_18  and  O_19 
REMARK    8  A    between atoms: P_18  and  O_20 
ROOT
HETATM    1  N   UNK N   1      32.408  14.623   6.535  0.00  0.00    -0.234 N 
HETATM    2  C   UNK N   1      33.162  15.403   7.434  0.00  0.00     0.680 A 
HETATM    3  N   UNK N   1      33.568  14.864   8.626  0.00  0.00    -0.174 N 
ATOM      4  HN  UNK N   1      33.335  13.902   8.874  1.00  0.00     0.186 HD
HETATM    5  C   UNK N   1      34.289  15.648   9.465  0.00  0.00     0.156 A 
HETATM    6  C   UNK N   1      34.613  16.920   9.177  0.00  0.00     0.147 A 
HETATM    7  N   UNK N   1      35.314  17.456  10.197  0.00  0.00    -0.345 N 
ATOM      8  HN  UNK N   1      35.699  18.398  10.265  1.00  0.00     0.167 HD
HETATM    9  C   UNK N   1      35.389  16.453  11.115  0.00  0.00     0.185 A 
HETATM   10  N   UNK N   1      34.766  15.335  10.670  0.00  0.00    -0.327 N 
HETATM   11  C   UNK N   1      34.214  17.484   7.980  0.00  0.00     0.290 A 
HETATM   12  O   UNK N   1      34.489  18.635   7.698  0.00  0.00    -0.265 OA
HETATM   13  N   UNK N   1      33.481  16.701   7.113  0.00  0.00    -0.154 N 
HETATM   14  H   UNK N   1      32.326  13.651   6.664  0.00  0.00     0.174 HD
HETATM   15  H   UNK N   1      31.960  15.054   5.773  0.00  0.00     0.174 HD
HETATM   16  H   UNK N   1      33.183  17.075   6.252  0.00  0.00     0.187 HD
ENDROOT
BRANCH  10  17
HETATM   17  C   UNK N   1      34.611  14.088  11.389  0.00  0.00     0.131 C 
BRANCH  17  18
HETATM   18  C   UNK N   1      35.853  13.223  11.267  0.00  0.00     0.020 C 
BRANCH  18  19
HETATM   19  C   UNK N   1      36.732  13.277  12.519  0.00  0.00     0.008 C 
BRANCH  19  20
HETATM   20  C   UNK N   1      36.082  13.877  13.780  0.00  0.00     0.092 C 
BRANCH  20  21
HETATM   21  C   UNK N   1      36.716  13.546  15.140  0.00  0.00     0.337 C 
HETATM   22  F   UNK N   1      37.580  12.483  14.963  0.00  0.00    -0.193 F 
HETATM   23  F   UNK N   1      37.458  14.614  15.602  0.00  0.00    -0.193 F 
BRANCH  21  24
HETATM   24  P   UNK N   1      35.462  13.073  16.438  0.00  0.00     0.309 P 
HETATM   25  O   UNK N   1      34.009  13.149  15.898  0.00  0.00    -0.650 OA
BRANCH  24  26
HETATM   26  O   UNK N   1      35.446  14.143  17.803  0.00  0.00    -0.325 OA
HETATM   27  H   UNK N   1      34.859  14.266  18.566  0.00  0.00     0.220 HD
ENDBRANCH  24  26
BRANCH  24  28
HETATM   28  O   UNK N   1      35.608  11.463  17.063  0.00  0.00    -0.325 OA
HETATM   29  H   UNK N   1      35.166  10.822  17.643  0.00  0.00     0.220 HD
ENDBRANCH  24  28
ENDBRANCH  21  24
ENDBRANCH  20  21
ENDBRANCH  19  20
ENDBRANCH  18  19
ENDBRANCH  17  18
ENDBRANCH  10  17
TORSDOF 8
ENDMDL
MODEL 3
REMARK VINA RESULT:      -6.0     12.342     14.458
REMARK  8 active torsions:
REMARK  status: ('A' for Active; 'I' for Inactive)
REMARK       I    between atoms: N_1  and  C_2 
REMARK    1  A    between atoms: N_10  and  C_11 
REMARK    2  A    between atoms: C_11  and  C_12 
REMARK    3  A    between atoms: C_12  and  C_13 
REMARK    4  A    between atoms: C_13  and  C_14 
REMARK    5  A    between atoms: C_14  and  C_15 
REMARK    6  A    between atoms: C_15  and  P_18 
REMARK    7  A    between atoms: P_18  and  O_19 
REMARK    8  A    between atoms: P_18  and  O_20 
ROOT
HETATM    1  N   UNK N   1      28.884  17.351   3.128  0.00  0.00    -0.234 N 
HETATM    2  C   UNK N   1      28.543  17.861   4.396  0.00  0.00     0.680 A 
HETATM    3  N   UNK N   1      29.306  17.537   5.486  0.00  0.00    -0.174 N 
ATOM      4  HN  UNK N   1      30.122  16.931   5.396  1.00  0.00     0.186 HD
HETATM    5  C   UNK N   1      28.942  18.045   6.690  0.00  0.00     0.156 A 
HETATM    6  C   UNK N   1      27.872  18.842   6.852  0.00  0.00     0.147 A 
HETATM    7  N   UNK N   1      27.746  19.179   8.151  0.00  0.00    -0.345 N 
ATOM      8  HN  UNK N   1      27.036  19.775   8.578  1.00  0.00     0.167 HD
HETATM    9  C   UNK N   1      28.781  18.542   8.765  0.00  0.00     0.185 A 
HETATM   10  N   UNK N   1      29.526  17.846   7.872  0.00  0.00    -0.327 N 
HETATM   11  C   UNK N   1      27.089  19.182   5.766  0.00  0.00     0.290 A 
HETATM   12  O   UNK N   1      26.112  19.898   5.886  0.00  0.00    -0.265 OA
HETATM   13  N   UNK N   1      27.445  18.676   4.533  0.00  0.00    -0.154 N 
HETATM   14  H   UNK N   1      29.757  16.921   2.980  0.00  0.00     0.174 HD
HETATM   15  H   UNK N   1      28.245  17.425   2.384  0.00  0.00     0.174 HD
HETATM   16  H   UNK N   1      26.906  18.901   3.740  0.00  0.00     0.187 HD
ENDROOT
BRANCH  10  17
HETATM   17  C   UNK N   1      30.678  17.021   8.165  0.00  0.00     0.131 C 
BRANCH  17  18
HETATM   18  C   UNK N   1      31.901  17.868   8.470  0.00  0.00     0.020 C 
BRANCH  18  19
HETATM   19  C   UNK N   1      33.103  17.499   7.597  0.00  0.00     0.008 C 
BRANCH  19  20
HETATM   20  C   UNK N   1      32.851  17.451   6.078  0.00  0.00     0.092 C 
BRANCH  20  21
HETATM   21  C   UNK N   1      33.165  16.141   5.339  0.00  0.00     0.337 C 
HETATM   22  F   UNK N   1      34.529  16.084   5.131  0.00  0.00    -0.193 F 
HETATM   23  F   UNK N   1      32.816  15.053   6.112  0.00  0.00    -0.193 F 
BRANCH  21  24
HETATM   24  P   UNK N   1      32.312  16.010   3.685  0.00  0.00     0.309 P 
HETATM   25  O   UNK N   1      30.954  15.266   3.787  0.00  0.00    -0.650 OA
BRANCH  24  26
HETATM   26  O   UNK N   1      33.202  15.079   2.523  0.00  0.00    -0.325 OA
HETATM   27  H   UNK N   1      34.141  14.880   2.384  0.00  0.00     0.220 HD
ENDBRANCH  24  26
BRANCH  24  28
HETATM   28  O   UNK N   1      31.922  17.519   2.927  0.00  0.00    -0.325 OA
HETATM   29  H   UNK N   1      31.762  17.923   2.059  0.00  0.00     0.220 HD
ENDBRANCH  24  28
ENDBRANCH  21  24
ENDBRANCH  20  21
ENDBRANCH  19  20
ENDBRANCH  18  19
ENDBRANCH  17  18
ENDBRANCH  10  17
TORSDOF 8
ENDMDL
MODEL 4
REMARK VINA RESULT:      -5.8      3.523      5.551
REMARK  8 active torsions:
REMARK  status: ('A' for Active; 'I' for Inactive)
REMARK       I    between atoms: N_1  and  C_2 
REMARK    1  A    between atoms: N_10  and  C_11 
REMARK    2  A    between atoms: C_11  and  C_12 
REMARK    3  A    between atoms: C_12  and  C_13 
REMARK    4  A    between atoms: C_13  and  C_14 
REMARK    5  A    between atoms: C_14  and  C_15 
REMARK    6  A    between atoms: C_15  and  P_18 
REMARK    7  A    between atoms: P_18  and  O_19 
REMARK    8  A    between atoms: P_18  and  O_20 
ROOT
HETATM    1  N   UNK N   1      29.983  27.932  -3.470  0.00  0.00    -0.234 N 
HETATM    2  C   UNK N   1      28.734  27.450  -3.908  0.00  0.00     0.680 A 
HETATM    3  N   UNK N   1      28.680  26.496  -4.889  0.00  0.00    -0.174 N 
ATOM      4  HN  UNK N   1      29.533  26.125  -5.308  1.00  0.00     0.186 HD
HETATM    5  C   UNK N   1      27.458  26.061  -5.286  0.00  0.00     0.156 A 
HETATM    6  C   UNK N   1      26.312  26.528  -4.761  0.00  0.00     0.147 A 
HETATM    7  N   UNK N   1      25.260  25.930  -5.357  0.00  0.00    -0.345 N 
ATOM      8  HN  UNK N   1      24.268  26.075  -5.168  1.00  0.00     0.167 HD
HETATM    9  C   UNK N   1      25.824  25.089  -6.268  0.00  0.00     0.185 A 
HETATM   10  N   UNK N   1      27.177  25.160  -6.227  0.00  0.00    -0.327 N 
HETATM   11  C   UNK N   1      26.343  27.490  -3.771  0.00  0.00     0.290 A 
HETATM   12  O   UNK N   1      25.320  27.934  -3.284  0.00  0.00    -0.265 OA
HETATM   13  N   UNK N   1      27.577  27.944  -3.354  0.00  0.00    -0.154 N 
HETATM   14  H   UNK N   1      30.814  27.468  -3.721  0.00  0.00     0.174 HD
HETATM   15  H   UNK N   1      30.025  28.739  -2.908  0.00  0.00     0.174 HD
HETATM   16  H   UNK N   1      27.631  28.629  -2.649  0.00  0.00     0.187 HD
ENDROOT
BRANCH  10  17
HETATM   17  C   UNK N   1      28.105  24.441  -7.073  0.00  0.00     0.131 C 
BRANCH  17  18
HETATM   18  C   UNK N   1      27.793  22.955  -7.098  0.00  0.00     0.020 C 
BRANCH  18  19
HETATM   19  C   UNK N   1      28.862  22.119  -6.390  0.00  0.00     0.008 C 
BRANCH  19  20
HETATM   20  C   UNK N   1      30.037  22.900  -5.771  0.00  0.00     0.092 C 
BRANCH  20  21
HETATM   21  C   UNK N   1      30.564  22.440  -4.403  0.00  0.00     0.337 C 
HETATM   22  F   UNK N   1      30.087  21.165  -4.167  0.00  0.00    -0.193 F 
HETATM   23  F   UNK N   1      31.942  22.375  -4.411  0.00  0.00    -0.193 F 
BRANCH  21  24
HETATM   24  P   UNK N   1      30.016  23.540  -3.000  0.00  0.00     0.309 P 
HETATM   25  O   UNK N   1      30.701  24.932  -3.049  0.00  0.00    -0.650 OA
BRANCH  24  26
HETATM   26  O   UNK N   1      30.448  22.928  -1.435  0.00  0.00    -0.325 OA
HETATM   27  H   UNK N   1      30.951  23.276  -0.681  0.00  0.00     0.220 HD
ENDBRANCH  24  26
BRANCH  24  28
HETATM   28  O   UNK N   1      28.320  23.895  -2.949  0.00  0.00    -0.325 OA
HETATM   29  H   UNK N   1      27.659  24.413  -2.463  0.00  0.00     0.220 HD
ENDBRANCH  24  28
ENDBRANCH  21  24
ENDBRANCH  20  21
ENDBRANCH  19  20
ENDBRANCH  18  19
ENDBRANCH  17  18
ENDBRANCH  10  17
TORSDOF 8
ENDMDL
MODEL 5
REMARK VINA RESULT:      -5.8     17.958     19.930
REMARK  8 active torsions:
REMARK  status: ('A' for Active; 'I' for Inactive)
REMARK       I    between atoms: N_1  and  C_2 
REMARK    1  A    between atoms: N_10  and  C_11 
REMARK    2  A    between atoms: C_11  and  C_12 
REMARK    3  A    between atoms: C_12  and  C_13 
REMARK    4  A    between atoms: C_13  and  C_14 
REMARK    5  A    between atoms: C_14  and  C_15 
REMARK    6  A    between atoms: C_15  and  P_18 
REMARK    7  A    between atoms: P_18  and  O_19 
REMARK    8  A    between atoms: P_18  and  O_20 
ROOT
HETATM    1  N   UNK N   1      36.441  15.313  13.145  0.00  0.00    -0.234 N 
HETATM    2  C   UNK N   1      35.803  14.089  12.866  0.00  0.00     0.680 A 
HETATM    3  N   UNK N   1      35.555  13.732  11.567  0.00  0.00    -0.174 N 
ATOM      4  HN  UNK N   1      35.828  14.341  10.794  1.00  0.00     0.186 HD
HETATM    5  C   UNK N   1      34.935  12.548  11.340  0.00  0.00     0.156 A 
HETATM    6  C   UNK N   1      34.556  11.722  12.330  0.00  0.00     0.147 A 
HETATM    7  N   UNK N   1      33.952  10.634  11.811  0.00  0.00    -0.345 N 
ATOM      8  HN  UNK N   1      33.565   9.834  12.312  1.00  0.00     0.167 HD
HETATM    9  C   UNK N   1      33.977  10.845  10.466  0.00  0.00     0.185 A 
HETATM   10  N   UNK N   1      34.586  12.020  10.167  0.00  0.00    -0.327 N 
HETATM   11  C   UNK N   1      34.796  12.061  13.648  0.00  0.00     0.290 A 
HETATM   12  O   UNK N   1      34.457  11.334  14.563  0.00  0.00    -0.265 OA
HETATM   13  N   UNK N   1      35.427  13.262  13.898  0.00  0.00    -0.154 N 
HETATM   14  H   UNK N   1      36.874  15.827  12.426  0.00  0.00     0.174 HD
HETATM   15  H   UNK N   1      36.455  15.657  14.067  0.00  0.00     0.174 HD
HETATM   16  H   UNK N   1      35.612  13.530  14.827  0.00  0.00     0.187 HD
ENDROOT
BRANCH  10  17
HETATM   17  C   UNK N   1      34.761  12.590   8.849  0.00  0.00     0.131 C 
BRANCH  17  18
HETATM   18  C   UNK N   1      33.426  12.953   8.222  0.00  0.00     0.020 C 
BRANCH  18  19
HETATM   19  C   UNK N   1      33.282  14.457   7.977  0.00  0.00     0.008 C 
BRANCH  19  20
HETATM   20  C   UNK N   1      33.417  15.364   9.214  0.00  0.00     0.092 C 
BRANCH  20  21
HETATM   21  C   UNK N   1      34.576  16.373   9.241  0.00  0.00     0.337 C 
HETATM   22  F   UNK N   1      34.746  16.795  10.545  0.00  0.00    -0.193 F 
HETATM   23  F   UNK N   1      35.751  15.772   8.840  0.00  0.00    -0.193 F 
BRANCH  21  24
HETATM   24  P   UNK N   1      34.266  17.872   8.175  0.00  0.00     0.309 P 
HETATM   25  O   UNK N   1      34.564  17.594   6.677  0.00  0.00    -0.650 OA
BRANCH  24  26
HETATM   26  O   UNK N   1      35.299  19.213   8.554  0.00  0.00    -0.325 OA
HETATM   27  H   UNK N   1      35.279  20.165   8.365  0.00  0.00     0.220 HD
ENDBRANCH  24  26
BRANCH  24  28
HETATM   28  O   UNK N   1      32.640  18.472   8.187  0.00  0.00    -0.325 OA
HETATM   29  H   UNK N   1      32.110  19.257   7.975  0.00  0.00     0.220 HD
ENDBRANCH  24  28
ENDBRANCH  21  24
ENDBRANCH  20  21
ENDBRANCH  19  20
ENDBRANCH  18  19
ENDBRANCH  17  18
ENDBRANCH  10  17
TORSDOF 8
ENDMDL
MODEL 6
REMARK VINA RESULT:      -5.8     15.271     17.036
REMARK  8 active torsions:
REMARK  status: ('A' for Active; 'I' for Inactive)
REMARK       I    between atoms: N_1  and  C_2 
REMARK    1  A    between atoms: N_10  and  C_11 
REMARK    2  A    between atoms: C_11  and  C_12 
REMARK    3  A    between atoms: C_12  and  C_13 
REMARK    4  A    between atoms: C_13  and  C_14 
REMARK    5  A    between atoms: C_14  and  C_15 
REMARK    6  A    between atoms: C_15  and  P_18 
REMARK    7  A    between atoms: P_18  and  O_19 
REMARK    8  A    between atoms: P_18  and  O_20 
ROOT
HETATM    1  N   UNK N   1      26.857  15.927   5.442  0.00  0.00    -0.234 N 
HETATM    2  C   UNK N   1      27.754  16.442   6.399  0.00  0.00     0.680 A 
HETATM    3  N   UNK N   1      29.075  16.596   6.078  0.00  0.00    -0.174 N 
ATOM      4  HN  UNK N   1      29.424  16.345   5.152  1.00  0.00     0.186 HD
HETATM    5  C   UNK N   1      29.907  17.091   7.029  0.00  0.00     0.156 A 
HETATM    6  C   UNK N   1      29.487  17.428   8.260  0.00  0.00     0.147 A 
HETATM    7  N   UNK N   1      30.529  17.872   8.992  0.00  0.00    -0.345 N 
ATOM      8  HN  UNK N   1      30.521  18.203   9.957  1.00  0.00     0.167 HD
HETATM    9  C   UNK N   1      31.595  17.779   8.149  0.00  0.00     0.185 A 
HETATM   10  N   UNK N   1      31.219  17.304   6.936  0.00  0.00    -0.327 N 
HETATM   11  C   UNK N   1      28.158  17.281   8.605  0.00  0.00     0.290 A 
HETATM   12  O   UNK N   1      27.754  17.573   9.715  0.00  0.00    -0.265 OA
HETATM   13  N   UNK N   1      27.297  16.780   7.650  0.00  0.00    -0.154 N 
HETATM   14  H   UNK N   1      27.124  15.850   4.497  0.00  0.00     0.174 HD
HETATM   15  H   UNK N   1      25.957  15.642   5.719  0.00  0.00     0.174 HD
HETATM   16  H   UNK N   1      26.343  16.665   7.868  0.00  0.00     0.187 HD
ENDROOT
BRANCH  10  17
HETATM   17  C   UNK N   1      32.085  17.037   5.808  0.00  0.00     0.131 C 
BRANCH  17  18
HETATM   18  C   UNK N   1      33.519  17.437   6.105  0.00  0.00     0.020 C 
BRANCH  18  19
HETATM   19  C   UNK N   1      34.389  16.245   6.512  0.00  0.00     0.008 C 
BRANCH  19  20
HETATM   20  C   UNK N   1      34.909  16.247   7.962  0.00  0.00     0.092 C 
BRANCH  20  21
HETATM   21  C   UNK N   1      34.529  15.061   8.862  0.00  0.00     0.337 C 
HETATM   22  F   UNK N   1      33.162  14.879   8.777  0.00  0.00    -0.193 F 
HETATM   23  F   UNK N   1      35.132  13.902   8.419  0.00  0.00    -0.193 F 
BRANCH  21  24
HETATM   24  P   UNK N   1      34.974  15.329  10.654  0.00  0.00     0.309 P 
HETATM   25  O   UNK N   1      36.419  14.862  10.972  0.00  0.00    -0.650 OA
BRANCH  24  26
HETATM   26  O   UNK N   1      33.998  14.408  11.753  0.00  0.00    -0.325 OA
HETATM   27  H   UNK N   1      33.451  13.610  11.675  0.00  0.00     0.220 HD
ENDBRANCH  24  26
BRANCH  24  28
HETATM   28  O   UNK N   1      34.923  16.975  11.196  0.00  0.00    -0.325 OA
HETATM   29  H   UNK N   1      35.433  17.800  11.192  0.00  0.00     0.220 HD
ENDBRANCH  24  28
ENDBRANCH  21  24
ENDBRANCH  20  21
ENDBRANCH  19  20
ENDBRANCH  18  19
ENDBRANCH  17  18
ENDBRANCH  10  17
TORSDOF 8
ENDMDL
MODEL 7
REMARK VINA RESULT:      -5.8     13.928     16.666
REMARK  8 active torsions:
REMARK  status: ('A' for Active; 'I' for Inactive)
REMARK       I    between atoms: N_1  and  C_2 
REMARK    1  A    between atoms: N_10  and  C_11 
REMARK    2  A    between atoms: C_11  and  C_12 
REMARK    3  A    between atoms: C_12  and  C_13 
REMARK    4  A    between atoms: C_13  and  C_14 
REMARK    5  A    between atoms: C_14  and  C_15 
REMARK    6  A    between atoms: C_15  and  P_18 
REMARK    7  A    between atoms: P_18  and  O_19 
REMARK    8  A    between atoms: P_18  and  O_20 
ROOT
HETATM    1  N   UNK N   1      29.696  18.517  10.182  0.00  0.00    -0.234 N 
HETATM    2  C   UNK N   1      29.518  18.292   8.802  0.00  0.00     0.680 A 
HETATM    3  N   UNK N   1      30.441  17.556   8.109  0.00  0.00    -0.174 N 
ATOM      4  HN  UNK N   1      31.259  17.163   8.577  1.00  0.00     0.186 HD
HETATM    5  C   UNK N   1      30.236  17.365   6.782  0.00  0.00     0.156 A 
HETATM    6  C   UNK N   1      29.175  17.869   6.130  0.00  0.00     0.147 A 
HETATM    7  N   UNK N   1      29.241  17.535   4.825  0.00  0.00    -0.345 N 
ATOM      8  HN  UNK N   1      28.579  17.768   4.084  1.00  0.00     0.167 HD
HETATM    9  C   UNK N   1      30.393  16.816   4.720  0.00  0.00     0.185 A 
HETATM   10  N   UNK N   1      31.009  16.702   5.922  0.00  0.00    -0.327 N 
HETATM   11  C   UNK N   1      28.231  18.614   6.809  0.00  0.00     0.290 A 
HETATM   12  O   UNK N   1      27.264  19.086   6.240  0.00  0.00    -0.265 OA
HETATM   13  N   UNK N   1      28.423  18.817   8.160  0.00  0.00    -0.154 N 
HETATM   14  H   UNK N   1      30.367  18.005  10.689  0.00  0.00     0.174 HD
HETATM   15  H   UNK N   1      29.146  19.190  10.641  0.00  0.00     0.174 HD
HETATM   16  H   UNK N   1      27.766  19.344   8.671  0.00  0.00     0.187 HD
ENDROOT
BRANCH  10  17
HETATM   17  C   UNK N   1      32.270  16.043   6.187  0.00  0.00     0.131 C 
BRANCH  17  18
HETATM   18  C   UNK N   1      33.444  16.968   5.917  0.00  0.00     0.020 C 
BRANCH  18  19
HETATM   19  C   UNK N   1      34.107  17.466   7.204  0.00  0.00     0.008 C 
BRANCH  19  20
HETATM   20  C   UNK N   1      33.783  16.676   8.486  0.00  0.00     0.092 C 
BRANCH  20  21
HETATM   21  C   UNK N   1      34.733  15.536   8.885  0.00  0.00     0.337 C 
HETATM   22  F   UNK N   1      34.010  14.360   8.897  0.00  0.00    -0.193 F 
HETATM   23  F   UNK N   1      35.741  15.397   7.954  0.00  0.00    -0.193 F 
BRANCH  21  24
HETATM   24  P   UNK N   1      35.495  15.775  10.572  0.00  0.00     0.309 P 
HETATM   25  O   UNK N   1      35.042  14.682  11.576  0.00  0.00    -0.650 OA
BRANCH  24  26
HETATM   26  O   UNK N   1      35.019  17.256  11.340  0.00  0.00    -0.325 OA
HETATM   27  H   UNK N   1      34.291  17.517  11.926  0.00  0.00     0.220 HD
ENDBRANCH  24  26
BRANCH  24  28
HETATM   28  O   UNK N   1      37.227  15.717  10.622  0.00  0.00    -0.325 OA
HETATM   29  H   UNK N   1      37.970  15.463  11.192  0.00  0.00     0.220 HD
ENDBRANCH  24  28
ENDBRANCH  21  24
ENDBRANCH  20  21
ENDBRANCH  19  20
ENDBRANCH  18  19
ENDBRANCH  17  18
ENDBRANCH  10  17
TORSDOF 8
ENDMDL
MODEL 8
REMARK VINA RESULT:      -5.7     13.753     15.261
REMARK  8 active torsions:
REMARK  status: ('A' for Active; 'I' for Inactive)
REMARK       I    between atoms: N_1  and  C_2 
REMARK    1  A    between atoms: N_10  and  C_11 
REMARK    2  A    between atoms: C_11  and  C_12 
REMARK    3  A    between atoms: C_12  and  C_13 
REMARK    4  A    between atoms: C_13  and  C_14 
REMARK    5  A    between atoms: C_14  and  C_15 
REMARK    6  A    between atoms: C_15  and  P_18 
REMARK    7  A    between atoms: P_18  and  O_19 
REMARK    8  A    between atoms: P_18  and  O_20 
ROOT
HETATM    1  N   UNK N   1      32.485  17.646   9.057  0.00  0.00    -0.234 N 
HETATM    2  C   UNK N   1      31.171  17.552   8.558  0.00  0.00     0.680 A 
HETATM    3  N   UNK N   1      30.961  17.484   7.207  0.00  0.00    -0.174 N 
ATOM      4  HN  UNK N   1      31.743  17.498   6.552  1.00  0.00     0.186 HD
HETATM    5  C   UNK N   1      29.681  17.398   6.767  0.00  0.00     0.156 A 
HETATM    6  C   UNK N   1      28.624  17.382   7.597  0.00  0.00     0.147 A 
HETATM    7  N   UNK N   1      27.483  17.308   6.882  0.00  0.00    -0.345 N 
ATOM      8  HN  UNK N   1      26.525  17.274   7.233  1.00  0.00     0.167 HD
HETATM    9  C   UNK N   1      27.900  17.290   5.586  0.00  0.00     0.185 A 
HETATM   10  N   UNK N   1      29.252  17.340   5.506  0.00  0.00    -0.327 N 
HETATM   11  C   UNK N   1      28.813  17.449   8.964  0.00  0.00     0.290 A 
HETATM   12  O   UNK N   1      27.873  17.441   9.736  0.00  0.00    -0.265 OA
HETATM   13  N   UNK N   1      30.109  17.535   9.430  0.00  0.00    -0.154 N 
HETATM   14  H   UNK N   1      33.257  17.479   8.469  0.00  0.00     0.174 HD
HETATM   15  H   UNK N   1      32.634  17.880  10.001  0.00  0.00     0.174 HD
HETATM   16  H   UNK N   1      30.275  17.584  10.399  0.00  0.00     0.187 HD
ENDROOT
BRANCH  10  17
HETATM   17  C   UNK N   1      30.045  17.377   4.296  0.00  0.00     0.131 C 
BRANCH  17  18
HETATM   18  C   UNK N   1      29.870  16.107   3.482  0.00  0.00     0.020 C 
BRANCH  18  19
HETATM   19  C   UNK N   1      31.164  15.296   3.375  0.00  0.00     0.008 C 
BRANCH  19  20
HETATM   20  C   UNK N   1      32.380  15.851   4.141  0.00  0.00     0.092 C 
BRANCH  20  21
HETATM   21  C   UNK N   1      32.941  15.012   5.300  0.00  0.00     0.337 C 
HETATM   22  F   UNK N   1      31.893  14.677   6.134  0.00  0.00    -0.193 F 
HETATM   23  F   UNK N   1      33.490  13.838   4.827  0.00  0.00    -0.193 F 
BRANCH  21  24
HETATM   24  P   UNK N   1      34.224  15.919   6.305  0.00  0.00     0.309 P 
HETATM   25  O   UNK N   1      35.667  15.614   5.822  0.00  0.00    -0.650 OA
BRANCH  24  26
HETATM   26  O   UNK N   1      34.247  15.453   7.976  0.00  0.00    -0.325 OA
HETATM   27  H   UNK N   1      34.128  15.923   8.817  0.00  0.00     0.220 HD
ENDBRANCH  24  26
BRANCH  24  28
HETATM   28  O   UNK N   1      34.113  17.649   6.269  0.00  0.00    -0.325 OA
HETATM   29  H   UNK N   1      34.166  18.409   5.668  0.00  0.00     0.220 HD
ENDBRANCH  24  28
ENDBRANCH  21  24
ENDBRANCH  20  21
ENDBRANCH  19  20
ENDBRANCH  18  19
ENDBRANCH  17  18
ENDBRANCH  10  17
TORSDOF 8
ENDMDL
MODEL 9
REMARK VINA RESULT:      -5.7     12.389     15.254
REMARK  8 active torsions:
REMARK  status: ('A' for Active; 'I' for Inactive)
REMARK       I    between atoms: N_1  and  C_2 
REMARK    1  A    between atoms: N_10  and  C_11 
REMARK    2  A    between atoms: C_11  and  C_12 
REMARK    3  A    between atoms: C_12  and  C_13 
REMARK    4  A    between atoms: C_13  and  C_14 
REMARK    5  A    between atoms: C_14  and  C_15 
REMARK    6  A    between atoms: C_15  and  P_18 
REMARK    7  A    between atoms: P_18  and  O_19 
REMARK    8  A    between atoms: P_18  and  O_20 
ROOT
HETATM    1  N   UNK N   1      28.339  18.658   9.437  0.00  0.00    -0.234 N 
HETATM    2  C   UNK N   1      28.185  18.713   8.038  0.00  0.00     0.680 A 
HETATM    3  N   UNK N   1      28.772  17.758   7.252  0.00  0.00    -0.174 N 
ATOM      4  HN  UNK N   1      29.321  17.003   7.664  1.00  0.00     0.186 HD
HETATM    5  C   UNK N   1      28.603  17.848   5.909  0.00  0.00     0.156 A 
HETATM    6  C   UNK N   1      27.891  18.829   5.329  0.00  0.00     0.147 A 
HETATM    7  N   UNK N   1      27.908  18.674   3.989  0.00  0.00    -0.345 N 
ATOM      8  HN  UNK N   1      27.455  19.258   3.285  1.00  0.00     0.167 HD
HETATM    9  C   UNK N   1      28.669  17.562   3.790  0.00  0.00     0.185 A 
HETATM   10  N   UNK N   1      29.096  17.044   4.968  0.00  0.00    -0.327 N 
HETATM   11  C   UNK N   1      27.289  19.802   6.103  0.00  0.00     0.290 A 
HETATM   12  O   UNK N   1      26.645  20.705   5.601  0.00  0.00    -0.265 OA
HETATM   13  N   UNK N   1      27.450  19.726   7.471  0.00  0.00    -0.154 N 
HETATM   14  H   UNK N   1      28.703  17.852   9.870  0.00  0.00     0.174 HD
HETATM   15  H   UNK N   1      28.082  19.432   9.988  0.00  0.00     0.174 HD
HETATM   16  H   UNK N   1      27.032  20.406   8.048  0.00  0.00     0.187 HD
ENDROOT
BRANCH  10  17
HETATM   17  C   UNK N   1      29.953  15.891   5.143  0.00  0.00     0.131 C 
BRANCH  17  18
HETATM   18  C   UNK N   1      31.397  16.306   5.364  0.00  0.00     0.020 C 
BRANCH  18  19
HETATM   19  C   UNK N   1      31.876  16.028   6.791  0.00  0.00     0.008 C 
BRANCH  19  20
HETATM   20  C   UNK N   1      32.195  17.264   7.653  0.00  0.00     0.092 C 
BRANCH  20  21
HETATM   21  C   UNK N   1      33.672  17.638   7.853  0.00  0.00     0.337 C 
HETATM   22  F   UNK N   1      34.300  17.571   6.625  0.00  0.00    -0.193 F 
HETATM   23  F   UNK N   1      33.786  18.935   8.309  0.00  0.00    -0.193 F 
BRANCH  21  24
HETATM   24  P   UNK N   1      34.563  16.500   9.032  0.00  0.00     0.309 P 
HETATM   25  O   UNK N   1      33.578  15.687   9.914  0.00  0.00    -0.650 OA
BRANCH  24  26
HETATM   26  O   UNK N   1      35.548  17.338  10.188  0.00  0.00    -0.325 OA
HETATM   27  H   UNK N   1      36.329  17.105  10.715  0.00  0.00     0.220 HD
ENDBRANCH  24  26
BRANCH  24  28
HETATM   28  O   UNK N   1      35.570  15.299   8.290  0.00  0.00    -0.325 OA
HETATM   29  H   UNK N   1      36.499  15.065   8.138  0.00  0.00     0.220 HD
ENDBRANCH  24  28
ENDBRANCH  21  24
ENDBRANCH  20  21
ENDBRANCH  19  20
ENDBRANCH  18  19
ENDBRANCH  17  18
ENDBRANCH  10  17
TORSDOF 8
ENDMDL
