REMARK  9 active torsions:
REMARK  status: ('A' for Active; 'I' for Inactive)
REMARK    1  A    between atoms: C_2  and  N_3 
REMARK    2  A    between atoms: C_6  and  C_7 
REMARK    3  A    between atoms: C_7  and  O_9 
REMARK    4  A    between atoms: O_9  and  C_10 
REMARK    5  A    between atoms: C_13  and  C_14 
REMARK    6  A    between atoms: C_21  and  C_22 
REMARK    7  A    between atoms: C_22  and  O_23 
REMARK    8  A    between atoms: C_25  and  C_26 
REMARK    9  A    between atoms: C_26  and  O_27 
ROOT
HETATM    1  N   UNK N   1       0.838  -0.298  -0.035  0.00  0.00    -0.344 N 
HETATM    2  C   UNK N   1       1.951  -1.077  -0.194  0.00  0.00     0.025 A 
HETATM    3  C   UNK N   1       3.308  -0.410  -0.192  0.00  0.00     0.069 C 
HETATM    4  C   UNK N   1       1.861  -2.482  -0.333  0.00  0.00     0.074 A 
HETATM    5  C   UNK N   1       0.569  -3.104  -0.303  0.00  0.00     0.013 A 
HETATM    6  C   UNK N   1      -0.598  -2.261  -0.212  0.00  0.00     0.083 A 
HETATM    7  C   UNK N   1      -0.437  -0.835  -0.064  0.00  0.00     0.127 A 
ENDROOT
BRANCH   5   8
HETATM    8  C   UNK N   1       0.453  -4.617  -0.432  0.00  0.00    -0.002 A 
HETATM    9  C   UNK N   1       1.219  -5.260  -1.421  0.00  0.00     0.014 A 
HETATM   10  C   UNK N   1       1.174  -6.643  -1.599  0.00  0.00     0.001 A 
HETATM   11  C   UNK N   1       0.349  -7.423  -0.795  0.00  0.00     0.002 A 
HETATM   12  C   UNK N   1      -0.417  -6.822   0.200  0.00  0.00     0.024 A 
HETATM   13  C   UNK N   1      -0.378  -5.437   0.401  0.00  0.00     0.045 A 
HETATM   14 Cl   UNK N   1      -1.315  -4.828   1.762  0.00  0.00    -0.083 Cl
ENDBRANCH   5   8
BRANCH   4  15
HETATM   15  C   UNK N   1       3.150  -3.256  -0.485  0.00  0.00     0.296 C 
HETATM   16  O   UNK N   1       4.077  -2.754  -1.113  0.00  0.00    -0.259 OA
BRANCH  15  17
HETATM   17  O   UNK N   1       3.342  -4.457   0.117  0.00  0.00    -0.313 OA
BRANCH  17  18
HETATM   18  C   UNK N   1       4.545  -5.126  -0.008  0.00  0.00     0.124 C 
HETATM   19  C   UNK N   1       5.414  -4.901   1.215  0.00  0.00     0.040 C 
HETATM   20  C   UNK N   1       4.310  -6.606  -0.216  0.00  0.00     0.040 C 
ENDBRANCH  17  18
ENDBRANCH  15  17
ENDBRANCH   4  15
BRANCH   6  21
HETATM   21  C   UNK N   1      -1.970  -2.871  -0.335  0.00  0.00     0.179 C 
HETATM   22  O   UNK N   1      -2.911  -2.442   0.314  0.00  0.00    -0.646 OA
BRANCH  21  23
HETATM   23  O   UNK N   1      -2.173  -3.934  -1.136  0.00  0.00    -0.773 OA
HETATM   24  H   UNK N   1      -2.884  -4.182  -1.694  0.00  0.00     0.167 HD
ENDBRANCH  21  23
ENDBRANCH   6  21
BRANCH   7  25
HETATM   25  C   UNK N   1      -1.627   0.117  -0.020  0.00  0.00     0.195 C 
HETATM   26  O   UNK N   1      -2.693  -0.183  -0.530  0.00  0.00    -0.645 OA
BRANCH  25  27
HETATM   27  O   UNK N   1      -1.515   1.349   0.511  0.00  0.00    -0.772 OA
HETATM   28  H   UNK N   1      -0.734   1.711   0.881  0.00  0.00     0.167 HD
ENDBRANCH  25  27
ENDBRANCH   7  25
BRANCH   1  29
HETATM   29  C   UNK N   1       1.031   1.156   0.075  0.00  0.00     0.125 C 
HETATM   30  C   UNK N   1       1.615   1.534   1.428  0.00  0.00     0.027 C 
ENDBRANCH   1  29
TORSDOF 9
