MODEL 1
REMARK VINA RESULT:      -8.6      0.000      0.000
REMARK  10 active torsions:
REMARK  status: ('A' for Active; 'I' for Inactive)
REMARK    1  A    between atoms: C_17  and  C_15 
REMARK    2  A    between atoms: C_22  and  C_15 
REMARK    3  A    between atoms: C_24  and  C_20 
REMARK    4  A    between atoms: S_37  and  C_21 
REMARK    5  A    between atoms: C_25  and  C_22 
REMARK    6  A    between atoms: C_22  and  N_30 
REMARK    7  A    between atoms: C_23  and  C_26 
REMARK    8  A    between atoms: N_29  and  C_24 
REMARK       I    between atoms: N_31  and  C_25 
REMARK    9  A    between atoms: O_34  and  C_26 
REMARK   10  A    between atoms: S_37  and  N_30 
ROOT
HETATM    1  C   UNK N   1      20.960  17.197   4.534  0.00  0.00     0.189 C 
ENDROOT
BRANCH   1   2
HETATM    2  C   UNK N   1      21.362  18.654   4.609  0.00  0.00     0.074 C 
BRANCH   2   3
HETATM    3  C   UNK N   1      22.672  19.029   4.020  0.00  0.00    -0.055 A 
HETATM    4  C   UNK N   1      22.860  20.108   3.145  0.00  0.00     0.007 A 
HETATM    5  C   UNK N   1      24.145  20.446   2.713  0.00  0.00     0.002 A 
HETATM    6  C   UNK N   1      25.245  19.721   3.186  0.00  0.00     0.015 A 
HETATM    7  C   UNK N   1      25.046  18.635   4.056  0.00  0.00     0.007 A 
HETATM    8  C   UNK N   1      23.760  18.299   4.450  0.00  0.00     0.022 A 
BRANCH   7   9
HETATM    9  C   UNK N   1      26.167  17.874   4.622  0.00  0.00     0.102 C 
HETATM   10  N   UNK N   1      26.467  17.987   5.862  0.00  0.00    -0.385 N 
HETATM   11  H   UNK N   1      25.874  18.463   6.488  0.00  0.00     0.157 HD
ATOM     12  HN  UNK N   1      27.334  17.577   6.207  1.00  0.00     0.157 HD
BRANCH   9  13
HETATM   13  N   UNK N   1      26.852  16.929   3.821  0.00  0.00    -0.385 N 
HETATM   14  H   UNK N   1      27.363  17.227   3.035  0.00  0.00     0.157 HD
HETATM   15  H   UNK N   1      26.816  15.972   4.052  0.00  0.00     0.157 HD
ENDBRANCH   9  13
ENDBRANCH   7   9
ENDBRANCH   2   3
ENDBRANCH   1   2
BRANCH   1  16
HETATM   16  C   UNK N   1      20.392  16.855   3.160  0.00  0.00     0.244 C 
HETATM   17  N   UNK N   1      21.048  16.064   2.228  0.00  0.00    -0.336 N 
HETATM   18  C   UNK N   1      22.130  15.210   2.662  0.00  0.00     0.127 C 
HETATM   19  C   UNK N   1      20.407  15.600   1.008  0.00  0.00     0.185 C 
HETATM   20  C   UNK N   1      21.492  13.852   3.045  0.00  0.00     0.020 C 
HETATM   21  C   UNK N   1      20.468  13.326   2.006  0.00  0.00     0.004 C 
HETATM   22  C   UNK N   1      19.540  14.412   1.411  0.00  0.00     0.036 C 
HETATM   23  O   UNK N   1      19.263  17.268   2.909  0.00  0.00    -0.271 OA
BRANCH  19  24
HETATM   24  C   UNK N   1      19.728  16.658   0.168  0.00  0.00     0.163 C 
HETATM   25  O   UNK N   1      20.390  17.563  -0.310  0.00  0.00    -0.648 OA
BRANCH  24  26
HETATM   26  O   UNK N   1      18.389  16.679   0.029  0.00  0.00    -0.775 OA
HETATM   27  H   UNK N   1      17.963  16.043  -0.513  0.00  0.00     0.167 HD
ENDBRANCH  24  26
ENDBRANCH  19  24
ENDBRANCH   1  16
BRANCH   1  28
HETATM   28  N   UNK N   1      20.000  16.908   5.596  0.00  0.00    -0.301 N 
HETATM   29  H   UNK N   1      18.994  16.799   5.466  0.00  0.00     0.173 HD
BRANCH  28  30
HETATM   30  S   UNK N   1      20.851  16.773   7.151  0.00  0.00     0.259 S 
HETATM   31  O   UNK N   1      20.315  17.778   8.181  0.00  0.00    -0.201 OA
HETATM   32  O   UNK N   1      19.578  15.998   7.529  0.00  0.00    -0.201 OA
BRANCH  30  33
HETATM   33  C   UNK N   1      21.516  15.210   7.629  0.00  0.00     0.080 A 
HETATM   34  C   UNK N   1      22.743  14.753   7.128  0.00  0.00     0.026 A 
HETATM   35  C   UNK N   1      23.390  13.687   7.760  0.00  0.00     0.014 A 
HETATM   36  C   UNK N   1      22.820  13.114   8.904  0.00  0.00    -0.026 A 
HETATM   37  C   UNK N   1      23.507  12.137   9.623  0.00  0.00     0.012 A 
HETATM   38  C   UNK N   1      21.560  13.555   9.364  0.00  0.00    -0.025 A 
HETATM   39  C   UNK N   1      22.947  11.610  10.794  0.00  0.00     0.001 A 
HETATM   40  C   UNK N   1      21.691  12.041  11.233  0.00  0.00     0.001 A 
HETATM   41  C   UNK N   1      20.996  13.013  10.515  0.00  0.00     0.012 A 
HETATM   42  C   UNK N   1      20.917  14.592   8.720  0.00  0.00     0.037 A 
ENDBRANCH  30  33
ENDBRANCH  28  30
ENDBRANCH   1  28
TORSDOF 10
ENDMDL
MODEL 2
REMARK VINA RESULT:      -8.6     13.269     15.619
REMARK  10 active torsions:
REMARK  status: ('A' for Active; 'I' for Inactive)
REMARK    1  A    between atoms: C_17  and  C_15 
REMARK    2  A    between atoms: C_22  and  C_15 
REMARK    3  A    between atoms: C_24  and  C_20 
REMARK    4  A    between atoms: S_37  and  C_21 
REMARK    5  A    between atoms: C_25  and  C_22 
REMARK    6  A    between atoms: C_22  and  N_30 
REMARK    7  A    between atoms: C_23  and  C_26 
REMARK    8  A    between atoms: N_29  and  C_24 
REMARK       I    between atoms: N_31  and  C_25 
REMARK    9  A    between atoms: O_34  and  C_26 
REMARK   10  A    between atoms: S_37  and  N_30 
ROOT
HETATM    1  C   UNK N   1      26.669  24.914  -6.235  0.00  0.00     0.189 C 
ENDROOT
BRANCH   1   2
HETATM    2  C   UNK N   1      26.085  26.226  -6.712  0.00  0.00     0.074 C 
BRANCH   2   3
HETATM    3  C   UNK N   1      26.872  27.457  -6.444  0.00  0.00    -0.055 A 
HETATM    4  C   UNK N   1      27.797  28.008  -7.341  0.00  0.00     0.007 A 
HETATM    5  C   UNK N   1      28.423  29.222  -7.046  0.00  0.00     0.002 A 
HETATM    6  C   UNK N   1      28.095  29.899  -5.866  0.00  0.00     0.015 A 
HETATM    7  C   UNK N   1      27.173  29.333  -4.968  0.00  0.00     0.007 A 
HETATM    8  C   UNK N   1      26.584  28.114  -5.266  0.00  0.00     0.022 A 
BRANCH   7   9
HETATM    9  C   UNK N   1      26.755  30.024  -3.741  0.00  0.00     0.102 C 
HETATM   10  N   UNK N   1      25.991  31.050  -3.803  0.00  0.00    -0.385 N 
HETATM   11  H   UNK N   1      25.552  31.309  -4.646  0.00  0.00     0.157 HD
ATOM     12  HN  UNK N   1      25.834  31.610  -2.965  1.00  0.00     0.157 HD
BRANCH   9  13
HETATM   13  N   UNK N   1      27.107  29.491  -2.478  0.00  0.00    -0.385 N 
HETATM   14  H   UNK N   1      27.971  29.722  -2.069  0.00  0.00     0.157 HD
HETATM   15  H   UNK N   1      26.486  28.888  -2.009  0.00  0.00     0.157 HD
ENDBRANCH   9  13
ENDBRANCH   7   9
ENDBRANCH   2   3
ENDBRANCH   1   2
BRANCH   1  16
HETATM   16  C   UNK N   1      26.439  23.807  -7.258  0.00  0.00     0.244 C 
HETATM   17  N   UNK N   1      27.421  23.331  -8.115  0.00  0.00    -0.336 N 
HETATM   18  C   UNK N   1      28.810  23.594  -7.813  0.00  0.00     0.127 C 
HETATM   19  C   UNK N   1      27.230  22.152  -8.945  0.00  0.00     0.185 C 
HETATM   20  C   UNK N   1      29.302  22.413  -6.940  0.00  0.00     0.020 C 
HETATM   21  C   UNK N   1      28.884  21.020  -7.478  0.00  0.00     0.004 C 
HETATM   22  C   UNK N   1      27.440  20.951  -8.030  0.00  0.00     0.036 C 
HETATM   23  O   UNK N   1      25.328  23.283  -7.268  0.00  0.00    -0.271 OA
BRANCH  19  24
HETATM   24  C   UNK N   1      25.974  22.129  -9.788  0.00  0.00     0.163 C 
HETATM   25  O   UNK N   1      25.867  22.896 -10.729  0.00  0.00    -0.648 OA
BRANCH  24  26
HETATM   26  O   UNK N   1      24.929  21.350  -9.452  0.00  0.00    -0.775 OA
HETATM   27  H   UNK N   1      24.110  21.740  -9.212  0.00  0.00     0.167 HD
ENDBRANCH  24  26
ENDBRANCH  19  24
ENDBRANCH   1  16
BRANCH   1  28
HETATM   28  N   UNK N   1      26.087  24.572  -4.938  0.00  0.00    -0.301 N 
HETATM   29  H   UNK N   1      25.217  24.059  -4.802  0.00  0.00     0.173 HD
BRANCH  28  30
HETATM   30  S   UNK N   1      27.127  25.188  -3.635  0.00  0.00     0.259 S 
HETATM   31  O   UNK N   1      26.308  25.866  -2.527  0.00  0.00    -0.201 OA
HETATM   32  O   UNK N   1      26.645  23.903  -2.943  0.00  0.00    -0.201 OA
BRANCH  30  33
HETATM   33  C   UNK N   1      28.654  24.371  -3.301  0.00  0.00     0.080 A 
HETATM   34  C   UNK N   1      28.703  23.191  -2.545  0.00  0.00     0.026 A 
HETATM   35  C   UNK N   1      29.857  22.404  -2.573  0.00  0.00     0.014 A 
HETATM   36  C   UNK N   1      30.935  22.785  -3.382  0.00  0.00    -0.026 A 
HETATM   37  C   UNK N   1      32.044  21.952  -3.524  0.00  0.00     0.012 A 
HETATM   38  C   UNK N   1      30.886  24.002  -4.097  0.00  0.00    -0.025 A 
HETATM   39  C   UNK N   1      33.091  22.324  -4.376  0.00  0.00     0.001 A 
HETATM   40  C   UNK N   1      33.042  23.539  -5.069  0.00  0.00     0.001 A 
HETATM   41  C   UNK N   1      31.938  24.379  -4.926  0.00  0.00     0.012 A 
HETATM   42  C   UNK N   1      29.752  24.785  -4.046  0.00  0.00     0.037 A 
ENDBRANCH  30  33
ENDBRANCH  28  30
ENDBRANCH   1  28
TORSDOF 10
ENDMDL
MODEL 3
REMARK VINA RESULT:      -8.4     13.162     15.816
REMARK  10 active torsions:
REMARK  status: ('A' for Active; 'I' for Inactive)
REMARK    1  A    between atoms: C_17  and  C_15 
REMARK    2  A    between atoms: C_22  and  C_15 
REMARK    3  A    between atoms: C_24  and  C_20 
REMARK    4  A    between atoms: S_37  and  C_21 
REMARK    5  A    between atoms: C_25  and  C_22 
REMARK    6  A    between atoms: C_22  and  N_30 
REMARK    7  A    between atoms: C_23  and  C_26 
REMARK    8  A    between atoms: N_29  and  C_24 
REMARK       I    between atoms: N_31  and  C_25 
REMARK    9  A    between atoms: O_34  and  C_26 
REMARK   10  A    between atoms: S_37  and  N_30 
ROOT
HETATM    1  C   UNK N   1      26.634  24.746  -6.333  0.00  0.00     0.189 C 
ENDROOT
BRANCH   1   2
HETATM    2  C   UNK N   1      25.928  26.018  -6.750  0.00  0.00     0.074 C 
BRANCH   2   3
HETATM    3  C   UNK N   1      26.708  27.280  -6.685  0.00  0.00    -0.055 A 
HETATM    4  C   UNK N   1      26.633  28.196  -5.627  0.00  0.00     0.007 A 
HETATM    5  C   UNK N   1      27.474  29.311  -5.602  0.00  0.00     0.002 A 
HETATM    6  C   UNK N   1      28.413  29.489  -6.624  0.00  0.00     0.015 A 
HETATM    7  C   UNK N   1      28.475  28.571  -7.686  0.00  0.00     0.007 A 
HETATM    8  C   UNK N   1      27.613  27.485  -7.705  0.00  0.00     0.022 A 
BRANCH   7   9
HETATM    9  C   UNK N   1      29.475  28.681  -8.755  0.00  0.00     0.102 C 
HETATM   10  N   UNK N   1      30.710  28.871  -8.473  0.00  0.00    -0.385 N 
HETATM   11  H   UNK N   1      31.036  28.801  -7.546  0.00  0.00     0.157 HD
ATOM     12  HN  UNK N   1      31.366  29.098  -9.219  1.00  0.00     0.157 HD
BRANCH   9  13
HETATM   13  N   UNK N   1      29.092  28.467 -10.101  0.00  0.00    -0.385 N 
HETATM   14  H   UNK N   1      28.667  29.192 -10.614  0.00  0.00     0.157 HD
HETATM   15  H   UNK N   1      29.252  27.593 -10.525  0.00  0.00     0.157 HD
ENDBRANCH   9  13
ENDBRANCH   7   9
ENDBRANCH   2   3
ENDBRANCH   1   2
BRANCH   1  16
HETATM   16  C   UNK N   1      26.426  23.641  -7.364  0.00  0.00     0.244 C 
HETATM   17  N   UNK N   1      27.428  23.162  -8.196  0.00  0.00    -0.336 N 
HETATM   18  C   UNK N   1      28.810  23.420  -7.858  0.00  0.00     0.127 C 
HETATM   19  C   UNK N   1      27.254  21.985  -9.032  0.00  0.00     0.185 C 
HETATM   20  C   UNK N   1      29.275  22.236  -6.974  0.00  0.00     0.020 C 
HETATM   21  C   UNK N   1      28.866  20.844  -7.524  0.00  0.00     0.004 C 
HETATM   22  C   UNK N   1      27.436  20.782  -8.113  0.00  0.00     0.036 C 
HETATM   23  O   UNK N   1      25.314  23.121  -7.403  0.00  0.00    -0.271 OA
BRANCH  19  24
HETATM   24  C   UNK N   1      26.021  21.967  -9.907  0.00  0.00     0.163 C 
HETATM   25  O   UNK N   1      25.883  22.818 -10.770  0.00  0.00    -0.648 OA
BRANCH  24  26
HETATM   26  O   UNK N   1      25.022  21.094  -9.680  0.00  0.00    -0.775 OA
HETATM   27  H   UNK N   1      24.782  20.473 -10.340  0.00  0.00     0.167 HD
ENDBRANCH  24  26
ENDBRANCH  19  24
ENDBRANCH   1  16
BRANCH   1  28
HETATM   28  N   UNK N   1      26.156  24.341  -5.013  0.00  0.00    -0.301 N 
HETATM   29  H   UNK N   1      25.365  23.722  -4.838  0.00  0.00     0.173 HD
BRANCH  28  30
HETATM   30  S   UNK N   1      27.164  25.093  -3.756  0.00  0.00     0.259 S 
HETATM   31  O   UNK N   1      26.321  25.909  -2.765  0.00  0.00    -0.201 OA
HETATM   32  O   UNK N   1      26.636  23.906  -2.935  0.00  0.00    -0.201 OA
BRANCH  30  33
HETATM   33  C   UNK N   1      28.664  24.300  -3.276  0.00  0.00     0.080 A 
HETATM   34  C   UNK N   1      28.678  23.285  -2.308  0.00  0.00     0.026 A 
HETATM   35  C   UNK N   1      29.804  22.466  -2.187  0.00  0.00     0.014 A 
HETATM   36  C   UNK N   1      30.887  22.647  -3.056  0.00  0.00    -0.026 A 
HETATM   37  C   UNK N   1      31.965  21.762  -3.039  0.00  0.00     0.012 A 
HETATM   38  C   UNK N   1      30.875  23.705  -3.992  0.00  0.00    -0.025 A 
HETATM   39  C   UNK N   1      33.017  21.926  -3.949  0.00  0.00     0.001 A 
HETATM   40  C   UNK N   1      33.004  22.987  -4.861  0.00  0.00     0.001 A 
HETATM   41  C   UNK N   1      31.932  23.878  -4.879  0.00  0.00     0.012 A 
HETATM   42  C   UNK N   1      29.770  24.524  -4.088  0.00  0.00     0.037 A 
ENDBRANCH  30  33
ENDBRANCH  28  30
ENDBRANCH   1  28
TORSDOF 10
ENDMDL
MODEL 4
REMARK VINA RESULT:      -8.3      8.060     11.690
REMARK  10 active torsions:
REMARK  status: ('A' for Active; 'I' for Inactive)
REMARK    1  A    between atoms: C_17  and  C_15 
REMARK    2  A    between atoms: C_22  and  C_15 
REMARK    3  A    between atoms: C_24  and  C_20 
REMARK    4  A    between atoms: S_37  and  C_21 
REMARK    5  A    between atoms: C_25  and  C_22 
REMARK    6  A    between atoms: C_22  and  N_30 
REMARK    7  A    between atoms: C_23  and  C_26 
REMARK    8  A    between atoms: N_29  and  C_24 
REMARK       I    between atoms: N_31  and  C_25 
REMARK    9  A    between atoms: O_34  and  C_26 
REMARK   10  A    between atoms: S_37  and  N_30 
ROOT
HETATM    1  C   UNK N   1      32.845  16.108   5.498  0.00  0.00     0.189 C 
ENDROOT
BRANCH   1   2
HETATM    2  C   UNK N   1      32.007  17.360   5.355  0.00  0.00     0.074 C 
BRANCH   2   3
HETATM    3  C   UNK N   1      30.606  17.298   5.843  0.00  0.00    -0.055 A 
HETATM    4  C   UNK N   1      30.194  16.548   6.953  0.00  0.00     0.007 A 
HETATM    5  C   UNK N   1      28.873  16.624   7.401  0.00  0.00     0.002 A 
HETATM    6  C   UNK N   1      27.973  17.479   6.753  0.00  0.00     0.015 A 
HETATM    7  C   UNK N   1      28.393  18.220   5.635  0.00  0.00     0.007 A 
HETATM    8  C   UNK N   1      29.702  18.109   5.191  0.00  0.00     0.022 A 
BRANCH   7   9
HETATM    9  C   UNK N   1      27.506  19.169   4.951  0.00  0.00     0.102 C 
HETATM   10  N   UNK N   1      27.867  19.717   3.851  0.00  0.00    -0.385 N 
HETATM   11  H   UNK N   1      28.668  19.410   3.368  0.00  0.00     0.157 HD
ATOM     12  HN  UNK N   1      27.315  20.485   3.468  1.00  0.00     0.157 HD
BRANCH   9  13
HETATM   13  N   UNK N   1      26.201  19.399   5.450  0.00  0.00    -0.385 N 
HETATM   14  H   UNK N   1      26.042  19.421   6.420  0.00  0.00     0.157 HD
HETATM   15  H   UNK N   1      25.454  19.537   4.825  0.00  0.00     0.157 HD
ENDBRANCH   9  13
ENDBRANCH   7   9
ENDBRANCH   2   3
ENDBRANCH   1   2
BRANCH   1  16
HETATM   16  C   UNK N   1      33.705  16.164   6.756  0.00  0.00     0.244 C 
HETATM   17  N   UNK N   1      33.577  15.283   7.819  0.00  0.00    -0.336 N 
HETATM   18  C   UNK N   1      32.882  14.031   7.620  0.00  0.00     0.127 C 
HETATM   19  C   UNK N   1      34.529  15.239   8.918  0.00  0.00     0.185 C 
HETATM   20  C   UNK N   1      33.951  13.001   7.175  0.00  0.00     0.020 C 
HETATM   21  C   UNK N   1      35.245  13.033   8.029  0.00  0.00     0.004 C 
HETATM   22  C   UNK N   1      35.731  14.453   8.406  0.00  0.00     0.036 C 
HETATM   23  O   UNK N   1      34.593  17.012   6.783  0.00  0.00    -0.271 OA
BRANCH  19  24
HETATM   24  C   UNK N   1      34.839  16.562   9.582  0.00  0.00     0.163 C 
HETATM   25  O   UNK N   1      35.879  16.693  10.206  0.00  0.00    -0.648 OA
BRANCH  24  26
HETATM   26  O   UNK N   1      33.939  17.563   9.587  0.00  0.00    -0.775 OA
HETATM   27  H   UNK N   1      33.797  18.070   8.812  0.00  0.00     0.167 HD
ENDBRANCH  24  26
ENDBRANCH  19  24
ENDBRANCH   1  16
BRANCH   1  28
HETATM   28  N   UNK N   1      33.663  15.938   4.299  0.00  0.00    -0.301 N 
HETATM   29  H   UNK N   1      34.629  16.249   4.197  0.00  0.00     0.173 HD
BRANCH  28  30
HETATM   30  S   UNK N   1      32.719  15.106   3.043  0.00  0.00     0.259 S 
HETATM   31  O   UNK N   1      33.623  14.341   2.066  0.00  0.00    -0.201 OA
HETATM   32  O   UNK N   1      32.996  13.895   3.949  0.00  0.00    -0.201 OA
BRANCH  30  33
HETATM   33  C   UNK N   1      31.083  14.564   3.423  0.00  0.00     0.080 A 
HETATM   34  C   UNK N   1      30.837  13.643   4.451  0.00  0.00     0.026 A 
HETATM   35  C   UNK N   1      29.536  13.486   4.936  0.00  0.00     0.014 A 
HETATM   36  C   UNK N   1      28.503  14.275   4.413  0.00  0.00    -0.026 A 
HETATM   37  C   UNK N   1      27.224  14.226   4.967  0.00  0.00     0.012 A 
HETATM   38  C   UNK N   1      28.761  15.161   3.344  0.00  0.00    -0.025 A 
HETATM   39  C   UNK N   1      26.215  15.059   4.466  0.00  0.00     0.001 A 
HETATM   40  C   UNK N   1      26.476  15.921   3.396  0.00  0.00     0.001 A 
HETATM   41  C   UNK N   1      27.751  15.970   2.834  0.00  0.00     0.012 A 
HETATM   42  C   UNK N   1      30.044  15.293   2.855  0.00  0.00     0.037 A 
ENDBRANCH  30  33
ENDBRANCH  28  30
ENDBRANCH   1  28
TORSDOF 10
ENDMDL
MODEL 5
REMARK VINA RESULT:      -8.1     13.787     16.451
REMARK  10 active torsions:
REMARK  status: ('A' for Active; 'I' for Inactive)
REMARK    1  A    between atoms: C_17  and  C_15 
REMARK    2  A    between atoms: C_22  and  C_15 
REMARK    3  A    between atoms: C_24  and  C_20 
REMARK    4  A    between atoms: S_37  and  C_21 
REMARK    5  A    between atoms: C_25  and  C_22 
REMARK    6  A    between atoms: C_22  and  N_30 
REMARK    7  A    between atoms: C_23  and  C_26 
REMARK    8  A    between atoms: N_29  and  C_24 
REMARK       I    between atoms: N_31  and  C_25 
REMARK    9  A    between atoms: O_34  and  C_26 
REMARK   10  A    between atoms: S_37  and  N_30 
ROOT
HETATM    1  C   UNK N   1      27.695  24.995  -4.618  0.00  0.00     0.189 C 
ENDROOT
BRANCH   1   2
HETATM    2  C   UNK N   1      28.070  24.045  -3.501  0.00  0.00     0.074 C 
BRANCH   2   3
HETATM    3  C   UNK N   1      29.445  23.487  -3.516  0.00  0.00    -0.055 A 
HETATM    4  C   UNK N   1      29.767  22.178  -3.130  0.00  0.00     0.007 A 
HETATM    5  C   UNK N   1      31.074  21.706  -3.267  0.00  0.00     0.002 A 
HETATM    6  C   UNK N   1      32.053  22.538  -3.823  0.00  0.00     0.015 A 
HETATM    7  C   UNK N   1      31.724  23.852  -4.198  0.00  0.00     0.007 A 
HETATM    8  C   UNK N   1      30.426  24.310  -4.028  0.00  0.00     0.022 A 
BRANCH   7   9
HETATM    9  C   UNK N   1      32.698  24.749  -4.833  0.00  0.00     0.102 C 
HETATM   10  N   UNK N   1      32.456  26.002  -4.935  0.00  0.00    -0.385 N 
HETATM   11  H   UNK N   1      31.692  26.413  -4.468  0.00  0.00     0.157 HD
ATOM     12  HN  UNK N   1      33.063  26.586  -5.510  1.00  0.00     0.157 HD
BRANCH   9  13
HETATM   13  N   UNK N   1      33.959  24.247  -5.235  0.00  0.00    -0.385 N 
HETATM   14  H   UNK N   1      34.639  24.023  -4.561  0.00  0.00     0.157 HD
HETATM   15  H   UNK N   1      34.155  24.122  -6.192  0.00  0.00     0.157 HD
ENDBRANCH   9  13
ENDBRANCH   7   9
ENDBRANCH   2   3
ENDBRANCH   1   2
BRANCH   1  16
HETATM   16  C   UNK N   1      27.755  26.445  -4.148  0.00  0.00     0.244 C 
HETATM   17  N   UNK N   1      28.657  27.379  -4.636  0.00  0.00    -0.336 N 
HETATM   18  C   UNK N   1      29.329  27.124  -5.890  0.00  0.00     0.127 C 
HETATM   19  C   UNK N   1      28.570  28.794  -4.312  0.00  0.00     0.185 C 
HETATM   20  C   UNK N   1      28.432  27.728  -7.000  0.00  0.00     0.020 C 
HETATM   21  C   UNK N   1      27.917  29.156  -6.681  0.00  0.00     0.004 C 
HETATM   22  C   UNK N   1      27.481  29.368  -5.212  0.00  0.00     0.036 C 
HETATM   23  O   UNK N   1      26.909  26.798  -3.330  0.00  0.00    -0.271 OA
BRANCH  19  24
HETATM   24  C   UNK N   1      28.459  29.134  -2.842  0.00  0.00     0.163 C 
HETATM   25  O   UNK N   1      29.463  29.146  -2.150  0.00  0.00    -0.648 OA
BRANCH  24  26
HETATM   26  O   UNK N   1      27.258  29.319  -2.262  0.00  0.00    -0.775 OA
HETATM   27  H   UNK N   1      26.986  30.180  -2.009  0.00  0.00     0.167 HD
ENDBRANCH  24  26
ENDBRANCH  19  24
ENDBRANCH   1  16
BRANCH   1  28
HETATM   28  N   UNK N   1      26.367  24.649  -5.118  0.00  0.00    -0.301 N 
HETATM   29  H   UNK N   1      25.494  25.084  -4.817  0.00  0.00     0.173 HD
BRANCH  28  30
HETATM   30  S   UNK N   1      26.502  23.357  -6.330  0.00  0.00     0.259 S 
HETATM   31  O   UNK N   1      25.206  23.199  -7.139  0.00  0.00    -0.201 OA
HETATM   32  O   UNK N   1      26.714  24.558  -7.265  0.00  0.00    -0.201 OA
BRANCH  30  33
HETATM   33  C   UNK N   1      28.084  22.994  -7.020  0.00  0.00     0.080 A 
HETATM   34  C   UNK N   1      28.879  23.995  -7.595  0.00  0.00     0.026 A 
HETATM   35  C   UNK N   1      30.234  23.746  -7.831  0.00  0.00     0.014 A 
HETATM   36  C   UNK N   1      30.786  22.514  -7.460  0.00  0.00    -0.026 A 
HETATM   37  C   UNK N   1      32.158  22.290  -7.568  0.00  0.00     0.012 A 
HETATM   38  C   UNK N   1      29.958  21.500  -6.928  0.00  0.00    -0.025 A 
HETATM   39  C   UNK N   1      32.701  21.070  -7.145  0.00  0.00     0.001 A 
HETATM   40  C   UNK N   1      31.872  20.066  -6.635  0.00  0.00     0.001 A 
HETATM   41  C   UNK N   1      30.499  20.281  -6.529  0.00  0.00     0.012 A 
HETATM   42  C   UNK N   1      28.617  21.745  -6.720  0.00  0.00     0.037 A 
ENDBRANCH  30  33
ENDBRANCH  28  30
ENDBRANCH   1  28
TORSDOF 10
ENDMDL
MODEL 6
REMARK VINA RESULT:      -8.1     13.097     16.237
REMARK  10 active torsions:
REMARK  status: ('A' for Active; 'I' for Inactive)
REMARK    1  A    between atoms: C_17  and  C_15 
REMARK    2  A    between atoms: C_22  and  C_15 
REMARK    3  A    between atoms: C_24  and  C_20 
REMARK    4  A    between atoms: S_37  and  C_21 
REMARK    5  A    between atoms: C_25  and  C_22 
REMARK    6  A    between atoms: C_22  and  N_30 
REMARK    7  A    between atoms: C_23  and  C_26 
REMARK    8  A    between atoms: N_29  and  C_24 
REMARK       I    between atoms: N_31  and  C_25 
REMARK    9  A    between atoms: O_34  and  C_26 
REMARK   10  A    between atoms: S_37  and  N_30 
ROOT
HETATM    1  C   UNK N   1      36.528  13.501  11.629  0.00  0.00     0.189 C 
ENDROOT
BRANCH   1   2
HETATM    2  C   UNK N   1      36.100  14.942  11.451  0.00  0.00     0.074 C 
BRANCH   2   3
HETATM    3  C   UNK N   1      34.970  15.206  10.525  0.00  0.00    -0.055 A 
HETATM    4  C   UNK N   1      33.763  14.494  10.535  0.00  0.00     0.007 A 
HETATM    5  C   UNK N   1      32.717  14.873   9.691  0.00  0.00     0.002 A 
HETATM    6  C   UNK N   1      32.872  15.987   8.857  0.00  0.00     0.015 A 
HETATM    7  C   UNK N   1      34.089  16.688   8.846  0.00  0.00     0.007 A 
HETATM    8  C   UNK N   1      35.125  16.279   9.673  0.00  0.00     0.022 A 
BRANCH   7   9
HETATM    9  C   UNK N   1      34.288  17.893   8.030  0.00  0.00     0.102 C 
HETATM   10  N   UNK N   1      33.736  17.996   6.879  0.00  0.00    -0.385 N 
HETATM   11  H   UNK N   1      33.058  17.347   6.580  0.00  0.00     0.157 HD
ATOM     12  HN  UNK N   1      34.003  18.762   6.261  1.00  0.00     0.157 HD
BRANCH   9  13
HETATM   13  N   UNK N   1      35.003  18.993   8.562  0.00  0.00    -0.385 N 
HETATM   14  H   UNK N   1      34.815  19.904   8.242  0.00  0.00     0.157 HD
HETATM   15  H   UNK N   1      35.688  18.845   9.253  0.00  0.00     0.157 HD
ENDBRANCH   9  13
ENDBRANCH   7   9
ENDBRANCH   2   3
ENDBRANCH   1   2
BRANCH   1  16
HETATM   16  C   UNK N   1      36.137  12.979  13.007  0.00  0.00     0.244 C 
HETATM   17  N   UNK N   1      35.085  12.101  13.231  0.00  0.00    -0.336 N 
HETATM   18  C   UNK N   1      34.553  11.339  12.125  0.00  0.00     0.127 C 
HETATM   19  C   UNK N   1      34.853  11.473  14.523  0.00  0.00     0.185 C 
HETATM   20  C   UNK N   1      35.361  10.019  12.071  0.00  0.00     0.020 C 
HETATM   21  C   UNK N   1      35.543   9.340  13.454  0.00  0.00     0.004 C 
HETATM   22  C   UNK N   1      35.843  10.317  14.615  0.00  0.00     0.036 C 
HETATM   23  O   UNK N   1      36.842  13.324  13.952  0.00  0.00    -0.271 OA
BRANCH  19  24
HETATM   24  C   UNK N   1      34.808  12.402  15.716  0.00  0.00     0.163 C 
HETATM   25  O   UNK N   1      33.879  13.182  15.836  0.00  0.00    -0.648 OA
BRANCH  24  26
HETATM   26  O   UNK N   1      35.830  12.457  16.590  0.00  0.00    -0.775 OA
HETATM   27  H   UNK N   1      36.021  11.718  17.135  0.00  0.00     0.167 HD
ENDBRANCH  24  26
ENDBRANCH  19  24
ENDBRANCH   1  16
BRANCH   1  28
HETATM   28  N   UNK N   1      37.968  13.397  11.407  0.00  0.00    -0.301 N 
HETATM   29  H   UNK N   1      38.682  13.489  12.129  0.00  0.00     0.173 HD
BRANCH  28  30
HETATM   30  S   UNK N   1      38.287  13.084   9.686  0.00  0.00     0.259 S 
HETATM   31  O   UNK N   1      39.659  12.428   9.473  0.00  0.00    -0.201 OA
HETATM   32  O   UNK N   1      37.882  11.660  10.098  0.00  0.00    -0.201 OA
BRANCH  30  33
HETATM   33  C   UNK N   1      36.926  12.777   8.607  0.00  0.00     0.080 A 
HETATM   34  C   UNK N   1      35.954  11.813   8.911  0.00  0.00     0.026 A 
HETATM   35  C   UNK N   1      34.739  11.819   8.220  0.00  0.00     0.014 A 
HETATM   36  C   UNK N   1      34.497  12.808   7.258  0.00  0.00    -0.026 A 
HETATM   37  C   UNK N   1      33.247  12.912   6.648  0.00  0.00     0.012 A 
HETATM   38  C   UNK N   1      35.506  13.740   6.930  0.00  0.00    -0.025 A 
HETATM   39  C   UNK N   1      33.004  13.938   5.726  0.00  0.00     0.001 A 
HETATM   40  C   UNK N   1      34.015  14.846   5.396  0.00  0.00     0.001 A 
HETATM   41  C   UNK N   1      35.268  14.744   5.998  0.00  0.00     0.012 A 
HETATM   42  C   UNK N   1      36.711  13.712   7.601  0.00  0.00     0.037 A 
ENDBRANCH  30  33
ENDBRANCH  28  30
ENDBRANCH   1  28
TORSDOF 10
ENDMDL
MODEL 7
REMARK VINA RESULT:      -8.0      3.662      7.577
REMARK  10 active torsions:
REMARK  status: ('A' for Active; 'I' for Inactive)
REMARK    1  A    between atoms: C_17  and  C_15 
REMARK    2  A    between atoms: C_22  and  C_15 
REMARK    3  A    between atoms: C_24  and  C_20 
REMARK    4  A    between atoms: S_37  and  C_21 
REMARK    5  A    between atoms: C_25  and  C_22 
REMARK    6  A    between atoms: C_22  and  N_30 
REMARK    7  A    between atoms: C_23  and  C_26 
REMARK    8  A    between atoms: N_29  and  C_24 
REMARK       I    between atoms: N_31  and  C_25 
REMARK    9  A    between atoms: O_34  and  C_26 
REMARK   10  A    between atoms: S_37  and  N_30 
ROOT
HETATM    1  C   UNK N   1      25.168  14.351   5.553  0.00  0.00     0.189 C 
ENDROOT
BRANCH   1   2
HETATM    2  C   UNK N   1      26.678  14.248   5.549  0.00  0.00     0.074 C 
BRANCH   2   3
HETATM    3  C   UNK N   1      27.442  15.443   5.990  0.00  0.00    -0.055 A 
HETATM    4  C   UNK N   1      27.017  16.318   6.999  0.00  0.00     0.007 A 
HETATM    5  C   UNK N   1      27.844  17.364   7.416  0.00  0.00     0.002 A 
HETATM    6  C   UNK N   1      29.112  17.511   6.842  0.00  0.00     0.015 A 
HETATM    7  C   UNK N   1      29.526  16.635   5.824  0.00  0.00     0.007 A 
HETATM    8  C   UNK N   1      28.678  15.620   5.406  0.00  0.00     0.022 A 
BRANCH   7   9
HETATM    9  C   UNK N   1      30.864  16.712   5.224  0.00  0.00     0.102 C 
HETATM   10  N   UNK N   1      31.809  15.958   5.647  0.00  0.00    -0.385 N 
HETATM   11  H   UNK N   1      31.629  15.217   6.271  0.00  0.00     0.157 HD
ATOM     12  HN  UNK N   1      32.764  16.127   5.332  1.00  0.00     0.157 HD
BRANCH   9  13
HETATM   13  N   UNK N   1      31.085  17.545   4.101  0.00  0.00    -0.385 N 
HETATM   14  H   UNK N   1      30.665  17.331   3.238  0.00  0.00     0.157 HD
HETATM   15  H   UNK N   1      31.659  18.340   4.185  0.00  0.00     0.157 HD
ENDBRANCH   9  13
ENDBRANCH   7   9
ENDBRANCH   2   3
ENDBRANCH   1   2
BRANCH   1  16
HETATM   16  C   UNK N   1      24.572  13.626   6.755  0.00  0.00     0.244 C 
HETATM   17  N   UNK N   1      23.523  14.122   7.515  0.00  0.00    -0.336 N 
HETATM   18  C   UNK N   1      22.691  15.171   6.971  0.00  0.00     0.127 C 
HETATM   19  C   UNK N   1      22.852  13.330   8.533  0.00  0.00     0.185 C 
HETATM   20  C   UNK N   1      21.532  14.468   6.221  0.00  0.00     0.020 C 
HETATM   21  C   UNK N   1      20.881  13.308   7.020  0.00  0.00     0.004 C 
HETATM   22  C   UNK N   1      21.885  12.416   7.788  0.00  0.00     0.036 C 
HETATM   23  O   UNK N   1      25.025  12.514   7.012  0.00  0.00    -0.271 OA
BRANCH  19  24
HETATM   24  C   UNK N   1      23.746  12.657   9.550  0.00  0.00     0.163 C 
HETATM   25  O   UNK N   1      23.465  11.541   9.953  0.00  0.00    -0.648 OA
BRANCH  24  26
HETATM   26  O   UNK N   1      24.788  13.311  10.098  0.00  0.00    -0.775 OA
HETATM   27  H   UNK N   1      25.450  13.683   9.548  0.00  0.00     0.167 HD
ENDBRANCH  24  26
ENDBRANCH  19  24
ENDBRANCH   1  16
BRANCH   1  28
HETATM   28  N   UNK N   1      24.647  13.821   4.296  0.00  0.00    -0.301 N 
HETATM   29  H   UNK N   1      24.268  12.883   4.166  0.00  0.00     0.173 HD
BRANCH  28  30
HETATM   30  S   UNK N   1      24.773  15.058   3.026  0.00  0.00     0.259 S 
HETATM   31  O   UNK N   1      24.060  14.624   1.737  0.00  0.00    -0.201 OA
HETATM   32  O   UNK N   1      23.341  15.365   3.490  0.00  0.00    -0.201 OA
BRANCH  30  33
HETATM   33  C   UNK N   1      24.908  16.753   3.495  0.00  0.00     0.080 A 
HETATM   34  C   UNK N   1      23.901  17.391   4.233  0.00  0.00     0.026 A 
HETATM   35  C   UNK N   1      24.174  18.610   4.859  0.00  0.00     0.014 A 
HETATM   36  C   UNK N   1      25.459  19.160   4.769  0.00  0.00    -0.026 A 
HETATM   37  C   UNK N   1      25.790  20.308   5.489  0.00  0.00     0.012 A 
HETATM   38  C   UNK N   1      26.446  18.529   3.980  0.00  0.00    -0.025 A 
HETATM   39  C   UNK N   1      27.093  20.817   5.428  0.00  0.00     0.001 A 
HETATM   40  C   UNK N   1      28.060  20.195   4.631  0.00  0.00     0.001 A 
HETATM   41  C   UNK N   1      27.733  19.051   3.904  0.00  0.00     0.012 A 
HETATM   42  C   UNK N   1      26.160  17.338   3.346  0.00  0.00     0.037 A 
ENDBRANCH  30  33
ENDBRANCH  28  30
ENDBRANCH   1  28
TORSDOF 10
ENDMDL
MODEL 8
REMARK VINA RESULT:      -8.0      1.960      2.732
REMARK  10 active torsions:
REMARK  status: ('A' for Active; 'I' for Inactive)
REMARK    1  A    between atoms: C_17  and  C_15 
REMARK    2  A    between atoms: C_22  and  C_15 
REMARK    3  A    between atoms: C_24  and  C_20 
REMARK    4  A    between atoms: S_37  and  C_21 
REMARK    5  A    between atoms: C_25  and  C_22 
REMARK    6  A    between atoms: C_22  and  N_30 
REMARK    7  A    between atoms: C_23  and  C_26 
REMARK    8  A    between atoms: N_29  and  C_24 
REMARK       I    between atoms: N_31  and  C_25 
REMARK    9  A    between atoms: O_34  and  C_26 
REMARK   10  A    between atoms: S_37  and  N_30 
ROOT
HETATM    1  C   UNK N   1      22.593  15.967   3.845  0.00  0.00     0.189 C 
ENDROOT
BRANCH   1   2
HETATM    2  C   UNK N   1      23.546  17.143   3.805  0.00  0.00     0.074 C 
BRANCH   2   3
HETATM    3  C   UNK N   1      24.989  16.842   3.630  0.00  0.00    -0.055 A 
HETATM    4  C   UNK N   1      25.484  15.826   2.800  0.00  0.00     0.007 A 
HETATM    5  C   UNK N   1      26.861  15.675   2.620  0.00  0.00     0.002 A 
HETATM    6  C   UNK N   1      27.741  16.564   3.248  0.00  0.00     0.015 A 
HETATM    7  C   UNK N   1      27.236  17.573   4.086  0.00  0.00     0.007 A 
HETATM    8  C   UNK N   1      25.867  17.689   4.273  0.00  0.00     0.022 A 
BRANCH   7   9
HETATM    9  C   UNK N   1      28.109  18.564   4.729  0.00  0.00     0.102 C 
HETATM   10  N   UNK N   1      28.299  19.709   4.188  0.00  0.00    -0.385 N 
HETATM   11  H   UNK N   1      27.758  20.005   3.420  0.00  0.00     0.157 HD
ATOM     12  HN  UNK N   1      29.022  20.325   4.559  1.00  0.00     0.157 HD
BRANCH   9  13
HETATM   13  N   UNK N   1      28.659  18.295   6.005  0.00  0.00    -0.385 N 
HETATM   14  H   UNK N   1      28.075  18.262   6.796  0.00  0.00     0.157 HD
HETATM   15  H   UNK N   1      29.627  18.140   6.100  0.00  0.00     0.157 HD
ENDBRANCH   9  13
ENDBRANCH   7   9
ENDBRANCH   2   3
ENDBRANCH   1   2
BRANCH   1  16
HETATM   16  C   UNK N   1      21.505  16.107   2.785  0.00  0.00     0.244 C 
HETATM   17  N   UNK N   1      21.505  15.416   1.582  0.00  0.00    -0.336 N 
HETATM   18  C   UNK N   1      22.335  14.241   1.442  0.00  0.00     0.127 C 
HETATM   19  C   UNK N   1      20.367  15.423   0.676  0.00  0.00     0.185 C 
HETATM   20  C   UNK N   1      21.470  13.036   1.888  0.00  0.00     0.020 C 
HETATM   21  C   UNK N   1      20.038  13.039   1.293  0.00  0.00     0.004 C 
HETATM   22  C   UNK N   1      19.363  14.430   1.252  0.00  0.00     0.036 C 
HETATM   23  O   UNK N   1      20.556  16.837   3.058  0.00  0.00    -0.271 OA
BRANCH  19  24
HETATM   24  C   UNK N   1      19.817  16.783   0.310  0.00  0.00     0.163 C 
HETATM   25  O   UNK N   1      20.504  17.557  -0.334  0.00  0.00    -0.648 OA
BRANCH  24  26
HETATM   26  O   UNK N   1      18.622  17.195   0.775  0.00  0.00    -0.775 OA
HETATM   27  H   UNK N   1      18.507  18.084   1.051  0.00  0.00     0.167 HD
ENDBRANCH  24  26
ENDBRANCH  19  24
ENDBRANCH   1  16
BRANCH   1  28
HETATM   28  N   UNK N   1      22.022  15.856   5.185  0.00  0.00    -0.301 N 
HETATM   29  H   UNK N   1      21.486  16.584   5.658  0.00  0.00     0.173 HD
BRANCH  28  30
HETATM   30  S   UNK N   1      22.405  14.260   5.868  0.00  0.00     0.259 S 
HETATM   31  O   UNK N   1      23.446  13.515   5.020  0.00  0.00    -0.201 OA
HETATM   32  O   UNK N   1      23.642  15.019   6.375  0.00  0.00    -0.201 OA
BRANCH  30  33
HETATM   33  C   UNK N   1      22.276  14.023   7.611  0.00  0.00     0.080 A 
HETATM   34  C   UNK N   1      21.030  13.964   8.251  0.00  0.00     0.026 A 
HETATM   35  C   UNK N   1      20.949  13.458   9.552  0.00  0.00     0.014 A 
HETATM   36  C   UNK N   1      22.106  12.986  10.183  0.00  0.00    -0.026 A 
HETATM   37  C   UNK N   1      22.029  12.361  11.428  0.00  0.00     0.012 A 
HETATM   38  C   UNK N   1      23.359  13.099   9.541  0.00  0.00    -0.025 A 
HETATM   39  C   UNK N   1      23.189  11.849  12.023  0.00  0.00     0.001 A 
HETATM   40  C   UNK N   1      24.428  11.980  11.388  0.00  0.00     0.001 A 
HETATM   41  C   UNK N   1      24.512  12.609  10.146  0.00  0.00     0.012 A 
HETATM   42  C   UNK N   1      23.434  13.622   8.267  0.00  0.00     0.037 A 
ENDBRANCH  30  33
ENDBRANCH  28  30
ENDBRANCH   1  28
TORSDOF 10
ENDMDL
MODEL 9
REMARK VINA RESULT:      -7.8     13.990     16.354
REMARK  10 active torsions:
REMARK  status: ('A' for Active; 'I' for Inactive)
REMARK    1  A    between atoms: C_17  and  C_15 
REMARK    2  A    between atoms: C_22  and  C_15 
REMARK    3  A    between atoms: C_24  and  C_20 
REMARK    4  A    between atoms: S_37  and  C_21 
REMARK    5  A    between atoms: C_25  and  C_22 
REMARK    6  A    between atoms: C_22  and  N_30 
REMARK    7  A    between atoms: C_23  and  C_26 
REMARK    8  A    between atoms: N_29  and  C_24 
REMARK       I    between atoms: N_31  and  C_25 
REMARK    9  A    between atoms: O_34  and  C_26 
REMARK   10  A    between atoms: S_37  and  N_30 
ROOT
HETATM    1  C   UNK N   1      28.604  23.071  -7.467  0.00  0.00     0.189 C 
ENDROOT
BRANCH   1   2
HETATM    2  C   UNK N   1      28.943  24.174  -8.447  0.00  0.00     0.074 C 
BRANCH   2   3
HETATM    3  C   UNK N   1      28.854  25.571  -7.953  0.00  0.00    -0.055 A 
HETATM    4  C   UNK N   1      28.243  26.617  -8.659  0.00  0.00     0.007 A 
HETATM    5  C   UNK N   1      28.120  27.880  -8.076  0.00  0.00     0.002 A 
HETATM    6  C   UNK N   1      28.582  28.086  -6.771  0.00  0.00     0.015 A 
HETATM    7  C   UNK N   1      29.203  27.035  -6.074  0.00  0.00     0.007 A 
HETATM    8  C   UNK N   1      29.339  25.796  -6.681  0.00  0.00     0.022 A 
BRANCH   7   9
HETATM    9  C   UNK N   1      29.659  27.181  -4.686  0.00  0.00     0.102 C 
HETATM   10  N   UNK N   1      29.952  26.149  -3.987  0.00  0.00    -0.385 N 
HETATM   11  H   UNK N   1      30.021  25.257  -4.400  0.00  0.00     0.157 HD
ATOM     12  HN  UNK N   1      30.117  26.251  -2.986  1.00  0.00     0.157 HD
BRANCH   9  13
HETATM   13  N   UNK N   1      29.880  28.472  -4.151  0.00  0.00    -0.385 N 
HETATM   14  H   UNK N   1      30.013  28.589  -3.183  0.00  0.00     0.157 HD
HETATM   15  H   UNK N   1      29.901  29.255  -4.748  0.00  0.00     0.157 HD
ENDBRANCH   9  13
ENDBRANCH   7   9
ENDBRANCH   2   3
ENDBRANCH   1   2
BRANCH   1  16
HETATM   16  C   UNK N   1      29.773  22.105  -7.302  0.00  0.00     0.244 C 
HETATM   17  N   UNK N   1      30.776  22.261  -6.357  0.00  0.00    -0.336 N 
HETATM   18  C   UNK N   1      30.555  23.137  -5.229  0.00  0.00     0.127 C 
HETATM   19  C   UNK N   1      31.771  21.232  -6.095  0.00  0.00     0.185 C 
HETATM   20  C   UNK N   1      29.933  22.265  -4.110  0.00  0.00     0.020 C 
HETATM   21  C   UNK N   1      30.656  20.909  -3.899  0.00  0.00     0.004 C 
HETATM   22  C   UNK N   1      31.087  20.200  -5.205  0.00  0.00     0.036 C 
HETATM   23  O   UNK N   1      29.774  21.109  -8.021  0.00  0.00    -0.271 OA
BRANCH  19  24
HETATM   24  C   UNK N   1      32.496  20.685  -7.304  0.00  0.00     0.163 C 
HETATM   25  O   UNK N   1      33.287  21.393  -7.903  0.00  0.00    -0.648 OA
BRANCH  24  26
HETATM   26  O   UNK N   1      32.203  19.466  -7.795  0.00  0.00    -0.775 OA
HETATM   27  H   UNK N   1      32.043  19.355  -8.712  0.00  0.00     0.167 HD
ENDBRANCH  24  26
ENDBRANCH  19  24
ENDBRANCH   1  16
BRANCH   1  28
HETATM   28  N   UNK N   1      27.399  22.379  -7.921  0.00  0.00    -0.301 N 
HETATM   29  H   UNK N   1      27.377  21.448  -8.336  0.00  0.00     0.173 HD
BRANCH  28  30
HETATM   30  S   UNK N   1      25.977  23.408  -7.641  0.00  0.00     0.259 S 
HETATM   31  O   UNK N   1      24.737  22.875  -8.373  0.00  0.00    -0.201 OA
HETATM   32  O   UNK N   1      25.638  22.288  -6.646  0.00  0.00    -0.201 OA
BRANCH  30  33
HETATM   33  C   UNK N   1      25.856  24.304  -6.126  0.00  0.00     0.080 A 
HETATM   34  C   UNK N   1      26.351  23.780  -4.924  0.00  0.00     0.026 A 
HETATM   35  C   UNK N   1      26.534  24.627  -3.828  0.00  0.00     0.014 A 
HETATM   36  C   UNK N   1      26.253  25.994  -3.956  0.00  0.00    -0.026 A 
HETATM   37  C   UNK N   1      26.548  26.878  -2.919  0.00  0.00     0.012 A 
HETATM   38  C   UNK N   1      25.709  26.494  -5.160  0.00  0.00    -0.025 A 
HETATM   39  C   UNK N   1      26.309  28.248  -3.082  0.00  0.00     0.001 A 
HETATM   40  C   UNK N   1      25.754  28.733  -4.271  0.00  0.00     0.001 A 
HETATM   41  C   UNK N   1      25.452  27.853  -5.309  0.00  0.00     0.012 A 
HETATM   42  C   UNK N   1      25.509  25.647  -6.229  0.00  0.00     0.037 A 
ENDBRANCH  30  33
ENDBRANCH  28  30
ENDBRANCH   1  28
TORSDOF 10
ENDMDL
