MODEL 1
REMARK VINA RESULT:      -4.0      0.000      0.000
REMARK  1 active torsions:
REMARK  status: ('A' for Active; 'I' for Inactive)
REMARK    1  A    between atoms: C_2  and  N_3 
ROOT
HETATM    1  N   UNK N   1      23.110  12.037  11.772  0.00  0.00    -0.359 N 
HETATM    2  C   UNK N   1      21.852  12.211  11.080  0.00  0.00     0.125 A 
HETATM    3  C   UNK N   1      21.882  12.512   9.590  0.00  0.00     0.020 A 
HETATM    4  C   UNK N   1      23.209  12.622   8.868  0.00  0.00     0.003 A 
HETATM    5  C   UNK N   1      24.489  12.428   9.658  0.00  0.00     0.020 A 
HETATM    6  C   UNK N   1      24.419  12.127  11.149  0.00  0.00     0.125 A 
ENDROOT
BRANCH   1   7
HETATM    7  C   UNK N   1      23.034  11.770  13.098  0.00  0.00     0.350 C 
HETATM    8  O   UNK N   1      23.808  12.281  13.895  0.00  0.00    -0.284 OA
ENDBRANCH   1   7
TORSDOF 1
ENDMDL
MODEL 2
REMARK VINA RESULT:      -4.0     19.737     20.849
REMARK  1 active torsions:
REMARK  status: ('A' for Active; 'I' for Inactive)
REMARK    1  A    between atoms: C_2  and  N_3 
ROOT
HETATM    1  N   UNK N   1      26.465  25.347  -4.097  0.00  0.00    -0.359 N 
HETATM    2  C   UNK N   1      26.438  26.523  -3.256  0.00  0.00     0.125 A 
HETATM    3  C   UNK N   1      25.708  27.757  -3.763  0.00  0.00     0.020 A 
HETATM    4  C   UNK N   1      25.034  27.732  -5.119  0.00  0.00     0.003 A 
HETATM    5  C   UNK N   1      25.103  26.464  -5.947  0.00  0.00     0.020 A 
HETATM    6  C   UNK N   1      25.843  25.248  -5.406  0.00  0.00     0.125 A 
ENDROOT
BRANCH   1   7
HETATM    7  C   UNK N   1      27.126  24.271  -3.605  0.00  0.00     0.350 C 
HETATM    8  O   UNK N   1      26.953  23.889  -2.457  0.00  0.00    -0.284 OA
ENDBRANCH   1   7
TORSDOF 1
ENDMDL
MODEL 3
REMARK VINA RESULT:      -3.9     10.982     12.061
REMARK  1 active torsions:
REMARK  status: ('A' for Active; 'I' for Inactive)
REMARK    1  A    between atoms: C_2  and  N_3 
ROOT
HETATM    1  N   UNK N   1      33.515  17.788   7.630  0.00  0.00    -0.359 N 
HETATM    2  C   UNK N   1      33.651  17.528   6.214  0.00  0.00     0.125 A 
HETATM    3  C   UNK N   1      32.403  17.172   5.421  0.00  0.00     0.020 A 
HETATM    4  C   UNK N   1      31.061  17.096   6.119  0.00  0.00     0.003 A 
HETATM    5  C   UNK N   1      30.993  17.381   7.607  0.00  0.00     0.020 A 
HETATM    6  C   UNK N   1      32.264  17.735   8.367  0.00  0.00     0.125 A 
ENDROOT
BRANCH   1   7
HETATM    7  C   UNK N   1      34.653  18.102   8.295  0.00  0.00     0.350 C 
HETATM    8  O   UNK N   1      35.039  19.258   8.384  0.00  0.00    -0.284 OA
ENDBRANCH   1   7
TORSDOF 1
ENDMDL
MODEL 4
REMARK VINA RESULT:      -3.7      2.544      3.259
REMARK  1 active torsions:
REMARK  status: ('A' for Active; 'I' for Inactive)
REMARK    1  A    between atoms: C_2  and  N_3 
ROOT
HETATM    1  N   UNK N   1      21.749  13.066  10.264  0.00  0.00    -0.359 N 
HETATM    2  C   UNK N   1      22.053  12.253  11.421  0.00  0.00     0.125 A 
HETATM    3  C   UNK N   1      23.492  11.813  11.636  0.00  0.00     0.020 A 
HETATM    4  C   UNK N   1      24.565  12.227  10.650  0.00  0.00     0.003 A 
HETATM    5  C   UNK N   1      24.173  13.080   9.460  0.00  0.00     0.020 A 
HETATM    6  C   UNK N   1      22.721  13.502   9.277  0.00  0.00     0.125 A 
ENDROOT
BRANCH   1   7
HETATM    7  C   UNK N   1      20.454  13.434  10.113  0.00  0.00     0.350 C 
HETATM    8  O   UNK N   1      20.058  13.958   9.082  0.00  0.00    -0.284 OA
ENDBRANCH   1   7
TORSDOF 1
ENDMDL
MODEL 5
REMARK VINA RESULT:      -3.7     20.434     21.257
REMARK  1 active torsions:
REMARK  status: ('A' for Active; 'I' for Inactive)
REMARK    1  A    between atoms: C_2  and  N_3 
ROOT
HETATM    1  N   UNK N   1      25.956  25.164  -4.882  0.00  0.00    -0.359 N 
HETATM    2  C   UNK N   1      25.211  26.013  -5.784  0.00  0.00     0.125 A 
HETATM    3  C   UNK N   1      25.006  27.470  -5.402  0.00  0.00     0.020 A 
HETATM    4  C   UNK N   1      25.578  27.998  -4.102  0.00  0.00     0.003 A 
HETATM    5  C   UNK N   1      26.349  27.050  -3.205  0.00  0.00     0.020 A 
HETATM    6  C   UNK N   1      26.533  25.597  -3.621  0.00  0.00     0.125 A 
ENDROOT
BRANCH   1   7
HETATM    7  C   UNK N   1      26.113  23.873  -5.263  0.00  0.00     0.350 C 
HETATM    8  O   UNK N   1      25.338  23.343  -6.047  0.00  0.00    -0.284 OA
ENDBRANCH   1   7
TORSDOF 1
ENDMDL
MODEL 6
REMARK VINA RESULT:      -3.6     10.777     11.951
REMARK  1 active torsions:
REMARK  status: ('A' for Active; 'I' for Inactive)
REMARK    1  A    between atoms: C_2  and  N_3 
ROOT
HETATM    1  N   UNK N   1      20.904  19.910   2.154  0.00  0.00    -0.359 N 
HETATM    2  C   UNK N   1      22.144  19.991   2.895  0.00  0.00     0.125 A 
HETATM    3  C   UNK N   1      22.419  18.943   3.961  0.00  0.00     0.020 A 
HETATM    4  C   UNK N   1      21.405  17.848   4.224  0.00  0.00     0.003 A 
HETATM    5  C   UNK N   1      20.126  17.825   3.409  0.00  0.00     0.020 A 
HETATM    6  C   UNK N   1      19.886  18.892   2.350  0.00  0.00     0.125 A 
ENDROOT
BRANCH   1   7
HETATM    7  C   UNK N   1      20.702  20.865   1.215  0.00  0.00     0.350 C 
HETATM    8  O   UNK N   1      21.095  20.720   0.066  0.00  0.00    -0.284 OA
ENDBRANCH   1   7
TORSDOF 1
ENDMDL
MODEL 7
REMARK VINA RESULT:      -3.4     10.202     11.146
REMARK  1 active torsions:
REMARK  status: ('A' for Active; 'I' for Inactive)
REMARK    1  A    between atoms: C_2  and  N_3 
ROOT
HETATM    1  N   UNK N   1      32.393  17.321   7.108  0.00  0.00    -0.359 N 
HETATM    2  C   UNK N   1      31.377  16.987   6.135  0.00  0.00     0.125 A 
HETATM    3  C   UNK N   1      29.922  17.241   6.493  0.00  0.00     0.020 A 
HETATM    4  C   UNK N   1      29.568  17.830   7.842  0.00  0.00     0.003 A 
HETATM    5  C   UNK N   1      30.685  18.157   8.813  0.00  0.00     0.020 A 
HETATM    6  C   UNK N   1      32.131  17.888   8.419  0.00  0.00     0.125 A 
ENDROOT
BRANCH   1   7
HETATM    7  C   UNK N   1      33.676  17.078   6.745  0.00  0.00     0.350 C 
HETATM    8  O   UNK N   1      34.440  17.989   6.460  0.00  0.00    -0.284 OA
ENDBRANCH   1   7
TORSDOF 1
ENDMDL
MODEL 8
REMARK VINA RESULT:      -3.4     12.620     13.822
REMARK  1 active torsions:
REMARK  status: ('A' for Active; 'I' for Inactive)
REMARK    1  A    between atoms: C_2  and  N_3 
ROOT
HETATM    1  N   UNK N   1      35.128  12.160  16.522  0.00  0.00    -0.359 N 
HETATM    2  C   UNK N   1      35.318  10.893  17.194  0.00  0.00     0.125 A 
HETATM    3  C   UNK N   1      35.439  10.889  18.709  0.00  0.00     0.020 A 
HETATM    4  C   UNK N   1      35.359  12.193  19.477  0.00  0.00     0.003 A 
HETATM    5  C   UNK N   1      35.158  13.483  18.707  0.00  0.00     0.020 A 
HETATM    6  C   UNK N   1      35.041  13.447  17.189  0.00  0.00     0.125 A 
ENDROOT
BRANCH   1   7
HETATM    7  C   UNK N   1      35.025  12.115  15.172  0.00  0.00     0.350 C 
HETATM    8  O   UNK N   1      34.478  13.011  14.546  0.00  0.00    -0.284 OA
ENDBRANCH   1   7
TORSDOF 1
ENDMDL
MODEL 9
REMARK VINA RESULT:      -3.4     20.544     21.534
REMARK  1 active torsions:
REMARK  status: ('A' for Active; 'I' for Inactive)
REMARK    1  A    between atoms: C_2  and  N_3 
ROOT
HETATM    1  N   UNK N   1      26.103  26.358  -4.420  0.00  0.00    -0.359 N 
HETATM    2  C   UNK N   1      26.122  24.912  -4.395  0.00  0.00     0.125 A 
HETATM    3  C   UNK N   1      25.958  24.164  -5.708  0.00  0.00     0.020 A 
HETATM    4  C   UNK N   1      25.779  24.936  -7.000  0.00  0.00     0.003 A 
HETATM    5  C   UNK N   1      25.768  26.451  -6.950  0.00  0.00     0.020 A 
HETATM    6  C   UNK N   1      25.936  27.165  -5.616  0.00  0.00     0.125 A 
ENDROOT
BRANCH   1   7
HETATM    7  C   UNK N   1      26.253  26.981  -3.226  0.00  0.00     0.350 C 
HETATM    8  O   UNK N   1      25.477  27.853  -2.862  0.00  0.00    -0.284 OA
ENDBRANCH   1   7
TORSDOF 1
ENDMDL
