MODEL 1
REMARK VINA RESULT:      -5.7      0.000      0.000
REMARK  20 active torsions:
REMARK  status: ('A' for Active; 'I' for Inactive)
REMARK    1  A    between atoms: C_3  and  C_2 
REMARK    2  A    between atoms: C_4  and  C_3 
REMARK    3  A    between atoms: C_5  and  C_4 
REMARK    4  A    between atoms: C_8  and  C_5 
REMARK    5  A    between atoms: C_7  and  C_6 
REMARK    6  A    between atoms: C_11  and  C_6 
REMARK    7  A    between atoms: C_13  and  C_7 
REMARK    8  A    between atoms: S_28  and  C_8 
REMARK    9  A    between atoms: C_14  and  C_9 
REMARK   10  A    between atoms: N_18  and  C_9 
REMARK   11  A    between atoms: C_12  and  C_10 
REMARK   12  A    between atoms: S_28  and  C_10 
REMARK   13  A    between atoms: C_16  and  C_11 
REMARK   14  A    between atoms: C_11  and  N_17 
REMARK   15  A    between atoms: C_15  and  C_12 
REMARK   16  A    between atoms: C_12  and  N_20 
REMARK   17  A    between atoms: C_13  and  O_22 
REMARK   18  A    between atoms: O_24  and  C_14 
REMARK   19  A    between atoms: O_25  and  C_15 
REMARK   20  A    between atoms: O_27  and  C_16 
ROOT
HETATM    1  C   UNK N   1      22.193  18.148   5.025  0.00  0.00     0.167 C 
ENDROOT
BRANCH   1   2
HETATM    2  C   UNK N   1      23.363  17.391   4.365  0.00  0.00     0.107 C 
BRANCH   2   3
HETATM    3  S   UNK N   1      25.038  18.022   4.697  0.00  0.00    -0.167 SA
BRANCH   3   4
HETATM    4  C   UNK N   1      24.797  19.376   3.510  0.00  0.00     0.074 C 
BRANCH   4   5
HETATM    5  C   UNK N   1      26.036  20.252   3.470  0.00  0.00     0.010 C 
BRANCH   5   6
HETATM    6  C   UNK N   1      27.245  19.501   3.995  0.00  0.00     0.001 C 
BRANCH   6   7
HETATM    7  C   UNK N   1      27.901  20.261   5.135  0.00  0.00    -0.000 C 
BRANCH   7   8
HETATM    8  C   UNK N   1      26.993  21.371   5.629  0.00  0.00    -0.005 C 
HETATM    9  C   UNK N   1      26.548  21.063   7.041  0.00  0.00     0.005 C 
ENDBRANCH   7   8
ENDBRANCH   6   7
ENDBRANCH   5   6
ENDBRANCH   4   5
ENDBRANCH   3   4
ENDBRANCH   2   3
ENDBRANCH   1   2
BRANCH   1  10
HETATM   10  C   UNK N   1      21.273  18.928   4.092  0.00  0.00     0.136 C 
HETATM   11  N   UNK N   1      21.112  18.555   2.866  0.00  0.00    -0.363 N 
ATOM     12  HN  UNK N   1      21.631  17.747   2.520  1.00  0.00     0.161 HD
BRANCH  11  13
HETATM   13  C   UNK N   1      20.216  19.251   1.969  0.00  0.00     0.231 C 
BRANCH  13  14
HETATM   14  C   UNK N   1      20.914  20.368   1.247  0.00  0.00     0.158 C 
HETATM   15  O   UNK N   1      21.649  21.138   1.844  0.00  0.00    -0.649 OA
BRANCH  14  16
HETATM   16  O   UNK N   1      20.717  20.525  -0.076  0.00  0.00    -0.775 OA
HETATM   17  H   UNK N   1      20.015  20.101  -0.529  0.00  0.00     0.167 HD
ENDBRANCH  14  16
ENDBRANCH  13  14
ENDBRANCH  11  13
BRANCH  10  18
HETATM   18  O   UNK N   1      20.594  19.991   4.571  0.00  0.00    -0.348 OA
HETATM   19  H   UNK N   1      19.897  19.864   5.184  0.00  0.00     0.219 HD
ENDBRANCH  10  18
ENDBRANCH   1  10
BRANCH   1  20
HETATM   20  N   UNK N   1      21.482  17.236   5.906  0.00  0.00    -0.362 N 
HETATM   21  C   UNK N   1      20.855  17.596   6.978  0.00  0.00     0.111 C 
ATOM     22  HN  UNK N   1      21.480  16.245   5.663  1.00  0.00     0.162 HD
BRANCH  21  23
HETATM   23  C   UNK N   1      20.105  16.575   7.764  0.00  0.00     0.086 C 
BRANCH  23  24
HETATM   24  C   UNK N   1      21.079  15.634   8.447  0.00  0.00     0.043 C 
BRANCH  24  25
HETATM   25  C   UNK N   1      20.652  14.184   8.269  0.00  0.00     0.173 C 
BRANCH  25  26
HETATM   26  C   UNK N   1      20.818  13.792   6.833  0.00  0.00     0.163 C 
HETATM   27  O   UNK N   1      19.937  13.171   6.257  0.00  0.00    -0.648 OA
BRANCH  26  28
HETATM   28  O   UNK N   1      21.945  14.118   6.173  0.00  0.00    -0.775 OA
HETATM   29  H   UNK N   1      22.788  14.199   6.574  0.00  0.00     0.167 HD
ENDBRANCH  26  28
ENDBRANCH  25  26
BRANCH  25  30
HETATM   30  N   UNK N   1      21.464  13.319   9.111  0.00  0.00    -0.418 N 
HETATM   31  H   UNK N   1      21.101  12.766   9.887  0.00  0.00     0.150 HD
HETATM   32  H   UNK N   1      22.463  13.260   8.911  0.00  0.00     0.150 HD
ENDBRANCH  25  30
ENDBRANCH  24  25
ENDBRANCH  23  24
ENDBRANCH  21  23
BRANCH  21  33
HETATM   33  O   UNK N   1      20.845  18.885   7.379  0.00  0.00    -0.350 OA
HETATM   34  H   UNK N   1      20.471  19.738   7.476  0.00  0.00     0.219 HD
ENDBRANCH  21  33
ENDBRANCH   1  20
TORSDOF 20
ENDMDL
MODEL 2
REMARK VINA RESULT:      -5.7      2.727      6.660
REMARK  20 active torsions:
REMARK  status: ('A' for Active; 'I' for Inactive)
REMARK    1  A    between atoms: C_3  and  C_2 
REMARK    2  A    between atoms: C_4  and  C_3 
REMARK    3  A    between atoms: C_5  and  C_4 
REMARK    4  A    between atoms: C_8  and  C_5 
REMARK    5  A    between atoms: C_7  and  C_6 
REMARK    6  A    between atoms: C_11  and  C_6 
REMARK    7  A    between atoms: C_13  and  C_7 
REMARK    8  A    between atoms: S_28  and  C_8 
REMARK    9  A    between atoms: C_14  and  C_9 
REMARK   10  A    between atoms: N_18  and  C_9 
REMARK   11  A    between atoms: C_12  and  C_10 
REMARK   12  A    between atoms: S_28  and  C_10 
REMARK   13  A    between atoms: C_16  and  C_11 
REMARK   14  A    between atoms: C_11  and  N_17 
REMARK   15  A    between atoms: C_15  and  C_12 
REMARK   16  A    between atoms: C_12  and  N_20 
REMARK   17  A    between atoms: C_13  and  O_22 
REMARK   18  A    between atoms: O_24  and  C_14 
REMARK   19  A    between atoms: O_25  and  C_15 
REMARK   20  A    between atoms: O_27  and  C_16 
ROOT
HETATM    1  C   UNK N   1      21.548  16.976   4.550  0.00  0.00     0.167 C 
ENDROOT
BRANCH   1   2
HETATM    2  C   UNK N   1      21.226  16.998   6.058  0.00  0.00     0.107 C 
BRANCH   2   3
HETATM    3  S   UNK N   1      20.260  15.599   6.711  0.00  0.00    -0.167 SA
BRANCH   3   4
HETATM    4  C   UNK N   1      21.701  14.501   6.574  0.00  0.00     0.074 C 
BRANCH   4   5
HETATM    5  C   UNK N   1      22.201  14.135   7.960  0.00  0.00     0.010 C 
BRANCH   5   6
HETATM    6  C   UNK N   1      21.144  14.421   9.009  0.00  0.00     0.001 C 
BRANCH   6   7
HETATM    7  C   UNK N   1      21.167  13.367  10.102  0.00  0.00    -0.000 C 
BRANCH   7   8
HETATM    8  C   UNK N   1      22.560  12.788  10.257  0.00  0.00    -0.005 C 
HETATM    9  C   UNK N   1      22.675  12.110  11.604  0.00  0.00     0.005 C 
ENDBRANCH   7   8
ENDBRANCH   6   7
ENDBRANCH   5   6
ENDBRANCH   4   5
ENDBRANCH   3   4
ENDBRANCH   2   3
ENDBRANCH   1   2
BRANCH   1  10
HETATM   10  C   UNK N   1      20.581  17.719   3.636  0.00  0.00     0.136 C 
HETATM   11  N   UNK N   1      20.948  18.799   3.030  0.00  0.00    -0.363 N 
ATOM     12  HN  UNK N   1      21.886  19.166   3.194  1.00  0.00     0.161 HD
BRANCH  11  13
HETATM   13  C   UNK N   1      20.066  19.503   2.125  0.00  0.00     0.231 C 
BRANCH  13  14
HETATM   14  C   UNK N   1      20.813  20.506   1.294  0.00  0.00     0.158 C 
HETATM   15  O   UNK N   1      21.612  21.274   1.806  0.00  0.00    -0.649 OA
BRANCH  14  16
HETATM   16  O   UNK N   1      20.591  20.564  -0.033  0.00  0.00    -0.775 OA
HETATM   17  H   UNK N   1      20.407  21.371  -0.472  0.00  0.00     0.167 HD
ENDBRANCH  14  16
ENDBRANCH  13  14
ENDBRANCH  11  13
BRANCH  10  18
HETATM   18  O   UNK N   1      19.346  17.215   3.431  0.00  0.00    -0.348 OA
HETATM   19  H   UNK N   1      19.075  16.975   2.566  0.00  0.00     0.219 HD
ENDBRANCH  10  18
ENDBRANCH   1  10
BRANCH   1  20
HETATM   20  N   UNK N   1      22.935  17.365   4.361  0.00  0.00    -0.362 N 
HETATM   21  C   UNK N   1      23.849  16.596   3.868  0.00  0.00     0.111 C 
ATOM     22  HN  UNK N   1      23.206  18.309   4.637  1.00  0.00     0.162 HD
BRANCH  21  23
HETATM   23  C   UNK N   1      25.224  17.134   3.660  0.00  0.00     0.086 C 
BRANCH  23  24
HETATM   24  C   UNK N   1      25.408  18.402   4.470  0.00  0.00     0.043 C 
BRANCH  24  25
HETATM   25  C   UNK N   1      25.940  19.533   3.601  0.00  0.00     0.173 C 
BRANCH  25  26
HETATM   26  C   UNK N   1      24.788  20.264   2.982  0.00  0.00     0.163 C 
HETATM   27  O   UNK N   1      24.945  20.907   1.955  0.00  0.00    -0.648 OA
BRANCH  26  28
HETATM   28  O   UNK N   1      23.574  20.220   3.562  0.00  0.00    -0.775 OA
HETATM   29  H   UNK N   1      22.770  20.410   3.120  0.00  0.00     0.167 HD
ENDBRANCH  26  28
ENDBRANCH  25  26
BRANCH  25  30
HETATM   30  N   UNK N   1      26.729  20.452   4.406  0.00  0.00    -0.418 N 
HETATM   31  H   UNK N   1      27.129  21.323   4.058  0.00  0.00     0.150 HD
HETATM   32  H   UNK N   1      26.892  20.210   5.383  0.00  0.00     0.150 HD
ENDBRANCH  25  30
ENDBRANCH  24  25
ENDBRANCH  23  24
ENDBRANCH  21  23
BRANCH  21  33
HETATM   33  O   UNK N   1      23.571  15.323   3.513  0.00  0.00    -0.350 OA
HETATM   34  H   UNK N   1      23.491  14.402   3.661  0.00  0.00     0.219 HD
ENDBRANCH  21  33
ENDBRANCH   1  20
TORSDOF 20
ENDMDL
MODEL 3
REMARK VINA RESULT:      -5.5      3.608      7.838
REMARK  20 active torsions:
REMARK  status: ('A' for Active; 'I' for Inactive)
REMARK    1  A    between atoms: C_3  and  C_2 
REMARK    2  A    between atoms: C_4  and  C_3 
REMARK    3  A    between atoms: C_5  and  C_4 
REMARK    4  A    between atoms: C_8  and  C_5 
REMARK    5  A    between atoms: C_7  and  C_6 
REMARK    6  A    between atoms: C_11  and  C_6 
REMARK    7  A    between atoms: C_13  and  C_7 
REMARK    8  A    between atoms: S_28  and  C_8 
REMARK    9  A    between atoms: C_14  and  C_9 
REMARK   10  A    between atoms: N_18  and  C_9 
REMARK   11  A    between atoms: C_12  and  C_10 
REMARK   12  A    between atoms: S_28  and  C_10 
REMARK   13  A    between atoms: C_16  and  C_11 
REMARK   14  A    between atoms: C_11  and  N_17 
REMARK   15  A    between atoms: C_15  and  C_12 
REMARK   16  A    between atoms: C_12  and  N_20 
REMARK   17  A    between atoms: C_13  and  O_22 
REMARK   18  A    between atoms: O_24  and  C_14 
REMARK   19  A    between atoms: O_25  and  C_15 
REMARK   20  A    between atoms: O_27  and  C_16 
ROOT
HETATM    1  C   UNK N   1      20.496  15.575   6.188  0.00  0.00     0.167 C 
ENDROOT
BRANCH   1   2
HETATM    2  C   UNK N   1      21.805  15.302   6.956  0.00  0.00     0.107 C 
BRANCH   2   3
HETATM    3  S   UNK N   1      22.540  13.647   6.758  0.00  0.00    -0.167 SA
BRANCH   3   4
HETATM    4  C   UNK N   1      21.188  12.899   7.714  0.00  0.00     0.074 C 
BRANCH   4   5
HETATM    5  C   UNK N   1      21.631  12.684   9.150  0.00  0.00     0.010 C 
BRANCH   5   6
HETATM    6  C   UNK N   1      23.070  12.206   9.205  0.00  0.00     0.001 C 
BRANCH   6   7
HETATM    7  C   UNK N   1      23.633  12.346  10.609  0.00  0.00    -0.000 C 
BRANCH   7   8
HETATM    8  C   UNK N   1      22.639  11.839  11.636  0.00  0.00    -0.005 C 
HETATM    9  C   UNK N   1      23.251  11.933  13.015  0.00  0.00     0.005 C 
ENDBRANCH   7   8
ENDBRANCH   6   7
ENDBRANCH   5   6
ENDBRANCH   4   5
ENDBRANCH   3   4
ENDBRANCH   2   3
ENDBRANCH   1   2
BRANCH   1  10
HETATM   10  C   UNK N   1      19.322  16.097   7.008  0.00  0.00     0.136 C 
HETATM   11  N   UNK N   1      19.497  16.507   8.220  0.00  0.00    -0.363 N 
ATOM     12  HN  UNK N   1      20.429  16.450   8.633  1.00  0.00     0.161 HD
BRANCH  11  13
HETATM   13  C   UNK N   1      18.410  17.044   9.008  0.00  0.00     0.231 C 
BRANCH  13  14
HETATM   14  C   UNK N   1      18.800  18.327   9.686  0.00  0.00     0.158 C 
HETATM   15  O   UNK N   1      18.201  18.722  10.674  0.00  0.00    -0.649 OA
BRANCH  14  16
HETATM   16  O   UNK N   1      19.818  19.055   9.189  0.00  0.00    -0.775 OA
HETATM   17  H   UNK N   1      20.319  18.770   8.451  0.00  0.00     0.167 HD
ENDBRANCH  14  16
ENDBRANCH  13  14
ENDBRANCH  11  13
BRANCH  10  18
HETATM   18  O   UNK N   1      18.099  16.166   6.442  0.00  0.00    -0.348 OA
HETATM   19  H   UNK N   1      17.982  15.913   5.547  0.00  0.00     0.219 HD
ENDBRANCH  10  18
ENDBRANCH   1  10
BRANCH   1  20
HETATM   20  N   UNK N   1      20.797  16.393   5.025  0.00  0.00    -0.362 N 
HETATM   21  C   UNK N   1      20.200  16.288   3.884  0.00  0.00     0.111 C 
ATOM     22  HN  UNK N   1      21.530  17.098   5.116  1.00  0.00     0.162 HD
BRANCH  21  23
HETATM   23  C   UNK N   1      20.551  17.233   2.785  0.00  0.00     0.086 C 
BRANCH  23  24
HETATM   24  C   UNK N   1      21.204  18.474   3.362  0.00  0.00     0.043 C 
BRANCH  24  25
HETATM   25  C   UNK N   1      20.459  19.731   2.937  0.00  0.00     0.173 C 
BRANCH  25  26
HETATM   26  C   UNK N   1      21.376  20.601   2.133  0.00  0.00     0.163 C 
HETATM   27  O   UNK N   1      22.175  21.337   2.691  0.00  0.00    -0.648 OA
BRANCH  26  28
HETATM   28  O   UNK N   1      21.316  20.579   0.788  0.00  0.00    -0.775 OA
HETATM   29  H   UNK N   1      20.521  20.510   0.296  0.00  0.00     0.167 HD
ENDBRANCH  26  28
ENDBRANCH  25  26
BRANCH  25  30
HETATM   30  N   UNK N   1      19.295  19.376   2.140  0.00  0.00    -0.418 N 
HETATM   31  H   UNK N   1      18.484  19.980   2.006  0.00  0.00     0.150 HD
HETATM   32  H   UNK N   1      19.290  18.463   1.685  0.00  0.00     0.150 HD
ENDBRANCH  25  30
ENDBRANCH  24  25
ENDBRANCH  23  24
ENDBRANCH  21  23
BRANCH  21  33
HETATM   33  O   UNK N   1      19.244  15.356   3.681  0.00  0.00    -0.350 OA
HETATM   34  H   UNK N   1      18.435  14.922   3.861  0.00  0.00     0.219 HD
ENDBRANCH  21  33
ENDBRANCH   1  20
TORSDOF 20
ENDMDL
MODEL 4
REMARK VINA RESULT:      -5.4      3.141      3.887
REMARK  20 active torsions:
REMARK  status: ('A' for Active; 'I' for Inactive)
REMARK    1  A    between atoms: C_3  and  C_2 
REMARK    2  A    between atoms: C_4  and  C_3 
REMARK    3  A    between atoms: C_5  and  C_4 
REMARK    4  A    between atoms: C_8  and  C_5 
REMARK    5  A    between atoms: C_7  and  C_6 
REMARK    6  A    between atoms: C_11  and  C_6 
REMARK    7  A    between atoms: C_13  and  C_7 
REMARK    8  A    between atoms: S_28  and  C_8 
REMARK    9  A    between atoms: C_14  and  C_9 
REMARK   10  A    between atoms: N_18  and  C_9 
REMARK   11  A    between atoms: C_12  and  C_10 
REMARK   12  A    between atoms: S_28  and  C_10 
REMARK   13  A    between atoms: C_16  and  C_11 
REMARK   14  A    between atoms: C_11  and  N_17 
REMARK   15  A    between atoms: C_15  and  C_12 
REMARK   16  A    between atoms: C_12  and  N_20 
REMARK   17  A    between atoms: C_13  and  O_22 
REMARK   18  A    between atoms: O_24  and  C_14 
REMARK   19  A    between atoms: O_25  and  C_15 
REMARK   20  A    between atoms: O_27  and  C_16 
ROOT
HETATM    1  C   UNK N   1      23.950  19.292   3.904  0.00  0.00     0.167 C 
ENDROOT
BRANCH   1   2
HETATM    2  C   UNK N   1      25.425  19.650   3.630  0.00  0.00     0.107 C 
BRANCH   2   3
HETATM    3  S   UNK N   1      26.563  19.577   5.050  0.00  0.00    -0.167 SA
BRANCH   3   4
HETATM    4  C   UNK N   1      27.481  18.210   4.284  0.00  0.00     0.074 C 
BRANCH   4   5
HETATM    5  C   UNK N   1      28.758  17.948   5.061  0.00  0.00     0.010 C 
BRANCH   5   6
HETATM    6  C   UNK N   1      28.455  17.274   6.386  0.00  0.00     0.001 C 
BRANCH   6   7
HETATM    7  C   UNK N   1      29.406  17.756   7.468  0.00  0.00    -0.000 C 
BRANCH   7   8
HETATM    8  C   UNK N   1      28.636  18.373   8.620  0.00  0.00    -0.005 C 
HETATM    9  C   UNK N   1      29.565  18.567   9.797  0.00  0.00     0.005 C 
ENDBRANCH   7   8
ENDBRANCH   6   7
ENDBRANCH   5   6
ENDBRANCH   4   5
ENDBRANCH   3   4
ENDBRANCH   2   3
ENDBRANCH   1   2
BRANCH   1  10
HETATM   10  C   UNK N   1      22.901  20.088   3.136  0.00  0.00     0.136 C 
HETATM   11  N   UNK N   1      21.733  19.587   2.907  0.00  0.00    -0.363 N 
ATOM     12  HN  UNK N   1      21.530  18.637   3.222  1.00  0.00     0.161 HD
BRANCH  11  13
HETATM   13  C   UNK N   1      20.705  20.333   2.217  0.00  0.00     0.231 C 
BRANCH  13  14
HETATM   14  C   UNK N   1      20.815  20.179   0.727  0.00  0.00     0.158 C 
HETATM   15  O   UNK N   1      21.214  21.098   0.029  0.00  0.00    -0.649 OA
BRANCH  14  16
HETATM   16  O   UNK N   1      20.461  19.013   0.154  0.00  0.00    -0.775 OA
HETATM   17  H   UNK N   1      19.644  18.906  -0.292  0.00  0.00     0.167 HD
ENDBRANCH  14  16
ENDBRANCH  13  14
ENDBRANCH  11  13
BRANCH  10  18
HETATM   18  O   UNK N   1      23.190  21.342   2.731  0.00  0.00    -0.348 OA
HETATM   19  H   UNK N   1      22.498  21.930   2.496  0.00  0.00     0.219 HD
ENDBRANCH  10  18
ENDBRANCH   1  10
BRANCH   1  20
HETATM   20  N   UNK N   1      23.787  17.853   3.780  0.00  0.00    -0.362 N 
HETATM   21  C   UNK N   1      23.319  17.088   4.712  0.00  0.00     0.111 C 
ATOM     22  HN  UNK N   1      24.061  17.417   2.900  1.00  0.00     0.162 HD
BRANCH  21  23
HETATM   23  C   UNK N   1      23.135  15.634   4.440  0.00  0.00     0.086 C 
BRANCH  23  24
HETATM   24  C   UNK N   1      21.689  15.357   4.077  0.00  0.00     0.043 C 
BRANCH  24  25
HETATM   25  C   UNK N   1      21.566  14.912   2.627  0.00  0.00     0.173 C 
BRANCH  25  26
HETATM   26  C   UNK N   1      20.875  15.982   1.839  0.00  0.00     0.163 C 
HETATM   27  O   UNK N   1      20.897  15.961   0.617  0.00  0.00    -0.648 OA
BRANCH  26  28
HETATM   28  O   UNK N   1      20.232  16.978   2.477  0.00  0.00    -0.775 OA
HETATM   29  H   UNK N   1      20.637  17.565   3.085  0.00  0.00     0.167 HD
ENDBRANCH  26  28
ENDBRANCH  25  26
BRANCH  25  30
HETATM   30  N   UNK N   1      22.885  14.664   2.067  0.00  0.00    -0.418 N 
HETATM   31  H   UNK N   1      23.116  14.751   1.077  0.00  0.00     0.150 HD
HETATM   32  H   UNK N   1      23.630  14.387   2.706  0.00  0.00     0.150 HD
ENDBRANCH  25  30
ENDBRANCH  24  25
ENDBRANCH  23  24
ENDBRANCH  21  23
BRANCH  21  33
HETATM   33  O   UNK N   1      22.968  17.591   5.915  0.00  0.00    -0.350 OA
HETATM   34  H   UNK N   1      22.427  17.663   6.676  0.00  0.00     0.219 HD
ENDBRANCH  21  33
ENDBRANCH   1  20
TORSDOF 20
ENDMDL
MODEL 5
REMARK VINA RESULT:      -5.4      8.348     11.682
REMARK  20 active torsions:
REMARK  status: ('A' for Active; 'I' for Inactive)
REMARK    1  A    between atoms: C_3  and  C_2 
REMARK    2  A    between atoms: C_4  and  C_3 
REMARK    3  A    between atoms: C_5  and  C_4 
REMARK    4  A    between atoms: C_8  and  C_5 
REMARK    5  A    between atoms: C_7  and  C_6 
REMARK    6  A    between atoms: C_11  and  C_6 
REMARK    7  A    between atoms: C_13  and  C_7 
REMARK    8  A    between atoms: S_28  and  C_8 
REMARK    9  A    between atoms: C_14  and  C_9 
REMARK   10  A    between atoms: N_18  and  C_9 
REMARK   11  A    between atoms: C_12  and  C_10 
REMARK   12  A    between atoms: S_28  and  C_10 
REMARK   13  A    between atoms: C_16  and  C_11 
REMARK   14  A    between atoms: C_11  and  N_17 
REMARK   15  A    between atoms: C_15  and  C_12 
REMARK   16  A    between atoms: C_12  and  N_20 
REMARK   17  A    between atoms: C_13  and  O_22 
REMARK   18  A    between atoms: O_24  and  C_14 
REMARK   19  A    between atoms: O_25  and  C_15 
REMARK   20  A    between atoms: O_27  and  C_16 
ROOT
HETATM    1  C   UNK N   1      32.371  17.371   8.307  0.00  0.00     0.167 C 
ENDROOT
BRANCH   1   2
HETATM    2  C   UNK N   1      30.961  17.669   8.854  0.00  0.00     0.107 C 
BRANCH   2   3
HETATM    3  S   UNK N   1      29.557  17.249   7.773  0.00  0.00    -0.167 SA
BRANCH   3   4
HETATM    4  C   UNK N   1      28.428  18.227   8.806  0.00  0.00     0.074 C 
BRANCH   4   5
HETATM    5  C   UNK N   1      27.886  19.399   8.008  0.00  0.00     0.010 C 
BRANCH   5   6
HETATM    6  C   UNK N   1      28.024  19.148   6.518  0.00  0.00     0.001 C 
BRANCH   6   7
HETATM    7  C   UNK N   1      27.644  20.385   5.723  0.00  0.00    -0.000 C 
BRANCH   7   8
HETATM    8  C   UNK N   1      27.392  20.030   4.271  0.00  0.00    -0.005 C 
HETATM    9  C   UNK N   1      27.589  18.544   4.076  0.00  0.00     0.005 C 
ENDBRANCH   7   8
ENDBRANCH   6   7
ENDBRANCH   5   6
ENDBRANCH   4   5
ENDBRANCH   3   4
ENDBRANCH   2   3
ENDBRANCH   1   2
BRANCH   1  10
HETATM   10  C   UNK N   1      33.140  16.243   8.985  0.00  0.00     0.136 C 
HETATM   11  N   UNK N   1      34.409  16.102   8.789  0.00  0.00    -0.363 N 
ATOM     12  HN  UNK N   1      34.886  16.740   8.150  1.00  0.00     0.161 HD
BRANCH  11  13
HETATM   13  C   UNK N   1      35.173  15.067   9.450  0.00  0.00     0.231 C 
BRANCH  13  14
HETATM   14  C   UNK N   1      35.707  15.534  10.774  0.00  0.00     0.158 C 
HETATM   15  O   UNK N   1      35.056  15.394  11.797  0.00  0.00    -0.649 OA
BRANCH  14  16
HETATM   16  O   UNK N   1      36.917  16.122  10.829  0.00  0.00    -0.775 OA
HETATM   17  H   UNK N   1      37.494  16.006  11.558  0.00  0.00     0.167 HD
ENDBRANCH  14  16
ENDBRANCH  13  14
ENDBRANCH  11  13
BRANCH  10  18
HETATM   18  O   UNK N   1      32.491  15.413   9.828  0.00  0.00    -0.348 OA
HETATM   19  H   UNK N   1      32.908  14.630  10.129  0.00  0.00     0.219 HD
ENDBRANCH  10  18
ENDBRANCH   1  10
BRANCH   1  20
HETATM   20  N   UNK N   1      32.293  17.229   6.863  0.00  0.00    -0.362 N 
HETATM   21  C   UNK N   1      33.248  17.535   6.046  0.00  0.00     0.111 C 
ATOM     22  HN  UNK N   1      31.426  16.866   6.466  1.00  0.00     0.162 HD
BRANCH  21  23
HETATM   23  C   UNK N   1      33.072  17.280   4.588  0.00  0.00     0.086 C 
BRANCH  23  24
HETATM   24  C   UNK N   1      31.620  17.482   4.201  0.00  0.00     0.043 C 
BRANCH  24  25
HETATM   25  C   UNK N   1      31.060  16.244   3.516  0.00  0.00     0.173 C 
BRANCH  25  26
HETATM   26  C   UNK N   1      30.301  15.426   4.515  0.00  0.00     0.163 C 
HETATM   27  O   UNK N   1      29.082  15.360   4.460  0.00  0.00    -0.648 OA
BRANCH  26  28
HETATM   28  O   UNK N   1      30.961  14.765   5.484  0.00  0.00    -0.775 OA
HETATM   29  H   UNK N   1      30.555  14.189   6.102  0.00  0.00     0.167 HD
ENDBRANCH  26  28
ENDBRANCH  25  26
BRANCH  25  30
HETATM   30  N   UNK N   1      30.177  16.633   2.427  0.00  0.00    -0.418 N 
HETATM   31  H   UNK N   1      30.366  16.453   1.441  0.00  0.00     0.150 HD
HETATM   32  H   UNK N   1      29.311  17.116   2.665  0.00  0.00     0.150 HD
ENDBRANCH  25  30
ENDBRANCH  24  25
ENDBRANCH  23  24
ENDBRANCH  21  23
BRANCH  21  33
HETATM   33  O   UNK N   1      34.410  18.053   6.497  0.00  0.00    -0.350 OA
HETATM   34  H   UNK N   1      34.942  18.554   7.082  0.00  0.00     0.219 HD
ENDBRANCH  21  33
ENDBRANCH   1  20
TORSDOF 20
ENDMDL
MODEL 6
REMARK VINA RESULT:      -5.3      9.114     12.228
REMARK  20 active torsions:
REMARK  status: ('A' for Active; 'I' for Inactive)
REMARK    1  A    between atoms: C_3  and  C_2 
REMARK    2  A    between atoms: C_4  and  C_3 
REMARK    3  A    between atoms: C_5  and  C_4 
REMARK    4  A    between atoms: C_8  and  C_5 
REMARK    5  A    between atoms: C_7  and  C_6 
REMARK    6  A    between atoms: C_11  and  C_6 
REMARK    7  A    between atoms: C_13  and  C_7 
REMARK    8  A    between atoms: S_28  and  C_8 
REMARK    9  A    between atoms: C_14  and  C_9 
REMARK   10  A    between atoms: N_18  and  C_9 
REMARK   11  A    between atoms: C_12  and  C_10 
REMARK   12  A    between atoms: S_28  and  C_10 
REMARK   13  A    between atoms: C_16  and  C_11 
REMARK   14  A    between atoms: C_11  and  N_17 
REMARK   15  A    between atoms: C_15  and  C_12 
REMARK   16  A    between atoms: C_12  and  N_20 
REMARK   17  A    between atoms: C_13  and  O_22 
REMARK   18  A    between atoms: O_24  and  C_14 
REMARK   19  A    between atoms: O_25  and  C_15 
REMARK   20  A    between atoms: O_27  and  C_16 
ROOT
HETATM    1  C   UNK N   1      33.773  16.541   8.492  0.00  0.00     0.167 C 
ENDROOT
BRANCH   1   2
HETATM    2  C   UNK N   1      34.359  16.306   7.086  0.00  0.00     0.107 C 
BRANCH   2   3
HETATM    3  S   UNK N   1      34.775  14.588   6.647  0.00  0.00    -0.167 SA
BRANCH   3   4
HETATM    4  C   UNK N   1      34.575  14.959   4.880  0.00  0.00     0.074 C 
BRANCH   4   5
HETATM    5  C   UNK N   1      33.151  15.406   4.606  0.00  0.00     0.010 C 
BRANCH   5   6
HETATM    6  C   UNK N   1      33.124  16.518   3.574  0.00  0.00     0.001 C 
BRANCH   6   7
HETATM    7  C   UNK N   1      32.217  17.651   4.025  0.00  0.00    -0.000 C 
BRANCH   7   8
HETATM    8  C   UNK N   1      31.280  17.182   5.121  0.00  0.00    -0.005 C 
HETATM    9  C   UNK N   1      29.874  17.643   4.810  0.00  0.00     0.005 C 
ENDBRANCH   7   8
ENDBRANCH   6   7
ENDBRANCH   5   6
ENDBRANCH   4   5
ENDBRANCH   3   4
ENDBRANCH   2   3
ENDBRANCH   1   2
BRANCH   1  10
HETATM   10  C   UNK N   1      34.773  16.644   9.638  0.00  0.00     0.136 C 
HETATM   11  N   UNK N   1      35.063  15.608  10.353  0.00  0.00    -0.363 N 
ATOM     12  HN  UNK N   1      34.592  14.724  10.159  1.00  0.00     0.161 HD
BRANCH  11  13
HETATM   13  C   UNK N   1      36.037  15.666  11.420  0.00  0.00     0.231 C 
BRANCH  13  14
HETATM   14  C   UNK N   1      35.824  14.568  12.423  0.00  0.00     0.158 C 
HETATM   15  O   UNK N   1      34.741  14.015  12.527  0.00  0.00    -0.649 OA
BRANCH  14  16
HETATM   16  O   UNK N   1      36.840  14.198  13.225  0.00  0.00    -0.775 OA
HETATM   17  H   UNK N   1      37.345  14.821  13.709  0.00  0.00     0.167 HD
ENDBRANCH  14  16
ENDBRANCH  13  14
ENDBRANCH  11  13
BRANCH  10  18
HETATM   18  O   UNK N   1      35.386  17.822   9.876  0.00  0.00    -0.348 OA
HETATM   19  H   UNK N   1      35.309  18.524   9.260  0.00  0.00     0.219 HD
ENDBRANCH  10  18
ENDBRANCH   1  10
BRANCH   1  20
HETATM   20  N   UNK N   1      32.845  17.658   8.433  0.00  0.00    -0.362 N 
HETATM   21  C   UNK N   1      31.622  17.614   8.849  0.00  0.00     0.111 C 
ATOM     22  HN  UNK N   1      33.182  18.535   8.035  1.00  0.00     0.162 HD
BRANCH  21  23
HETATM   23  C   UNK N   1      30.788  18.848   8.797  0.00  0.00     0.086 C 
BRANCH  23  24
HETATM   24  C   UNK N   1      29.388  18.544   9.295  0.00  0.00     0.043 C 
BRANCH  24  25
HETATM   25  C   UNK N   1      28.403  18.464   8.138  0.00  0.00     0.173 C 
BRANCH  25  26
HETATM   26  C   UNK N   1      27.688  17.149   8.188  0.00  0.00     0.163 C 
HETATM   27  O   UNK N   1      27.505  16.506   7.165  0.00  0.00    -0.648 OA
BRANCH  26  28
HETATM   28  O   UNK N   1      27.237  16.672   9.364  0.00  0.00    -0.775 OA
HETATM   29  H   UNK N   1      26.833  17.197  10.026  0.00  0.00     0.167 HD
ENDBRANCH  26  28
ENDBRANCH  25  26
BRANCH  25  30
HETATM   30  N   UNK N   1      27.439  19.550   8.227  0.00  0.00    -0.418 N 
HETATM   31  H   UNK N   1      26.693  19.602   8.921  0.00  0.00     0.150 HD
HETATM   32  H   UNK N   1      27.514  20.311   7.552  0.00  0.00     0.150 HD
ENDBRANCH  25  30
ENDBRANCH  24  25
ENDBRANCH  23  24
ENDBRANCH  21  23
BRANCH  21  33
HETATM   33  O   UNK N   1      31.099  16.477   9.356  0.00  0.00    -0.350 OA
HETATM   34  H   UNK N   1      30.603  15.976   9.971  0.00  0.00     0.219 HD
ENDBRANCH  21  33
ENDBRANCH   1  20
TORSDOF 20
ENDMDL
MODEL 7
REMARK VINA RESULT:      -5.3     14.150     16.183
REMARK  20 active torsions:
REMARK  status: ('A' for Active; 'I' for Inactive)
REMARK    1  A    between atoms: C_3  and  C_2 
REMARK    2  A    between atoms: C_4  and  C_3 
REMARK    3  A    between atoms: C_5  and  C_4 
REMARK    4  A    between atoms: C_8  and  C_5 
REMARK    5  A    between atoms: C_7  and  C_6 
REMARK    6  A    between atoms: C_11  and  C_6 
REMARK    7  A    between atoms: C_13  and  C_7 
REMARK    8  A    between atoms: S_28  and  C_8 
REMARK    9  A    between atoms: C_14  and  C_9 
REMARK   10  A    between atoms: N_18  and  C_9 
REMARK   11  A    between atoms: C_12  and  C_10 
REMARK   12  A    between atoms: S_28  and  C_10 
REMARK   13  A    between atoms: C_16  and  C_11 
REMARK   14  A    between atoms: C_11  and  N_17 
REMARK   15  A    between atoms: C_15  and  C_12 
REMARK   16  A    between atoms: C_12  and  N_20 
REMARK   17  A    between atoms: C_13  and  O_22 
REMARK   18  A    between atoms: O_24  and  C_14 
REMARK   19  A    between atoms: O_25  and  C_15 
REMARK   20  A    between atoms: O_27  and  C_16 
ROOT
HETATM    1  C   UNK N   1      35.145  13.994  10.615  0.00  0.00     0.167 C 
ENDROOT
BRANCH   1   2
HETATM    2  C   UNK N   1      35.268  12.897   9.540  0.00  0.00     0.107 C 
BRANCH   2   3
HETATM    3  S   UNK N   1      36.730  11.815   9.637  0.00  0.00    -0.167 SA
BRANCH   3   4
HETATM    4  C   UNK N   1      35.673  10.339   9.687  0.00  0.00     0.074 C 
BRANCH   4   5
HETATM    5  C   UNK N   1      35.776   9.679  11.050  0.00  0.00     0.010 C 
BRANCH   5   6
HETATM    6  C   UNK N   1      37.076  10.056  11.735  0.00  0.00     0.001 C 
BRANCH   6   7
HETATM    7  C   UNK N   1      37.049   9.660  13.202  0.00  0.00    -0.000 C 
BRANCH   7   8
HETATM    8  C   UNK N   1      35.671   9.165  13.596  0.00  0.00    -0.005 C 
HETATM    9  C   UNK N   1      35.672   8.797  15.063  0.00  0.00     0.005 C 
ENDBRANCH   7   8
ENDBRANCH   6   7
ENDBRANCH   5   6
ENDBRANCH   4   5
ENDBRANCH   3   4
ENDBRANCH   2   3
ENDBRANCH   1   2
BRANCH   1  10
HETATM   10  C   UNK N   1      34.256  15.185  10.276  0.00  0.00     0.136 C 
HETATM   11  N   UNK N   1      34.664  16.097   9.457  0.00  0.00    -0.363 N 
ATOM     12  HN  UNK N   1      35.603  16.026   9.063  1.00  0.00     0.161 HD
BRANCH  11  13
HETATM   13  C   UNK N   1      33.828  17.217   9.085  0.00  0.00     0.231 C 
BRANCH  13  14
HETATM   14  C   UNK N   1      34.517  18.119   8.101  0.00  0.00     0.158 C 
HETATM   15  O   UNK N   1      35.082  19.136   8.471  0.00  0.00    -0.649 OA
BRANCH  14  16
HETATM   16  O   UNK N   1      34.503  17.803   6.792  0.00  0.00    -0.775 OA
HETATM   17  H   UNK N   1      33.839  18.119   6.211  0.00  0.00     0.167 HD
ENDBRANCH  14  16
ENDBRANCH  13  14
ENDBRANCH  11  13
BRANCH  10  18
HETATM   18  O   UNK N   1      33.018  15.258  10.806  0.00  0.00    -0.348 OA
HETATM   19  H   UNK N   1      32.802  15.949  11.401  0.00  0.00     0.219 HD
ENDBRANCH  10  18
ENDBRANCH   1  10
BRANCH   1  20
HETATM   20  N   UNK N   1      34.813  13.370  11.886  0.00  0.00    -0.362 N 
HETATM   21  C   UNK N   1      35.574  13.391  12.930  0.00  0.00     0.111 C 
ATOM     22  HN  UNK N   1      33.920  12.882  11.957  1.00  0.00     0.162 HD
BRANCH  21  23
HETATM   23  C   UNK N   1      35.093  12.772  14.198  0.00  0.00     0.086 C 
BRANCH  23  24
HETATM   24  C   UNK N   1      36.259  12.563  15.144  0.00  0.00     0.043 C 
BRANCH  24  25
HETATM   25  C   UNK N   1      35.992  13.216  16.493  0.00  0.00     0.173 C 
BRANCH  25  26
HETATM   26  C   UNK N   1      36.705  14.532  16.555  0.00  0.00     0.163 C 
HETATM   27  O   UNK N   1      36.468  15.321  17.457  0.00  0.00    -0.648 OA
BRANCH  26  28
HETATM   28  O   UNK N   1      37.608  14.852  15.609  0.00  0.00    -0.775 OA
HETATM   29  H   UNK N   1      37.572  15.628  15.085  0.00  0.00     0.167 HD
ENDBRANCH  26  28
ENDBRANCH  25  26
BRANCH  25  30
HETATM   30  N   UNK N   1      34.563  13.423  16.673  0.00  0.00    -0.418 N 
HETATM   31  H   UNK N   1      33.904  13.581  15.911  0.00  0.00     0.150 HD
HETATM   32  H   UNK N   1      34.196  13.409  17.624  0.00  0.00     0.150 HD
ENDBRANCH  25  30
ENDBRANCH  24  25
ENDBRANCH  23  24
ENDBRANCH  21  23
BRANCH  21  33
HETATM   33  O   UNK N   1      36.784  13.989  12.899  0.00  0.00    -0.350 OA
HETATM   34  H   UNK N   1      37.582  14.262  12.492  0.00  0.00     0.219 HD
ENDBRANCH  21  33
ENDBRANCH   1  20
TORSDOF 20
ENDMDL
MODEL 8
REMARK VINA RESULT:      -5.3      1.733      2.854
REMARK  20 active torsions:
REMARK  status: ('A' for Active; 'I' for Inactive)
REMARK    1  A    between atoms: C_3  and  C_2 
REMARK    2  A    between atoms: C_4  and  C_3 
REMARK    3  A    between atoms: C_5  and  C_4 
REMARK    4  A    between atoms: C_8  and  C_5 
REMARK    5  A    between atoms: C_7  and  C_6 
REMARK    6  A    between atoms: C_11  and  C_6 
REMARK    7  A    between atoms: C_13  and  C_7 
REMARK    8  A    between atoms: S_28  and  C_8 
REMARK    9  A    between atoms: C_14  and  C_9 
REMARK   10  A    between atoms: N_18  and  C_9 
REMARK   11  A    between atoms: C_12  and  C_10 
REMARK   12  A    between atoms: S_28  and  C_10 
REMARK   13  A    between atoms: C_16  and  C_11 
REMARK   14  A    between atoms: C_11  and  N_17 
REMARK   15  A    between atoms: C_15  and  C_12 
REMARK   16  A    between atoms: C_12  and  N_20 
REMARK   17  A    between atoms: C_13  and  O_22 
REMARK   18  A    between atoms: O_24  and  C_14 
REMARK   19  A    between atoms: O_25  and  C_15 
REMARK   20  A    between atoms: O_27  and  C_16 
ROOT
HETATM    1  C   UNK N   1      22.740  17.328   4.758  0.00  0.00     0.167 C 
ENDROOT
BRANCH   1   2
HETATM    2  C   UNK N   1      23.828  16.270   4.479  0.00  0.00     0.107 C 
BRANCH   2   3
HETATM    3  S   UNK N   1      25.523  16.682   5.001  0.00  0.00    -0.167 SA
BRANCH   3   4
HETATM    4  C   UNK N   1      25.180  18.457   4.823  0.00  0.00     0.074 C 
BRANCH   4   5
HETATM    5  C   UNK N   1      25.967  19.019   3.652  0.00  0.00     0.010 C 
BRANCH   5   6
HETATM    6  C   UNK N   1      27.360  19.432   4.088  0.00  0.00     0.001 C 
BRANCH   6   7
HETATM    7  C   UNK N   1      27.382  19.788   5.564  0.00  0.00    -0.000 C 
BRANCH   7   8
HETATM    8  C   UNK N   1      27.239  21.286   5.755  0.00  0.00    -0.005 C 
HETATM    9  C   UNK N   1      26.404  21.557   6.987  0.00  0.00     0.005 C 
ENDBRANCH   7   8
ENDBRANCH   6   7
ENDBRANCH   5   6
ENDBRANCH   4   5
ENDBRANCH   3   4
ENDBRANCH   2   3
ENDBRANCH   1   2
BRANCH   1  10
HETATM   10  C   UNK N   1      21.846  17.711   3.585  0.00  0.00     0.136 C 
HETATM   11  N   UNK N   1      21.442  18.929   3.437  0.00  0.00    -0.363 N 
ATOM     12  HN  UNK N   1      21.705  19.627   4.134  1.00  0.00     0.161 HD
BRANCH  11  13
HETATM   13  C   UNK N   1      20.627  19.332   2.313  0.00  0.00     0.231 C 
BRANCH  13  14
HETATM   14  C   UNK N   1      21.144  20.591   1.678  0.00  0.00     0.158 C 
HETATM   15  O   UNK N   1      21.295  20.667   0.469  0.00  0.00    -0.649 OA
BRANCH  14  16
HETATM   16  O   UNK N   1      21.452  21.646   2.455  0.00  0.00    -0.775 OA
HETATM   17  H   UNK N   1      21.941  21.553   3.249  0.00  0.00     0.167 HD
ENDBRANCH  14  16
ENDBRANCH  13  14
ENDBRANCH  11  13
BRANCH  10  18
HETATM   18  O   UNK N   1      21.513  16.774   2.674  0.00  0.00    -0.348 OA
HETATM   19  H   UNK N   1      22.094  16.581   1.964  0.00  0.00     0.219 HD
ENDBRANCH  10  18
ENDBRANCH   1  10
BRANCH   1  20
HETATM   20  N   UNK N   1      21.999  16.935   5.945  0.00  0.00    -0.362 N 
HETATM   21  C   UNK N   1      21.324  15.838   6.055  0.00  0.00     0.111 C 
ATOM     22  HN  UNK N   1      22.010  17.569   6.744  1.00  0.00     0.162 HD
BRANCH  21  23
HETATM   23  C   UNK N   1      20.660  15.515   7.350  0.00  0.00     0.086 C 
BRANCH  23  24
HETATM   24  C   UNK N   1      19.424  16.376   7.523  0.00  0.00     0.043 C 
BRANCH  24  25
HETATM   25  C   UNK N   1      19.357  16.960   8.927  0.00  0.00     0.173 C 
BRANCH  25  26
HETATM   26  C   UNK N   1      19.795  18.392   8.887  0.00  0.00     0.163 C 
HETATM   27  O   UNK N   1      20.467  18.807   7.955  0.00  0.00    -0.648 OA
BRANCH  26  28
HETATM   28  O   UNK N   1      19.455  19.227   9.887  0.00  0.00    -0.775 OA
HETATM   29  H   UNK N   1      19.511  20.161   9.837  0.00  0.00     0.167 HD
ENDBRANCH  26  28
ENDBRANCH  25  26
BRANCH  25  30
HETATM   30  N   UNK N   1      17.998  16.876   9.439  0.00  0.00    -0.418 N 
HETATM   31  H   UNK N   1      17.212  17.413   9.073  0.00  0.00     0.150 HD
HETATM   32  H   UNK N   1      17.819  16.238  10.213  0.00  0.00     0.150 HD
ENDBRANCH  25  30
ENDBRANCH  24  25
ENDBRANCH  23  24
ENDBRANCH  21  23
BRANCH  21  33
HETATM   33  O   UNK N   1      21.235  14.969   5.026  0.00  0.00    -0.350 OA
HETATM   34  H   UNK N   1      20.913  14.206   4.588  0.00  0.00     0.219 HD
ENDBRANCH  21  33
ENDBRANCH   1  20
TORSDOF 20
ENDMDL
MODEL 9
REMARK VINA RESULT:      -5.2     12.481     14.085
REMARK  20 active torsions:
REMARK  status: ('A' for Active; 'I' for Inactive)
REMARK    1  A    between atoms: C_3  and  C_2 
REMARK    2  A    between atoms: C_4  and  C_3 
REMARK    3  A    between atoms: C_5  and  C_4 
REMARK    4  A    between atoms: C_8  and  C_5 
REMARK    5  A    between atoms: C_7  and  C_6 
REMARK    6  A    between atoms: C_11  and  C_6 
REMARK    7  A    between atoms: C_13  and  C_7 
REMARK    8  A    between atoms: S_28  and  C_8 
REMARK    9  A    between atoms: C_14  and  C_9 
REMARK   10  A    between atoms: N_18  and  C_9 
REMARK   11  A    between atoms: C_12  and  C_10 
REMARK   12  A    between atoms: S_28  and  C_10 
REMARK   13  A    between atoms: C_16  and  C_11 
REMARK   14  A    between atoms: C_11  and  N_17 
REMARK   15  A    between atoms: C_15  and  C_12 
REMARK   16  A    between atoms: C_12  and  N_20 
REMARK   17  A    between atoms: C_13  and  O_22 
REMARK   18  A    between atoms: O_24  and  C_14 
REMARK   19  A    between atoms: O_25  and  C_15 
REMARK   20  A    between atoms: O_27  and  C_16 
ROOT
HETATM    1  C   UNK N   1      28.978  24.513  -3.410  0.00  0.00     0.167 C 
ENDROOT
BRANCH   1   2
HETATM    2  C   UNK N   1      29.531  25.847  -3.950  0.00  0.00     0.107 C 
BRANCH   2   3
HETATM    3  S   UNK N   1      30.417  25.783  -5.540  0.00  0.00    -0.167 SA
BRANCH   3   4
HETATM    4  C   UNK N   1      29.540  27.262  -6.124  0.00  0.00     0.074 C 
BRANCH   4   5
HETATM    5  C   UNK N   1      28.341  26.853  -6.960  0.00  0.00     0.010 C 
BRANCH   5   6
HETATM    6  C   UNK N   1      27.138  27.720  -6.639  0.00  0.00     0.001 C 
BRANCH   6   7
HETATM    7  C   UNK N   1      25.868  26.888  -6.594  0.00  0.00    -0.000 C 
BRANCH   7   8
HETATM    8  C   UNK N   1      24.969  27.347  -5.462  0.00  0.00    -0.005 C 
HETATM    9  C   UNK N   1      25.748  27.334  -4.166  0.00  0.00     0.005 C 
ENDBRANCH   7   8
ENDBRANCH   6   7
ENDBRANCH   5   6
ENDBRANCH   4   5
ENDBRANCH   3   4
ENDBRANCH   2   3
ENDBRANCH   1   2
BRANCH   1  10
HETATM   10  C   UNK N   1      27.557  24.147  -3.823  0.00  0.00     0.136 C 
HETATM   11  N   UNK N   1      27.270  23.924  -5.063  0.00  0.00    -0.363 N 
ATOM     12  HN  UNK N   1      28.002  24.026  -5.768  1.00  0.00     0.161 HD
BRANCH  11  13
HETATM   13  C   UNK N   1      25.941  23.536  -5.480  0.00  0.00     0.231 C 
BRANCH  13  14
HETATM   14  C   UNK N   1      25.925  23.063  -6.906  0.00  0.00     0.158 C 
HETATM   15  O   UNK N   1      25.133  23.524  -7.711  0.00  0.00    -0.649 OA
BRANCH  14  16
HETATM   16  O   UNK N   1      26.792  22.109  -7.296  0.00  0.00    -0.775 OA
HETATM   17  H   UNK N   1      27.666  22.064  -6.961  0.00  0.00     0.167 HD
ENDBRANCH  14  16
ENDBRANCH  13  14
ENDBRANCH  11  13
BRANCH  10  18
HETATM   18  O   UNK N   1      26.606  24.015  -2.876  0.00  0.00    -0.348 OA
HETATM   19  H   UNK N   1      25.716  23.860  -3.123  0.00  0.00     0.219 HD
ENDBRANCH  10  18
ENDBRANCH   1  10
BRANCH   1  20
HETATM   20  N   UNK N   1      29.946  23.462  -3.677  0.00  0.00    -0.362 N 
HETATM   21  C   UNK N   1      30.576  22.799  -2.764  0.00  0.00     0.111 C 
ATOM     22  HN  UNK N   1      30.142  23.232  -4.652  1.00  0.00     0.162 HD
BRANCH  21  23
HETATM   23  C   UNK N   1      31.495  21.696  -3.163  0.00  0.00     0.086 C 
BRANCH  23  24
HETATM   24  C   UNK N   1      31.751  21.755  -4.657  0.00  0.00     0.043 C 
BRANCH  24  25
HETATM   25  C   UNK N   1      31.290  20.476  -5.341  0.00  0.00     0.173 C 
BRANCH  25  26
HETATM   26  C   UNK N   1      30.081  20.770  -6.175  0.00  0.00     0.163 C 
HETATM   27  O   UNK N   1      29.698  19.967  -7.012  0.00  0.00    -0.648 OA
BRANCH  26  28
HETATM   28  O   UNK N   1      29.416  21.929  -6.010  0.00  0.00    -0.775 OA
HETATM   29  H   UNK N   1      29.791  22.706  -5.644  0.00  0.00     0.167 HD
ENDBRANCH  26  28
ENDBRANCH  25  26
BRANCH  25  30
HETATM   30  N   UNK N   1      32.352  19.949  -6.183  0.00  0.00    -0.418 N 
HETATM   31  H   UNK N   1      33.339  19.943  -5.928  0.00  0.00     0.150 HD
HETATM   32  H   UNK N   1      32.092  19.560  -7.089  0.00  0.00     0.150 HD
ENDBRANCH  25  30
ENDBRANCH  24  25
ENDBRANCH  23  24
ENDBRANCH  21  23
BRANCH  21  33
HETATM   33  O   UNK N   1      30.392  23.072  -1.454  0.00  0.00    -0.350 OA
HETATM   34  H   UNK N   1      30.347  23.632  -0.705  0.00  0.00     0.219 HD
ENDBRANCH  21  33
ENDBRANCH   1  20
TORSDOF 20
ENDMDL
