MODEL 1
REMARK VINA RESULT:      -4.0      0.000      0.000
REMARK  1 active torsions:
REMARK  status: ('A' for Active; 'I' for Inactive)
REMARK    1  A    between atoms: C_2  and  C_5 
ROOT
HETATM    1  C   UNK N   1      32.784  16.521   8.649  0.00  0.00     0.075 C 
HETATM    2  C   UNK N   1      34.026  17.272   9.005  0.00  0.00     0.076 C 
HETATM    3  N   UNK N   1      34.589  17.049  10.133  0.00  0.00    -0.397 N 
ATOM      4  HN  UNK N   1      34.190  16.366  10.777  1.00  0.00     0.156 HD
HETATM    5  H   UNK N   1      35.408  17.537  10.379  0.00  0.00     0.156 HD
ENDROOT
BRANCH   2   6
HETATM    6  C   UNK N   1      34.609  18.262   8.075  0.00  0.00     0.221 C 
HETATM    7  O   UNK N   1      35.332  19.292   8.561  0.00  0.00    -0.643 OA
HETATM    8  O   UNK N   1      34.443  18.157   6.871  0.00  0.00    -0.643 OA
ENDBRANCH   2   6
TORSDOF 1
ENDMDL
MODEL 2
REMARK VINA RESULT:      -3.3      1.975      2.185
REMARK  1 active torsions:
REMARK  status: ('A' for Active; 'I' for Inactive)
REMARK    1  A    between atoms: C_2  and  C_5 
ROOT
HETATM    1  C   UNK N   1      32.125  17.856   8.225  0.00  0.00     0.075 C 
HETATM    2  C   UNK N   1      33.527  17.910   7.708  0.00  0.00     0.076 C 
HETATM    3  N   UNK N   1      33.745  17.665   6.470  0.00  0.00    -0.397 N 
ATOM      4  HN  UNK N   1      32.969  17.437   5.850  1.00  0.00     0.156 HD
HETATM    5  H   UNK N   1      34.663  17.698   6.117  0.00  0.00     0.156 HD
ENDROOT
BRANCH   2   6
HETATM    6  C   UNK N   1      34.655  18.242   8.602  0.00  0.00     0.221 C 
HETATM    7  O   UNK N   1      34.954  17.425   9.633  0.00  0.00    -0.643 OA
HETATM    8  O   UNK N   1      35.320  19.247   8.418  0.00  0.00    -0.643 OA
ENDBRANCH   2   6
TORSDOF 1
ENDMDL
MODEL 3
REMARK VINA RESULT:      -3.3     15.142     15.423
REMARK  1 active torsions:
REMARK  status: ('A' for Active; 'I' for Inactive)
REMARK    1  A    between atoms: C_2  and  C_5 
ROOT
HETATM    1  C   UNK N   1      20.801  17.688   2.979  0.00  0.00     0.075 C 
HETATM    2  C   UNK N   1      19.950  18.883   2.697  0.00  0.00     0.076 C 
HETATM    3  N   UNK N   1      18.734  18.712   2.334  0.00  0.00    -0.397 N 
ATOM      4  HN  UNK N   1      18.357  17.770   2.240  1.00  0.00     0.156 HD
HETATM    5  H   UNK N   1      18.163  19.492   2.145  0.00  0.00     0.156 HD
ENDROOT
BRANCH   2   6
HETATM    6  C   UNK N   1      20.492  20.251   2.832  0.00  0.00     0.221 C 
HETATM    7  O   UNK N   1      21.200  20.794   1.820  0.00  0.00    -0.643 OA
HETATM    8  O   UNK N   1      20.305  20.896   3.850  0.00  0.00    -0.643 OA
ENDBRANCH   2   6
TORSDOF 1
ENDMDL
MODEL 4
REMARK VINA RESULT:      -3.3      3.247      3.639
REMARK  1 active torsions:
REMARK  status: ('A' for Active; 'I' for Inactive)
REMARK    1  A    between atoms: C_2  and  C_5 
ROOT
HETATM    1  C   UNK N   1      35.215  14.227  12.163  0.00  0.00     0.075 C 
HETATM    2  C   UNK N   1      34.645  15.185  11.167  0.00  0.00     0.076 C 
HETATM    3  N   UNK N   1      33.439  15.026  10.768  0.00  0.00    -0.397 N 
ATOM      4  HN  UNK N   1      32.879  14.254  11.130  1.00  0.00     0.156 HD
HETATM    5  H   UNK N   1      33.051  15.649  10.112  0.00  0.00     0.156 HD
ENDROOT
BRANCH   2   6
HETATM    6  C   UNK N   1      35.452  16.304  10.640  0.00  0.00     0.221 C 
HETATM    7  O   UNK N   1      34.840  17.352  10.052  0.00  0.00    -0.643 OA
HETATM    8  O   UNK N   1      36.668  16.291  10.732  0.00  0.00    -0.643 OA
ENDBRANCH   2   6
TORSDOF 1
ENDMDL
MODEL 5
REMARK VINA RESULT:      -3.3     11.838     12.391
REMARK  1 active torsions:
REMARK  status: ('A' for Active; 'I' for Inactive)
REMARK    1  A    between atoms: C_2  and  C_5 
ROOT
HETATM    1  C   UNK N   1      44.038  20.782   3.321  0.00  0.00     0.075 C 
HETATM    2  C   UNK N   1      44.629  22.134   3.562  0.00  0.00     0.076 C 
HETATM    3  N   UNK N   1      45.739  22.226   4.193  0.00  0.00    -0.397 N 
ATOM      4  HN  UNK N   1      46.210  21.385   4.524  1.00  0.00     0.156 HD
HETATM    5  H   UNK N   1      46.139  23.111   4.358  0.00  0.00     0.156 HD
ENDROOT
BRANCH   2   6
HETATM    6  C   UNK N   1      43.950  23.357   3.085  0.00  0.00     0.221 C 
HETATM    7  O   UNK N   1      44.635  24.516   3.008  0.00  0.00    -0.643 OA
HETATM    8  O   UNK N   1      42.775  23.328   2.759  0.00  0.00    -0.643 OA
ENDBRANCH   2   6
TORSDOF 1
ENDMDL
MODEL 6
REMARK VINA RESULT:      -3.2      1.590      1.677
REMARK  1 active torsions:
REMARK  status: ('A' for Active; 'I' for Inactive)
REMARK    1  A    between atoms: C_2  and  C_5 
ROOT
HETATM    1  C   UNK N   1      31.607  17.043   6.823  0.00  0.00     0.075 C 
HETATM    2  C   UNK N   1      32.669  17.466   7.785  0.00  0.00     0.076 C 
HETATM    3  N   UNK N   1      32.442  17.381   9.043  0.00  0.00    -0.397 N 
ATOM      4  HN  UNK N   1      31.546  17.028   9.377  1.00  0.00     0.156 HD
HETATM    5  H   UNK N   1      33.133  17.656   9.687  0.00  0.00     0.156 HD
ENDROOT
BRANCH   2   6
HETATM    6  C   UNK N   1      33.969  17.979   7.306  0.00  0.00     0.221 C 
HETATM    7  O   UNK N   1      34.738  18.725   8.125  0.00  0.00    -0.643 OA
HETATM    8  O   UNK N   1      34.356  17.733   6.175  0.00  0.00    -0.643 OA
ENDBRANCH   2   6
TORSDOF 1
ENDMDL
MODEL 7
REMARK VINA RESULT:      -3.1     12.381     12.874
REMARK  1 active torsions:
REMARK  status: ('A' for Active; 'I' for Inactive)
REMARK    1  A    between atoms: C_2  and  C_5 
ROOT
HETATM    1  C   UNK N   1      30.328  21.710  -4.809  0.00  0.00     0.075 C 
HETATM    2  C   UNK N   1      31.296  21.033  -3.893  0.00  0.00     0.076 C 
HETATM    3  N   UNK N   1      31.701  19.852  -4.176  0.00  0.00    -0.397 N 
ATOM      4  HN  UNK N   1      31.364  19.384  -5.016  1.00  0.00     0.156 HD
HETATM    5  H   UNK N   1      32.338  19.395  -3.581  0.00  0.00     0.156 HD
ENDROOT
BRANCH   2   6
HETATM    6  C   UNK N   1      31.788  21.707  -2.674  0.00  0.00     0.221 C 
HETATM    7  O   UNK N   1      32.923  21.280  -2.084  0.00  0.00    -0.643 OA
HETATM    8  O   UNK N   1      31.177  22.648  -2.194  0.00  0.00    -0.643 OA
ENDBRANCH   2   6
TORSDOF 1
ENDMDL
MODEL 8
REMARK VINA RESULT:      -3.0     17.195     17.602
REMARK  1 active torsions:
REMARK  status: ('A' for Active; 'I' for Inactive)
REMARK    1  A    between atoms: C_2  and  C_5 
ROOT
HETATM    1  C   UNK N   1      24.961  27.270  -5.374  0.00  0.00     0.075 C 
HETATM    2  C   UNK N   1      25.774  27.421  -4.128  0.00  0.00     0.076 C 
HETATM    3  N   UNK N   1      25.626  28.471  -3.410  0.00  0.00    -0.397 N 
ATOM      4  HN  UNK N   1      24.960  29.191  -3.689  1.00  0.00     0.156 HD
HETATM    5  H   UNK N   1      26.155  28.583  -2.588  0.00  0.00     0.156 HD
ENDROOT
BRANCH   2   6
HETATM    6  C   UNK N   1      26.740  26.381  -3.720  0.00  0.00     0.221 C 
HETATM    7  O   UNK N   1      28.048  26.529  -4.013  0.00  0.00    -0.643 OA
HETATM    8  O   UNK N   1      26.366  25.387  -3.119  0.00  0.00    -0.643 OA
ENDBRANCH   2   6
TORSDOF 1
ENDMDL
MODEL 9
REMARK VINA RESULT:      -2.9     12.611     13.172
REMARK  1 active torsions:
REMARK  status: ('A' for Active; 'I' for Inactive)
REMARK    1  A    between atoms: C_2  and  C_5 
ROOT
HETATM    1  C   UNK N   1      32.183  22.807  -4.647  0.00  0.00     0.075 C 
HETATM    2  C   UNK N   1      31.589  22.364  -3.349  0.00  0.00     0.076 C 
HETATM    3  N   UNK N   1      31.773  21.158  -2.957  0.00  0.00    -0.397 N 
ATOM      4  HN  UNK N   1      32.319  20.514  -3.528  1.00  0.00     0.156 HD
HETATM    5  H   UNK N   1      31.387  20.854  -2.105  0.00  0.00     0.156 HD
ENDROOT
BRANCH   2   6
HETATM    6  C   UNK N   1      30.796  23.294  -2.518  0.00  0.00     0.221 C 
HETATM    7  O   UNK N   1      30.568  24.550  -2.953  0.00  0.00    -0.643 OA
HETATM    8  O   UNK N   1      30.346  22.937  -1.443  0.00  0.00    -0.643 OA
ENDBRANCH   2   6
TORSDOF 1
ENDMDL
