REMARK  14 active torsions:
REMARK  status: ('A' for Active; 'I' for Inactive)
REMARK    1  A    between atoms: C_2  and  C_1 
REMARK    2  A    between atoms: C_5  and  C_1 
REMARK    3  A    between atoms: S_17  and  C_2 
REMARK    4  A    between atoms: C_6  and  C_3 
REMARK    5  A    between atoms: O_11  and  C_3 
REMARK    6  A    between atoms: C_7  and  C_4 
REMARK    7  A    between atoms: S_17  and  C_4 
REMARK    8  A    between atoms: C_9  and  C_5 
REMARK    9  A    between atoms: C_5  and  N_10 
REMARK   10  A    between atoms: C_8  and  C_6 
REMARK   11  A    between atoms: C_8  and  C_7 
REMARK   12  A    between atoms: C_7  and  O_13 
REMARK   13  A    between atoms: C_8  and  O_14 
REMARK   14  A    between atoms: O_16  and  C_9 
ROOT
HETATM    1  C   UNK N   1       4.633   2.184   0.564  0.00  0.00     0.108 C 
ENDROOT
BRANCH   1   2
HETATM    2  C   UNK N   1       3.412   1.261   0.548  0.00  0.00     0.163 C 
BRANCH   2   3
HETATM    3  C   UNK N   1       2.236   1.826  -0.273  0.00  0.00     0.219 C 
BRANCH   3   4
HETATM    4  C   UNK N   1       0.990   0.982  -0.078  0.00  0.00     0.181 C 
HETATM    5  O   UNK N   1       0.998  -0.196  -0.398  0.00  0.00    -0.293 OA
BRANCH   4   6
HETATM    6  C   UNK N   1      -0.258   1.557   0.522  0.00  0.00     0.245 C 
BRANCH   6   7
HETATM    7  O   UNK N   1      -0.773   2.561  -0.300  0.00  0.00    -0.393 OA
HETATM    8  H   UNK N   1      -0.348   3.219  -0.871  0.00  0.00     0.209 HD
ENDBRANCH   6   7
ENDBRANCH   4   6
ENDBRANCH   3   4
BRANCH   3   9
HETATM    9  O   UNK N   1       1.986   3.143   0.127  0.00  0.00    -0.385 OA
HETATM   10  H   UNK N   1       2.690   3.749   0.404  0.00  0.00     0.210 HD
ENDBRANCH   3   9
ENDBRANCH   2   3
BRANCH   2  11
HETATM   11  O   UNK N   1       3.780  -0.004   0.083  0.00  0.00    -0.392 OA
HETATM   12  H   UNK N   1       3.147  -0.665  -0.240  0.00  0.00     0.210 HD
ENDBRANCH   2  11
ENDBRANCH   1   2
BRANCH   1  13
HETATM   13  S   UNK N   1       5.445   2.439  -1.056  0.00  0.00    -0.166 SA
BRANCH  13  14
HETATM   14  C   UNK N   1       6.802   1.253  -0.742  0.00  0.00     0.076 C 
BRANCH  14  15
HETATM   15  C   UNK N   1       7.551   1.589   0.547  0.00  0.00     0.045 C 
BRANCH  15  16
HETATM   16  C   UNK N   1       8.968   2.142   0.363  0.00  0.00     0.174 C 
BRANCH  16  17
HETATM   17  C   UNK N   1       9.944   1.141  -0.198  0.00  0.00     0.163 C 
HETATM   18  O   UNK N   1      11.121   1.451  -0.318  0.00  0.00    -0.648 OA
BRANCH  17  19
HETATM   19  O   UNK N   1       9.547  -0.097  -0.549  0.00  0.00    -0.775 OA
HETATM   20  H   UNK N   1       8.663  -0.288  -0.793  0.00  0.00     0.167 HD
ENDBRANCH  17  19
ENDBRANCH  16  17
BRANCH  16  21
HETATM   21  N   UNK N   1       8.937   3.332  -0.472  0.00  0.00    -0.418 N 
HETATM   22  H   UNK N   1       9.649   3.768  -1.058  0.00  0.00     0.150 HD
HETATM   23  H   UNK N   1       8.041   3.819  -0.472  0.00  0.00     0.150 HD
ENDBRANCH  16  21
ENDBRANCH  15  16
ENDBRANCH  14  15
ENDBRANCH  13  14
ENDBRANCH   1  13
TORSDOF 14
