REMARK  6 active torsions:
REMARK  status: ('A' for Active; 'I' for Inactive)
REMARK    1  A    between atoms: O_1  and  P_2 
REMARK    2  A    between atoms: P_2  and  O_3 
REMARK    3  A    between atoms: P_2  and  O_5 
REMARK    4  A    between atoms: O_5  and  P_6 
REMARK    5  A    between atoms: P_6  and  O_7 
REMARK    6  A    between atoms: P_6  and  O_8 
ROOT
HETATM    1  O   UNK N   1       0.990  -0.832  -0.501  0.00  0.00    -0.195 OA
ENDROOT
BRANCH   1   2
HETATM    2  P   UNK N   1       0.125  -1.952   0.516  0.00  0.00     0.399 P 
HETATM    3  O   UNK N   1      -0.990  -1.456  -0.442  0.00  0.00    -0.631 OA
BRANCH   2   4
HETATM    4  O   UNK N   1      -0.530  -3.419  -0.138  0.00  0.00    -0.307 OA
HETATM    5  H   UNK N   1      -1.424  -3.512  -0.504  0.00  0.00     0.222 HD
ENDBRANCH   2   4
BRANCH   2   6
HETATM    6  O   UNK N   1       1.335  -2.811  -0.383  0.00  0.00    -0.307 OA
HETATM    7  H   UNK N   1       1.258  -3.637  -0.886  0.00  0.00     0.222 HD
ENDBRANCH   2   6
ENDBRANCH   1   2
BRANCH   1   8
HETATM    8  P   UNK N   1       1.276   0.568   0.497  0.00  0.00     0.399 P 
HETATM    9  O   UNK N   1       0.204   1.087  -0.498  0.00  0.00    -0.631 OA
BRANCH   8  10
HETATM   10  O   UNK N   1       1.999   1.997  -0.169  0.00  0.00    -0.307 OA
HETATM   11  H   UNK N   1       2.893   2.046  -0.542  0.00  0.00     0.222 HD
ENDBRANCH   8  10
BRANCH   8  12
HETATM   12  O   UNK N   1       2.732   0.169  -0.359  0.00  0.00    -0.307 OA
HETATM   13  H   UNK N   1       2.945  -0.648  -0.837  0.00  0.00     0.222 HD
ENDBRANCH   8  12
ENDBRANCH   1   8
TORSDOF 6
