REMARK  10 active torsions:
REMARK  status: ('A' for Active; 'I' for Inactive)
REMARK    1  A    between atoms: C_3  and  C_1 
REMARK    2  A    between atoms: O_14  and  C_1 
REMARK    3  A    between atoms: C_4  and  C_2 
REMARK    4  A    between atoms: O_15  and  C_2 
REMARK    5  A    between atoms: C_6  and  O_16 
REMARK    6  A    between atoms: C_7  and  O_17 
REMARK    7  A    between atoms: C_8  and  O_18 
REMARK    8  A    between atoms: C_10  and  O_23 
REMARK    9  A    between atoms: C_11  and  O_20 
REMARK   10  A    between atoms: C_12  and  O_23 
ROOT
HETATM    1  C   UNK N   1       1.709  -4.140   0.285  0.00  0.00     0.180 C 
HETATM    2  C   UNK N   1      -0.223  -5.604  -0.514  0.00  0.00     0.183 C 
HETATM    3  C   UNK N   1       0.618  -6.632   0.246  0.00  0.00     0.204 C 
HETATM    4  C   UNK N   1       0.190  -4.163  -0.098  0.00  0.00     0.187 C 
HETATM    5  C   UNK N   1       2.090  -6.414  -0.214  0.00  0.00     0.288 C 
HETATM    6  O   UNK N   1       0.474  -6.443   1.626  0.00  0.00    -0.388 OA
HETATM    7  O   UNK N   1       2.454  -5.059  -0.484  0.00  0.00    -0.349 OA
HETATM    8  H   UNK N   1       0.538  -6.292   2.582  0.00  0.00     0.210 HD
ENDROOT
BRANCH   2   9
HETATM    9  O   UNK N   1      -1.592  -5.813  -0.323  0.00  0.00    -0.390 OA
HETATM   10  H   UNK N   1      -2.192  -5.063  -0.190  0.00  0.00     0.210 HD
ENDBRANCH   2   9
BRANCH   5  11
HETATM   11  O   UNK N   1       2.990  -6.997   0.681  0.00  0.00    -0.369 OA
HETATM   12  H   UNK N   1       2.951  -7.741   1.303  0.00  0.00     0.212 HD
ENDBRANCH   5  11
BRANCH   4  13
HETATM   13  O   UNK N   1      -0.580  -3.771   1.036  0.00  0.00    -0.348 OA
BRANCH  13  14
HETATM   14  C   UNK N   1      -1.063  -2.434   0.990  0.00  0.00     0.297 C 
HETATM   15  C   UNK N   1      -2.340  -2.298   0.121  0.00  0.00     0.256 C 
HETATM   16  C   UNK N   1      -2.807  -0.830   0.153  0.00  0.00     0.188 C 
HETATM   17  F   UNK N   1      -3.348  -3.130   0.577  0.00  0.00    -0.241 F 
HETATM   18  C   UNK N   1      -1.626   0.160  -0.053  0.00  0.00     0.180 C 
HETATM   19  C   UNK N   1      -0.321  -0.606  -0.363  0.00  0.00     0.179 C 
HETATM   20  O   UNK N   1      -0.014  -1.514   0.684  0.00  0.00    -0.348 OA
BRANCH  16  21
HETATM   21  O   UNK N   1      -3.788  -0.632  -0.822  0.00  0.00    -0.390 OA
HETATM   22  H   UNK N   1      -4.010   0.027  -1.499  0.00  0.00     0.210 HD
ENDBRANCH  16  21
BRANCH  18  23
HETATM   23  O   UNK N   1      -1.454   0.911   1.115  0.00  0.00    -0.390 OA
HETATM   24  H   UNK N   1      -0.943   1.069   1.925  0.00  0.00     0.210 HD
ENDBRANCH  18  23
BRANCH  19  25
HETATM   25  C   UNK N   1       0.866   0.333  -0.578  0.00  0.00     0.198 C 
BRANCH  25  26
HETATM   26  O   UNK N   1       1.247   0.953   0.614  0.00  0.00    -0.398 OA
HETATM   27  H   UNK N   1       1.753   0.939   1.441  0.00  0.00     0.209 HD
ENDBRANCH  25  26
ENDBRANCH  19  25
ENDBRANCH  13  14
ENDBRANCH   4  13
BRANCH   1  28
HETATM   28  C   UNK N   1       2.319  -2.756   0.113  0.00  0.00     0.198 C 
BRANCH  28  29
HETATM   29  O   UNK N   1       3.652  -2.751   0.529  0.00  0.00    -0.398 OA
HETATM   30  H   UNK N   1       4.118  -3.551   0.817  0.00  0.00     0.209 HD
ENDBRANCH  28  29
ENDBRANCH   1  28
TORSDOF 10
