MODEL 1
REMARK VINA RESULT:      -6.2      0.000      0.000
REMARK WARNING: 32 MAX_TORS EXCEEDED!!!
REMARK  34 active torsions:
REMARK  status: ('A' for Active; 'I' for Inactive)
REMARK    1  A    between atoms: C_5  and  C_4 
REMARK    2  A    between atoms: C_14  and  C_4 
REMARK    3  A    between atoms: N_29  and  C_5 
REMARK    4  A    between atoms: C_7  and  C_6 
REMARK    5  A    between atoms: N_27  and  C_6 
REMARK    6  A    between atoms: S_60  and  C_7 
REMARK    7  A    between atoms: C_13  and  C_8 
REMARK    8  A    between atoms: O_52  and  C_8 
REMARK    9  A    between atoms: C_25  and  C_9 
REMARK   10  A    between atoms: O_53  and  C_9 
REMARK   11  A    between atoms: C_23  and  C_12 
REMARK   12  A    between atoms: C_24  and  C_12 
REMARK   13  A    between atoms: N_27  and  C_14 
REMARK   14  A    between atoms: O_38  and  C_14 
REMARK   15  A    between atoms: C_16  and  O_39 
REMARK   16  A    between atoms: C_17  and  O_55 
REMARK   17  A    between atoms: C_21  and  C_18 
REMARK   18  A    between atoms: C_25  and  C_18 
REMARK   19  A    between atoms: C_18  and  O_40 
REMARK   20  A    between atoms: N_26  and  C_19 
REMARK   21  A    between atoms: N_29  and  C_21 
REMARK   22  A    between atoms: O_41  and  C_21 
REMARK   23  A    between atoms: C_22  and  N_37 
REMARK   24  A    between atoms: O_43  and  C_23 
REMARK   25  A    between atoms: S_60  and  C_24 
REMARK   26  A    between atoms: P_57  and  O_45 
REMARK   27  A    between atoms: P_57  and  O_46 
REMARK   28  A    between atoms: P_58  and  O_48 
REMARK   29  A    between atoms: P_59  and  O_50 
REMARK   30  A    between atoms: P_58  and  O_52 
REMARK   31  A    between atoms: P_59  and  O_53 
REMARK   32  A    between atoms: P_57  and  O_55 
REMARK   33  A    between atoms: P_58  and  O_56 
REMARK   34  A    between atoms: P_59  and  O_56 
ROOT
HETATM    1  O   UNK N   1      20.399  13.858   4.320  0.00  0.00    -0.195 OA
ENDROOT
BRANCH   1   2
HETATM    2  P   UNK N   1      20.801  13.495   2.615  0.00  0.00     0.401 P 
HETATM    3  O   UNK N   1      21.490  14.860   2.904  0.00  0.00    -0.631 OA
BRANCH   2   4
HETATM    4  O   UNK N   1      21.385  11.981   3.249  0.00  0.00    -0.307 OA
HETATM    5  H   UNK N   1      21.896  11.373   2.691  0.00  0.00     0.222 HD
ENDBRANCH   2   4
BRANCH   2   6
HETATM    6  O   UNK N   1      22.509  13.249   2.268  0.00  0.00    -0.294 OA
BRANCH   6   7
HETATM    7  C   UNK N   1      23.097  14.456   1.833  0.00  0.00     0.215 C 
BRANCH   7   8
HETATM    8  C   UNK N   1      24.510  14.655   2.359  0.00  0.00     0.180 C 
HETATM    9  C   UNK N   1      25.201  13.335   2.732  0.00  0.00     0.197 C 
HETATM   10  C   UNK N   1      26.253  13.902   3.631  0.00  0.00     0.199 C 
HETATM   11  C   UNK N   1      25.344  14.830   4.446  0.00  0.00     0.262 C 
HETATM   12  O   UNK N   1      24.527  15.496   3.504  0.00  0.00    -0.353 OA
BRANCH   9  13
HETATM   13  O   UNK N   1      25.721  12.630   1.624  0.00  0.00    -0.286 OA
BRANCH  13  14
HETATM   14  P   UNK N   1      25.256  10.936   1.743  0.00  0.00     0.391 P 
HETATM   15  O   UNK N   1      25.604  10.479   3.183  0.00  0.00    -0.632 OA
BRANCH  14  16
HETATM   16  O   UNK N   1      23.543  10.687   1.581  0.00  0.00    -0.307 OA
HETATM   17  H   UNK N   1      22.632  10.701   1.249  0.00  0.00     0.222 HD
ENDBRANCH  14  16
BRANCH  14  18
HETATM   18  O   UNK N   1      26.164   9.899   0.687  0.00  0.00    -0.307 OA
HETATM   19  H   UNK N   1      26.828   9.207   0.836  0.00  0.00     0.222 HD
ENDBRANCH  14  18
ENDBRANCH  13  14
ENDBRANCH   9  13
BRANCH  10  20
HETATM   20  O   UNK N   1      26.872  12.921   4.409  0.00  0.00    -0.388 OA
HETATM   21  H   UNK N   1      26.835  12.154   5.003  0.00  0.00     0.210 HD
ENDBRANCH  10  20
BRANCH  11  22
HETATM   22  N   UNK N   1      26.031  15.781   5.326  0.00  0.00    -0.297 N 
HETATM   23  C   UNK N   1      26.362  15.523   6.618  0.00  0.00     0.188 A 
HETATM   24  N   UNK N   1      27.041  16.561   7.179  0.00  0.00    -0.346 N 
HETATM   25  C   UNK N   1      27.124  17.473   6.196  0.00  0.00     0.122 A 
ATOM     26  HN  UNK N   1      27.404  16.631   8.130  1.00  0.00     0.167 HD
HETATM   27  C   UNK N   1      27.731  18.718   6.191  0.00  0.00     0.131 A 
HETATM   28  C   UNK N   1      26.514  17.012   5.086  0.00  0.00     0.142 A 
HETATM   29  N   UNK N   1      27.682  19.450   5.039  0.00  0.00    -0.337 N 
HETATM   30  C   UNK N   1      27.050  18.963   3.920  0.00  0.00     0.183 A 
ATOM     31  HN  UNK N   1      28.120  20.370   5.009  1.00  0.00     0.168 HD
HETATM   32  N   UNK N   1      26.462  17.727   3.938  0.00  0.00    -0.336 N 
ATOM     33  HN  UNK N   1      25.997  17.356   3.109  1.00  0.00     0.168 HD
BRANCH  27  34
HETATM   34  N   UNK N   1      28.392  19.215   7.331  0.00  0.00    -0.383 N 
HETATM   35  H   UNK N   1      27.965  19.151   8.216  0.00  0.00     0.157 HD
HETATM   36  H   UNK N   1      29.283  19.625   7.244  0.00  0.00     0.157 HD
ENDBRANCH  27  34
ENDBRANCH  11  22
ENDBRANCH   7   8
ENDBRANCH   6   7
ENDBRANCH   2   6
ENDBRANCH   1   2
BRANCH   1  37
HETATM   37  P   UNK N   1      20.816  12.723   5.625  0.00  0.00     0.401 P 
HETATM   38  O   UNK N   1      19.933  13.741   6.398  0.00  0.00    -0.631 OA
BRANCH  37  39
HETATM   39  O   UNK N   1      22.390  13.379   5.322  0.00  0.00    -0.307 OA
HETATM   40  H   UNK N   1      23.196  13.789   4.971  0.00  0.00     0.222 HD
ENDBRANCH  37  39
BRANCH  37  41
HETATM   41  O   UNK N   1      21.864  13.296   6.884  0.00  0.00    -0.296 OA
BRANCH  41  42
HETATM   42  C   UNK N   1      21.887  12.296   7.851  0.00  0.00     0.192 C 
BRANCH  42  43
HETATM   43  C   UNK N   1      22.999  12.396   8.925  0.00  0.00     0.008 C 
HETATM   44  C   UNK N   1      24.304  13.024   8.447  0.00  0.00     0.020 C 
HETATM   45  C   UNK N   1      23.307  10.961   9.330  0.00  0.00     0.020 C 
BRANCH  43  46
HETATM   46  C   UNK N   1      22.473  13.211  10.128  0.00  0.00     0.202 C 
BRANCH  46  47
HETATM   47  C   UNK N   1      20.975  13.268  10.117  0.00  0.00     0.141 C 
BRANCH  47  48
HETATM   48  N   UNK N   1      20.374  14.230   9.495  0.00  0.00    -0.372 N 
ATOM     49  HN  UNK N   1      19.447  14.039   9.116  1.00  0.00     0.161 HD
BRANCH  48  50
HETATM   50  C   UNK N   1      20.916  15.557   9.298  0.00  0.00     0.129 C 
BRANCH  50  51
HETATM   51  C   UNK N   1      19.940  16.489   8.579  0.00  0.00     0.103 C 
BRANCH  51  52
HETATM   52  C   UNK N   1      20.497  17.365   7.461  0.00  0.00     0.112 C 
BRANCH  52  53
HETATM   53  N   UNK N   1      20.952  16.920   6.331  0.00  0.00    -0.374 N 
ATOM     54  HN  UNK N   1      20.263  16.654   5.627  1.00  0.00     0.161 HD
BRANCH  53  55
HETATM   55  C   UNK N   1      22.345  16.766   5.974  0.00  0.00     0.132 C 
BRANCH  55  56
HETATM   56  C   UNK N   1      22.898  18.078   5.450  0.00  0.00     0.102 C 
BRANCH  56  57
HETATM   57  S   UNK N   1      22.639  18.188   3.656  0.00  0.00    -0.090 SA
BRANCH  57  58
HETATM   58  C   UNK N   1      21.211  19.267   3.835  0.00  0.00     0.200 C 
HETATM   59  O   UNK N   1      20.958  19.723   4.940  0.00  0.00    -0.285 OA
BRANCH  58  60
HETATM   60  C   UNK N   1      20.400  19.679   2.624  0.00  0.00     0.160 C 
HETATM   61  C   UNK N   1      20.343  18.548   1.598  0.00  0.00     0.030 C 
BRANCH  60  62
HETATM   62  C   UNK N   1      20.957  20.943   2.022  0.00  0.00     0.151 C 
HETATM   63  O   UNK N   1      20.626  21.300   0.902  0.00  0.00    -0.649 OA
BRANCH  62  64
HETATM   64  O   UNK N   1      21.818  21.701   2.729  0.00  0.00    -0.776 OA
HETATM   65  H   UNK N   1      22.242  22.536   2.756  0.00  0.00     0.167 HD
ENDBRANCH  62  64
ENDBRANCH  60  62
ENDBRANCH  58  60
ENDBRANCH  57  58
ENDBRANCH  56  57
ENDBRANCH  55  56
ENDBRANCH  53  55
ENDBRANCH  52  53
BRANCH  52  66
HETATM   66  O   UNK N   1      20.505  18.695   7.670  0.00  0.00    -0.350 OA
HETATM   67  H   UNK N   1      19.847  19.093   8.206  0.00  0.00     0.219 HD
ENDBRANCH  52  66
ENDBRANCH  51  52
ENDBRANCH  50  51
ENDBRANCH  48  50
ENDBRANCH  47  48
BRANCH  47  68
HETATM   68  O   UNK N   1      20.301  12.385  10.877  0.00  0.00    -0.348 OA
HETATM   69  H   UNK N   1      20.102  11.478  10.753  0.00  0.00     0.219 HD
ENDBRANCH  47  68
ENDBRANCH  46  47
BRANCH  46  70
HETATM   70  O   UNK N   1      22.935  12.678  11.334  0.00  0.00    -0.387 OA
HETATM   71  H   UNK N   1      22.463  11.945  11.759  0.00  0.00     0.210 HD
ENDBRANCH  46  70
ENDBRANCH  43  46
ENDBRANCH  42  43
ENDBRANCH  41  42
ENDBRANCH  37  41
ENDBRANCH   1  37
TORSDOF 34
ENDMDL
MODEL 2
REMARK VINA RESULT:      -6.1      4.537      7.879
REMARK WARNING: 32 MAX_TORS EXCEEDED!!!
REMARK  34 active torsions:
REMARK  status: ('A' for Active; 'I' for Inactive)
REMARK    1  A    between atoms: C_5  and  C_4 
REMARK    2  A    between atoms: C_14  and  C_4 
REMARK    3  A    between atoms: N_29  and  C_5 
REMARK    4  A    between atoms: C_7  and  C_6 
REMARK    5  A    between atoms: N_27  and  C_6 
REMARK    6  A    between atoms: S_60  and  C_7 
REMARK    7  A    between atoms: C_13  and  C_8 
REMARK    8  A    between atoms: O_52  and  C_8 
REMARK    9  A    between atoms: C_25  and  C_9 
REMARK   10  A    between atoms: O_53  and  C_9 
REMARK   11  A    between atoms: C_23  and  C_12 
REMARK   12  A    between atoms: C_24  and  C_12 
REMARK   13  A    between atoms: N_27  and  C_14 
REMARK   14  A    between atoms: O_38  and  C_14 
REMARK   15  A    between atoms: C_16  and  O_39 
REMARK   16  A    between atoms: C_17  and  O_55 
REMARK   17  A    between atoms: C_21  and  C_18 
REMARK   18  A    between atoms: C_25  and  C_18 
REMARK   19  A    between atoms: C_18  and  O_40 
REMARK   20  A    between atoms: N_26  and  C_19 
REMARK   21  A    between atoms: N_29  and  C_21 
REMARK   22  A    between atoms: O_41  and  C_21 
REMARK   23  A    between atoms: C_22  and  N_37 
REMARK   24  A    between atoms: O_43  and  C_23 
REMARK   25  A    between atoms: S_60  and  C_24 
REMARK   26  A    between atoms: P_57  and  O_45 
REMARK   27  A    between atoms: P_57  and  O_46 
REMARK   28  A    between atoms: P_58  and  O_48 
REMARK   29  A    between atoms: P_59  and  O_50 
REMARK   30  A    between atoms: P_58  and  O_52 
REMARK   31  A    between atoms: P_59  and  O_53 
REMARK   32  A    between atoms: P_57  and  O_55 
REMARK   33  A    between atoms: P_58  and  O_56 
REMARK   34  A    between atoms: P_59  and  O_56 
ROOT
HETATM    1  O   UNK N   1      25.446  15.485   4.519  0.00  0.00    -0.195 OA
ENDROOT
BRANCH   1   2
HETATM    2  P   UNK N   1      26.449  16.957   4.684  0.00  0.00     0.401 P 
HETATM    3  O   UNK N   1      26.785  16.104   5.942  0.00  0.00    -0.631 OA
BRANCH   2   4
HETATM    4  O   UNK N   1      27.009  16.553   3.084  0.00  0.00    -0.307 OA
HETATM    5  H   UNK N   1      26.380  16.346   2.376  0.00  0.00     0.222 HD
ENDBRANCH   2   4
BRANCH   2   6
HETATM    6  O   UNK N   1      28.191  16.705   4.638  0.00  0.00    -0.294 OA
BRANCH   6   7
HETATM    7  C   UNK N   1      28.720  16.723   5.946  0.00  0.00     0.215 C 
BRANCH   7   8
HETATM    8  C   UNK N   1      30.198  16.363   5.996  0.00  0.00     0.180 C 
HETATM    9  C   UNK N   1      30.465  14.887   5.668  0.00  0.00     0.197 C 
HETATM   10  C   UNK N   1      31.822  14.783   6.289  0.00  0.00     0.199 C 
HETATM   11  C   UNK N   1      31.492  15.477   7.615  0.00  0.00     0.262 C 
HETATM   12  O   UNK N   1      30.758  16.635   7.273  0.00  0.00    -0.353 OA
BRANCH   9  13
HETATM   13  O   UNK N   1      30.450  14.597   4.286  0.00  0.00    -0.286 OA
BRANCH  13  14
HETATM   14  P   UNK N   1      29.377  13.234   3.990  0.00  0.00     0.391 P 
HETATM   15  O   UNK N   1      29.653  12.757   2.541  0.00  0.00    -0.632 OA
BRANCH  14  16
HETATM   16  O   UNK N   1      29.721  11.863   5.001  0.00  0.00    -0.307 OA
HETATM   17  H   UNK N   1      29.784  11.265   5.763  0.00  0.00     0.222 HD
ENDBRANCH  14  16
BRANCH  14  18
HETATM   18  O   UNK N   1      27.694  13.663   4.031  0.00  0.00    -0.307 OA
HETATM   19  H   UNK N   1      27.046  13.762   4.746  0.00  0.00     0.222 HD
ENDBRANCH  14  18
ENDBRANCH  13  14
ENDBRANCH   9  13
BRANCH  10  20
HETATM   20  O   UNK N   1      32.231  13.457   6.452  0.00  0.00    -0.388 OA
HETATM   21  H   UNK N   1      32.482  12.705   7.010  0.00  0.00     0.210 HD
ENDBRANCH  10  20
BRANCH  11  22
HETATM   22  N   UNK N   1      32.640  15.803   8.466  0.00  0.00    -0.297 N 
HETATM   23  C   UNK N   1      33.092  17.066   8.687  0.00  0.00     0.188 A 
HETATM   24  N   UNK N   1      34.135  17.080   9.561  0.00  0.00    -0.346 N 
HETATM   25  C   UNK N   1      34.318  15.788   9.880  0.00  0.00     0.122 A 
ATOM     26  HN  UNK N   1      34.659  17.888   9.897  1.00  0.00     0.167 HD
HETATM   27  C   UNK N   1      35.228  15.210  10.750  0.00  0.00     0.131 A 
HETATM   28  C   UNK N   1      33.429  15.019   9.221  0.00  0.00     0.142 A 
HETATM   29  N   UNK N   1      35.193  13.854  10.906  0.00  0.00    -0.337 N 
HETATM   30  C   UNK N   1      34.280  13.088  10.221  0.00  0.00     0.183 A 
ATOM     31  HN  UNK N   1      35.852  13.404  11.540  1.00  0.00     0.168 HD
HETATM   32  N   UNK N   1      33.383  13.674   9.370  0.00  0.00    -0.336 N 
ATOM     33  HN  UNK N   1      32.698  13.114   8.864  1.00  0.00     0.168 HD
BRANCH  27  34
HETATM   34  N   UNK N   1      36.155  15.993  11.466  0.00  0.00    -0.383 N 
HETATM   35  H   UNK N   1      36.056  16.108  12.440  0.00  0.00     0.157 HD
HETATM   36  H   UNK N   1      36.902  16.427  10.994  0.00  0.00     0.157 HD
ENDBRANCH  27  34
ENDBRANCH  11  22
ENDBRANCH   7   8
ENDBRANCH   6   7
ENDBRANCH   2   6
ENDBRANCH   1   2
BRANCH   1  37
HETATM   37  P   UNK N   1      24.499  15.178   3.044  0.00  0.00     0.401 P 
HETATM   38  O   UNK N   1      23.970  16.583   3.441  0.00  0.00    -0.631 OA
BRANCH  37  39
HETATM   39  O   UNK N   1      23.819  13.953   4.064  0.00  0.00    -0.307 OA
HETATM   40  H   UNK N   1      23.627  13.245   4.699  0.00  0.00     0.222 HD
ENDBRANCH  37  39
BRANCH  37  41
HETATM   41  O   UNK N   1      22.790  14.933   3.223  0.00  0.00    -0.296 OA
BRANCH  41  42
HETATM   42  C   UNK N   1      22.266  14.915   1.934  0.00  0.00     0.192 C 
BRANCH  42  43
HETATM   43  C   UNK N   1      20.731  15.076   1.807  0.00  0.00     0.008 C 
HETATM   44  C   UNK N   1      20.006  13.885   1.191  0.00  0.00     0.020 C 
HETATM   45  C   UNK N   1      20.520  16.265   0.881  0.00  0.00     0.020 C 
BRANCH  43  46
HETATM   46  C   UNK N   1      20.130  15.348   3.205  0.00  0.00     0.202 C 
BRANCH  46  47
HETATM   47  C   UNK N   1      20.107  16.819   3.496  0.00  0.00     0.141 C 
BRANCH  47  48
HETATM   48  N   UNK N   1      21.166  17.398   3.961  0.00  0.00    -0.372 N 
ATOM     49  HN  UNK N   1      22.027  17.310   3.422  1.00  0.00     0.161 HD
BRANCH  48  50
HETATM   50  C   UNK N   1      21.223  18.162   5.188  0.00  0.00     0.129 C 
BRANCH  50  51
HETATM   51  C   UNK N   1      21.333  17.274   6.429  0.00  0.00     0.103 C 
BRANCH  51  52
HETATM   52  C   UNK N   1      22.189  16.016   6.319  0.00  0.00     0.112 C 
BRANCH  52  53
HETATM   53  N   UNK N   1      21.724  14.821   6.124  0.00  0.00    -0.374 N 
ATOM     54  HN  UNK N   1      22.123  14.290   5.350  1.00  0.00     0.161 HD
BRANCH  53  55
HETATM   55  C   UNK N   1      20.693  14.170   6.903  0.00  0.00     0.132 C 
BRANCH  55  56
HETATM   56  C   UNK N   1      21.319  13.222   7.909  0.00  0.00     0.102 C 
BRANCH  56  57
HETATM   57  S   UNK N   1      21.272  13.960   9.568  0.00  0.00    -0.090 SA
BRANCH  57  58
HETATM   58  C   UNK N   1      22.743  13.073  10.105  0.00  0.00     0.200 C 
HETATM   59  O   UNK N   1      23.832  13.445   9.691  0.00  0.00    -0.285 OA
BRANCH  58  60
HETATM   60  C   UNK N   1      22.640  11.957  11.122  0.00  0.00     0.160 C 
HETATM   61  C   UNK N   1      21.269  11.960  11.797  0.00  0.00     0.030 C 
BRANCH  60  62
HETATM   62  C   UNK N   1      23.753  12.062  12.134  0.00  0.00     0.151 C 
HETATM   63  O   UNK N   1      23.509  12.079  13.330  0.00  0.00    -0.649 OA
BRANCH  62  64
HETATM   64  O   UNK N   1      25.034  12.122  11.720  0.00  0.00    -0.776 OA
HETATM   65  H   UNK N   1      25.690  11.671  11.226  0.00  0.00     0.167 HD
ENDBRANCH  62  64
ENDBRANCH  60  62
ENDBRANCH  58  60
ENDBRANCH  57  58
ENDBRANCH  56  57
ENDBRANCH  55  56
ENDBRANCH  53  55
ENDBRANCH  52  53
BRANCH  52  66
HETATM   66  O   UNK N   1      23.522  16.169   6.426  0.00  0.00    -0.350 OA
HETATM   67  H   UNK N   1      23.945  16.059   7.256  0.00  0.00     0.219 HD
ENDBRANCH  52  66
ENDBRANCH  51  52
ENDBRANCH  50  51
ENDBRANCH  48  50
ENDBRANCH  47  48
BRANCH  47  68
HETATM   68  O   UNK N   1      18.932  17.467   3.394  0.00  0.00    -0.348 OA
HETATM   69  H   UNK N   1      18.166  17.295   2.882  0.00  0.00     0.219 HD
ENDBRANCH  47  68
ENDBRANCH  46  47
BRANCH  46  70
HETATM   70  O   UNK N   1      18.847  14.806   3.313  0.00  0.00    -0.387 OA
HETATM   71  H   UNK N   1      18.074  15.388   3.383  0.00  0.00     0.210 HD
ENDBRANCH  46  70
ENDBRANCH  43  46
ENDBRANCH  42  43
ENDBRANCH  41  42
ENDBRANCH  37  41
ENDBRANCH   1  37
TORSDOF 34
ENDMDL
MODEL 3
REMARK VINA RESULT:      -6.1      7.785     12.670
REMARK WARNING: 32 MAX_TORS EXCEEDED!!!
REMARK  34 active torsions:
REMARK  status: ('A' for Active; 'I' for Inactive)
REMARK    1  A    between atoms: C_5  and  C_4 
REMARK    2  A    between atoms: C_14  and  C_4 
REMARK    3  A    between atoms: N_29  and  C_5 
REMARK    4  A    between atoms: C_7  and  C_6 
REMARK    5  A    between atoms: N_27  and  C_6 
REMARK    6  A    between atoms: S_60  and  C_7 
REMARK    7  A    between atoms: C_13  and  C_8 
REMARK    8  A    between atoms: O_52  and  C_8 
REMARK    9  A    between atoms: C_25  and  C_9 
REMARK   10  A    between atoms: O_53  and  C_9 
REMARK   11  A    between atoms: C_23  and  C_12 
REMARK   12  A    between atoms: C_24  and  C_12 
REMARK   13  A    between atoms: N_27  and  C_14 
REMARK   14  A    between atoms: O_38  and  C_14 
REMARK   15  A    between atoms: C_16  and  O_39 
REMARK   16  A    between atoms: C_17  and  O_55 
REMARK   17  A    between atoms: C_21  and  C_18 
REMARK   18  A    between atoms: C_25  and  C_18 
REMARK   19  A    between atoms: C_18  and  O_40 
REMARK   20  A    between atoms: N_26  and  C_19 
REMARK   21  A    between atoms: N_29  and  C_21 
REMARK   22  A    between atoms: O_41  and  C_21 
REMARK   23  A    between atoms: C_22  and  N_37 
REMARK   24  A    between atoms: O_43  and  C_23 
REMARK   25  A    between atoms: S_60  and  C_24 
REMARK   26  A    between atoms: P_57  and  O_45 
REMARK   27  A    between atoms: P_57  and  O_46 
REMARK   28  A    between atoms: P_58  and  O_48 
REMARK   29  A    between atoms: P_59  and  O_50 
REMARK   30  A    between atoms: P_58  and  O_52 
REMARK   31  A    between atoms: P_59  and  O_53 
REMARK   32  A    between atoms: P_57  and  O_55 
REMARK   33  A    between atoms: P_58  and  O_56 
REMARK   34  A    between atoms: P_59  and  O_56 
ROOT
HETATM    1  O   UNK N   1      27.939  18.336   4.091  0.00  0.00    -0.195 OA
ENDROOT
BRANCH   1   2
HETATM    2  P   UNK N   1      27.141  19.601   5.074  0.00  0.00     0.401 P 
HETATM    3  O   UNK N   1      26.670  19.875   3.616  0.00  0.00    -0.631 OA
BRANCH   2   4
HETATM    4  O   UNK N   1      26.561  18.261   6.025  0.00  0.00    -0.307 OA
HETATM    5  H   UNK N   1      25.762  17.775   5.764  0.00  0.00     0.222 HD
ENDBRANCH   2   4
BRANCH   2   6
HETATM    6  O   UNK N   1      25.382  19.537   5.121  0.00  0.00    -0.294 OA
BRANCH   6   7
HETATM    7  C   UNK N   1      24.877  19.111   3.873  0.00  0.00     0.215 C 
BRANCH   7   8
HETATM    8  C   UNK N   1      23.828  18.017   3.997  0.00  0.00     0.180 C 
HETATM    9  C   UNK N   1      22.392  18.557   3.953  0.00  0.00     0.197 C 
HETATM   10  C   UNK N   1      21.713  17.385   4.588  0.00  0.00     0.199 C 
HETATM   11  C   UNK N   1      22.685  17.199   5.760  0.00  0.00     0.262 C 
HETATM   12  O   UNK N   1      23.981  17.281   5.202  0.00  0.00    -0.353 OA
BRANCH   9  13
HETATM   13  O   UNK N   1      21.928  18.842   2.649  0.00  0.00    -0.286 OA
BRANCH  13  14
HETATM   14  P   UNK N   1      21.221  20.454   2.624  0.00  0.00     0.391 P 
HETATM   15  O   UNK N   1      20.312  20.561   3.875  0.00  0.00    -0.632 OA
BRANCH  14  16
HETATM   16  O   UNK N   1      22.401  21.718   2.800  0.00  0.00    -0.307 OA
HETATM   17  H   UNK N   1      23.093  22.372   2.615  0.00  0.00     0.222 HD
ENDBRANCH  14  16
BRANCH  14  18
HETATM   18  O   UNK N   1      20.179  20.724   1.261  0.00  0.00    -0.307 OA
HETATM   19  H   UNK N   1      19.807  20.146   0.577  0.00  0.00     0.222 HD
ENDBRANCH  14  18
ENDBRANCH  13  14
ENDBRANCH   9  13
BRANCH  10  20
HETATM   20  O   UNK N   1      20.412  17.684   4.999  0.00  0.00    -0.388 OA
HETATM   21  H   UNK N   1      19.451  17.670   4.865  0.00  0.00     0.210 HD
ENDBRANCH  10  20
BRANCH  11  22
HETATM   22  N   UNK N   1      22.514  15.969   6.539  0.00  0.00    -0.297 N 
HETATM   23  C   UNK N   1      23.357  14.905   6.480  0.00  0.00     0.188 A 
HETATM   24  N   UNK N   1      22.991  13.925   7.351  0.00  0.00    -0.346 N 
HETATM   25  C   UNK N   1      21.894  14.412   7.956  0.00  0.00     0.122 A 
ATOM     26  HN  UNK N   1      23.444  13.026   7.508  1.00  0.00     0.167 HD
HETATM   27  C   UNK N   1      21.110  13.855   8.953  0.00  0.00     0.131 A 
HETATM   28  C   UNK N   1      21.602  15.634   7.468  0.00  0.00     0.142 A 
HETATM   29  N   UNK N   1      20.045  14.577   9.408  0.00  0.00    -0.337 N 
HETATM   30  C   UNK N   1      19.762  15.820   8.894  0.00  0.00     0.183 A 
ATOM     31  HN  UNK N   1      19.451  14.189  10.141  1.00  0.00     0.168 HD
HETATM   32  N   UNK N   1      20.550  16.361   7.914  0.00  0.00    -0.336 N 
ATOM     33  HN  UNK N   1      20.351  17.284   7.532  1.00  0.00     0.168 HD
BRANCH  27  34
HETATM   34  N   UNK N   1      21.406  12.589   9.494  0.00  0.00    -0.383 N 
HETATM   35  H   UNK N   1      21.825  12.517  10.382  0.00  0.00     0.157 HD
HETATM   36  H   UNK N   1      21.194  11.773   8.984  0.00  0.00     0.157 HD
ENDBRANCH  27  34
ENDBRANCH  11  22
ENDBRANCH   7   8
ENDBRANCH   6   7
ENDBRANCH   2   6
ENDBRANCH   1   2
BRANCH   1  37
HETATM   37  P   UNK N   1      28.945  17.081   4.850  0.00  0.00     0.401 P 
HETATM   38  O   UNK N   1      29.284  18.304   5.746  0.00  0.00    -0.631 OA
BRANCH  37  39
HETATM   39  O   UNK N   1      29.756  17.193   3.323  0.00  0.00    -0.307 OA
HETATM   40  H   UNK N   1      30.052  17.153   2.401  0.00  0.00     0.222 HD
ENDBRANCH  37  39
BRANCH  37  41
HETATM   41  O   UNK N   1      30.668  17.231   4.699  0.00  0.00    -0.296 OA
BRANCH  41  42
HETATM   42  C   UNK N   1      31.214  16.217   5.479  0.00  0.00     0.192 C 
BRANCH  42  43
HETATM   43  C   UNK N   1      32.614  16.486   6.085  0.00  0.00     0.008 C 
HETATM   44  C   UNK N   1      33.443  17.534   5.352  0.00  0.00     0.020 C 
HETATM   45  C   UNK N   1      33.363  15.164   5.985  0.00  0.00     0.020 C 
BRANCH  43  46
HETATM   46  C   UNK N   1      32.457  16.924   7.558  0.00  0.00     0.202 C 
BRANCH  46  47
HETATM   47  C   UNK N   1      33.778  17.331   8.135  0.00  0.00     0.141 C 
BRANCH  47  48
HETATM   48  N   UNK N   1      34.092  16.971   9.338  0.00  0.00    -0.372 N 
ATOM     49  HN  UNK N   1      34.375  17.703   9.990  1.00  0.00     0.161 HD
BRANCH  48  50
HETATM   50  C   UNK N   1      34.071  15.611   9.829  0.00  0.00     0.129 C 
BRANCH  50  51
HETATM   51  C   UNK N   1      35.363  14.854   9.516  0.00  0.00     0.103 C 
BRANCH  51  52
HETATM   52  C   UNK N   1      36.522  15.005  10.496  0.00  0.00     0.112 C 
BRANCH  52  53
HETATM   53  N   UNK N   1      37.192  14.018  11.006  0.00  0.00    -0.374 N 
ATOM     54  HN  UNK N   1      38.199  14.010  10.844  1.00  0.00     0.161 HD
BRANCH  53  55
HETATM   55  C   UNK N   1      36.645  12.928  11.783  0.00  0.00     0.132 C 
BRANCH  55  56
HETATM   56  C   UNK N   1      36.404  13.375  13.213  0.00  0.00     0.102 C 
BRANCH  56  57
HETATM   57  S   UNK N   1      37.068  12.141  14.368  0.00  0.00    -0.090 SA
BRANCH  57  58
HETATM   58  C   UNK N   1      35.662  12.290  15.481  0.00  0.00     0.200 C 
HETATM   59  O   UNK N   1      34.659  12.862  15.080  0.00  0.00    -0.285 OA
BRANCH  58  60
HETATM   60  C   UNK N   1      35.687  11.636  16.846  0.00  0.00     0.160 C 
HETATM   61  C   UNK N   1      34.801  10.391  16.868  0.00  0.00     0.030 C 
BRANCH  60  62
HETATM   62  C   UNK N   1      35.280  12.622  17.911  0.00  0.00     0.151 C 
HETATM   63  O   UNK N   1      34.979  12.241  19.032  0.00  0.00    -0.649 OA
BRANCH  62  64
HETATM   64  O   UNK N   1      35.262  13.941  17.634  0.00  0.00    -0.776 OA
HETATM   65  H   UNK N   1      34.883  14.760  17.885  0.00  0.00     0.167 HD
ENDBRANCH  62  64
ENDBRANCH  60  62
ENDBRANCH  58  60
ENDBRANCH  57  58
ENDBRANCH  56  57
ENDBRANCH  55  56
ENDBRANCH  53  55
ENDBRANCH  52  53
BRANCH  52  66
HETATM   66  O   UNK N   1      36.872  16.257  10.844  0.00  0.00    -0.350 OA
HETATM   67  H   UNK N   1      37.319  16.415  11.653  0.00  0.00     0.219 HD
ENDBRANCH  52  66
ENDBRANCH  51  52
ENDBRANCH  50  51
ENDBRANCH  48  50
ENDBRANCH  47  48
BRANCH  47  68
HETATM   68  O   UNK N   1      34.545  18.183   7.429  0.00  0.00    -0.348 OA
HETATM   69  H   UNK N   1      35.040  18.071   6.641  0.00  0.00     0.219 HD
ENDBRANCH  47  68
ENDBRANCH  46  47
BRANCH  46  70
HETATM   70  O   UNK N   1      31.529  17.963   7.674  0.00  0.00    -0.387 OA
HETATM   71  H   UNK N   1      31.829  18.873   7.826  0.00  0.00     0.210 HD
ENDBRANCH  46  70
ENDBRANCH  43  46
ENDBRANCH  42  43
ENDBRANCH  41  42
ENDBRANCH  37  41
ENDBRANCH   1  37
TORSDOF 34
ENDMDL
MODEL 4
REMARK VINA RESULT:      -6.1      7.065     12.018
REMARK WARNING: 32 MAX_TORS EXCEEDED!!!
REMARK  34 active torsions:
REMARK  status: ('A' for Active; 'I' for Inactive)
REMARK    1  A    between atoms: C_5  and  C_4 
REMARK    2  A    between atoms: C_14  and  C_4 
REMARK    3  A    between atoms: N_29  and  C_5 
REMARK    4  A    between atoms: C_7  and  C_6 
REMARK    5  A    between atoms: N_27  and  C_6 
REMARK    6  A    between atoms: S_60  and  C_7 
REMARK    7  A    between atoms: C_13  and  C_8 
REMARK    8  A    between atoms: O_52  and  C_8 
REMARK    9  A    between atoms: C_25  and  C_9 
REMARK   10  A    between atoms: O_53  and  C_9 
REMARK   11  A    between atoms: C_23  and  C_12 
REMARK   12  A    between atoms: C_24  and  C_12 
REMARK   13  A    between atoms: N_27  and  C_14 
REMARK   14  A    between atoms: O_38  and  C_14 
REMARK   15  A    between atoms: C_16  and  O_39 
REMARK   16  A    between atoms: C_17  and  O_55 
REMARK   17  A    between atoms: C_21  and  C_18 
REMARK   18  A    between atoms: C_25  and  C_18 
REMARK   19  A    between atoms: C_18  and  O_40 
REMARK   20  A    between atoms: N_26  and  C_19 
REMARK   21  A    between atoms: N_29  and  C_21 
REMARK   22  A    between atoms: O_41  and  C_21 
REMARK   23  A    between atoms: C_22  and  N_37 
REMARK   24  A    between atoms: O_43  and  C_23 
REMARK   25  A    between atoms: S_60  and  C_24 
REMARK   26  A    between atoms: P_57  and  O_45 
REMARK   27  A    between atoms: P_57  and  O_46 
REMARK   28  A    between atoms: P_58  and  O_48 
REMARK   29  A    between atoms: P_59  and  O_50 
REMARK   30  A    between atoms: P_58  and  O_52 
REMARK   31  A    between atoms: P_59  and  O_53 
REMARK   32  A    between atoms: P_57  and  O_55 
REMARK   33  A    between atoms: P_58  and  O_56 
REMARK   34  A    between atoms: P_59  and  O_56 
ROOT
HETATM    1  O   UNK N   1      27.369  19.364   4.718  0.00  0.00    -0.195 OA
ENDROOT
BRANCH   1   2
HETATM    2  P   UNK N   1      25.733  19.397   3.993  0.00  0.00     0.401 P 
HETATM    3  O   UNK N   1      26.455  18.211   3.291  0.00  0.00    -0.631 OA
BRANCH   2   4
HETATM    4  O   UNK N   1      25.181  19.332   5.645  0.00  0.00    -0.307 OA
HETATM    5  H   UNK N   1      25.137  20.136   6.186  0.00  0.00     0.222 HD
ENDBRANCH   2   4
BRANCH   2   6
HETATM    6  O   UNK N   1      24.732  17.982   4.299  0.00  0.00    -0.294 OA
BRANCH   6   7
HETATM    7  C   UNK N   1      23.395  18.373   4.532  0.00  0.00     0.215 C 
BRANCH   7   8
HETATM    8  C   UNK N   1      22.479  17.201   4.850  0.00  0.00     0.180 C 
HETATM    9  C   UNK N   1      21.085  17.345   4.223  0.00  0.00     0.197 C 
HETATM   10  C   UNK N   1      20.362  16.381   5.110  0.00  0.00     0.199 C 
HETATM   11  C   UNK N   1      20.921  16.879   6.447  0.00  0.00     0.262 C 
HETATM   12  O   UNK N   1      22.313  17.033   6.251  0.00  0.00    -0.353 OA
BRANCH   9  13
HETATM   13  O   UNK N   1      21.036  17.001   2.854  0.00  0.00    -0.286 OA
BRANCH  13  14
HETATM   14  P   UNK N   1      20.156  18.245   1.973  0.00  0.00     0.391 P 
HETATM   15  O   UNK N   1      20.850  19.593   2.294  0.00  0.00    -0.632 OA
BRANCH  14  16
HETATM   16  O   UNK N   1      20.268  18.067   0.247  0.00  0.00    -0.307 OA
HETATM   17  H   UNK N   1      20.333  18.257  -0.702  0.00  0.00     0.222 HD
ENDBRANCH  14  16
BRANCH  14  18
HETATM   18  O   UNK N   1      18.511  18.426   2.501  0.00  0.00    -0.307 OA
HETATM   19  H   UNK N   1      17.780  19.004   2.230  0.00  0.00     0.222 HD
ENDBRANCH  14  18
ENDBRANCH  13  14
ENDBRANCH   9  13
BRANCH  10  20
HETATM   20  O   UNK N   1      18.974  16.511   5.015  0.00  0.00    -0.388 OA
HETATM   21  H   UNK N   1      18.161  16.621   4.497  0.00  0.00     0.210 HD
ENDBRANCH  10  20
BRANCH  11  22
HETATM   22  N   UNK N   1      20.637  16.033   7.611  0.00  0.00    -0.297 N 
HETATM   23  C   UNK N   1      19.564  16.197   8.429  0.00  0.00     0.188 A 
HETATM   24  N   UNK N   1      19.517  15.237   9.393  0.00  0.00    -0.346 N 
HETATM   25  C   UNK N   1      20.593  14.469   9.149  0.00  0.00     0.122 A 
ATOM     26  HN  UNK N   1      18.824  15.127  10.133  1.00  0.00     0.167 HD
HETATM   27  C   UNK N   1      21.034  13.329   9.801  0.00  0.00     0.131 A 
HETATM   28  C   UNK N   1      21.269  14.946   8.086  0.00  0.00     0.142 A 
HETATM   29  N   UNK N   1      22.165  12.723   9.335  0.00  0.00    -0.337 N 
HETATM   30  C   UNK N   1      22.843  13.228   8.252  0.00  0.00     0.183 A 
ATOM     31  HN  UNK N   1      22.512  11.882   9.798  1.00  0.00     0.168 HD
HETATM   32  N   UNK N   1      22.390  14.352   7.614  0.00  0.00    -0.336 N 
ATOM     33  HN  UNK N   1      22.883  14.729   6.805  1.00  0.00     0.168 HD
BRANCH  27  34
HETATM   34  N   UNK N   1      20.333  12.798  10.902  0.00  0.00    -0.383 N 
HETATM   35  H   UNK N   1      20.760  12.765  11.789  0.00  0.00     0.157 HD
HETATM   36  H   UNK N   1      19.416  12.460  10.785  0.00  0.00     0.157 HD
ENDBRANCH  27  34
ENDBRANCH  11  22
ENDBRANCH   7   8
ENDBRANCH   6   7
ENDBRANCH   2   6
ENDBRANCH   1   2
BRANCH   1  37
HETATM   37  P   UNK N   1      28.040  17.865   5.403  0.00  0.00     0.401 P 
HETATM   38  O   UNK N   1      28.021  18.776   6.661  0.00  0.00    -0.631 OA
BRANCH  37  39
HETATM   39  O   UNK N   1      29.349  18.294   4.353  0.00  0.00    -0.307 OA
HETATM   40  H   UNK N   1      29.960  18.683   3.708  0.00  0.00     0.222 HD
ENDBRANCH  37  39
BRANCH  37  41
HETATM   41  O   UNK N   1      29.699  17.888   5.914  0.00  0.00    -0.296 OA
BRANCH  41  42
HETATM   42  C   UNK N   1      29.953  16.631   6.455  0.00  0.00     0.192 C 
BRANCH  42  43
HETATM   43  C   UNK N   1      31.314  16.447   7.172  0.00  0.00     0.008 C 
HETATM   44  C   UNK N   1      31.935  15.062   7.030  0.00  0.00     0.020 C 
HETATM   45  C   UNK N   1      31.030  16.669   8.651  0.00  0.00     0.020 C 
BRANCH  43  46
HETATM   46  C   UNK N   1      32.317  17.493   6.637  0.00  0.00     0.202 C 
BRANCH  46  47
HETATM   47  C   UNK N   1      33.672  17.288   7.243  0.00  0.00     0.141 C 
BRANCH  47  48
HETATM   48  N   UNK N   1      33.908  17.706   8.445  0.00  0.00    -0.372 N 
ATOM     49  HN  UNK N   1      33.389  18.521   8.770  1.00  0.00     0.161 HD
BRANCH  48  50
HETATM   50  C   UNK N   1      34.853  17.107   9.361  0.00  0.00     0.129 C 
BRANCH  50  51
HETATM   51  C   UNK N   1      34.498  15.660   9.708  0.00  0.00     0.103 C 
BRANCH  51  52
HETATM   52  C   UNK N   1      35.467  14.571   9.260  0.00  0.00     0.112 C 
BRANCH  52  53
HETATM   53  N   UNK N   1      35.947  13.645  10.032  0.00  0.00    -0.374 N 
ATOM     54  HN  UNK N   1      35.293  12.936  10.365  1.00  0.00     0.161 HD
BRANCH  53  55
HETATM   55  C   UNK N   1      37.322  13.523  10.464  0.00  0.00     0.132 C 
BRANCH  55  56
HETATM   56  C   UNK N   1      37.396  12.719  11.748  0.00  0.00     0.102 C 
BRANCH  56  57
HETATM   57  S   UNK N   1      36.061  11.489  11.788  0.00  0.00    -0.090 SA
BRANCH  57  58
HETATM   58  C   UNK N   1      35.154  12.378  13.063  0.00  0.00     0.200 C 
HETATM   59  O   UNK N   1      34.574  13.409  12.755  0.00  0.00    -0.285 OA
BRANCH  58  60
HETATM   60  C   UNK N   1      35.031  11.808  14.460  0.00  0.00     0.160 C 
HETATM   61  C   UNK N   1      33.747  10.994  14.604  0.00  0.00     0.030 C 
BRANCH  60  62
HETATM   62  C   UNK N   1      35.106  12.910  15.487  0.00  0.00     0.151 C 
HETATM   63  O   UNK N   1      36.168  13.458  15.738  0.00  0.00    -0.649 OA
BRANCH  62  64
HETATM   64  O   UNK N   1      33.989  13.309  16.126  0.00  0.00    -0.776 OA
HETATM   65  H   UNK N   1      33.612  13.446  16.973  0.00  0.00     0.167 HD
ENDBRANCH  62  64
ENDBRANCH  60  62
ENDBRANCH  58  60
ENDBRANCH  57  58
ENDBRANCH  56  57
ENDBRANCH  55  56
ENDBRANCH  53  55
ENDBRANCH  52  53
BRANCH  52  66
HETATM   66  O   UNK N   1      35.839  14.574   7.966  0.00  0.00    -0.350 OA
HETATM   67  H   UNK N   1      35.197  14.671   7.290  0.00  0.00     0.219 HD
ENDBRANCH  52  66
ENDBRANCH  51  52
ENDBRANCH  50  51
ENDBRANCH  48  50
ENDBRANCH  47  48
BRANCH  47  68
HETATM   68  O   UNK N   1      34.650  16.797   6.459  0.00  0.00    -0.348 OA
HETATM   69  H   UNK N   1      35.513  16.488   6.658  0.00  0.00     0.219 HD
ENDBRANCH  47  68
ENDBRANCH  46  47
BRANCH  46  70
HETATM   70  O   UNK N   1      32.390  17.448   5.242  0.00  0.00    -0.387 OA
HETATM   71  H   UNK N   1      31.581  17.480   4.708  0.00  0.00     0.210 HD
ENDBRANCH  46  70
ENDBRANCH  43  46
ENDBRANCH  42  43
ENDBRANCH  41  42
ENDBRANCH  37  41
ENDBRANCH   1  37
TORSDOF 34
ENDMDL
MODEL 5
REMARK VINA RESULT:      -6.1      3.658      8.190
REMARK WARNING: 32 MAX_TORS EXCEEDED!!!
REMARK  34 active torsions:
REMARK  status: ('A' for Active; 'I' for Inactive)
REMARK    1  A    between atoms: C_5  and  C_4 
REMARK    2  A    between atoms: C_14  and  C_4 
REMARK    3  A    between atoms: N_29  and  C_5 
REMARK    4  A    between atoms: C_7  and  C_6 
REMARK    5  A    between atoms: N_27  and  C_6 
REMARK    6  A    between atoms: S_60  and  C_7 
REMARK    7  A    between atoms: C_13  and  C_8 
REMARK    8  A    between atoms: O_52  and  C_8 
REMARK    9  A    between atoms: C_25  and  C_9 
REMARK   10  A    between atoms: O_53  and  C_9 
REMARK   11  A    between atoms: C_23  and  C_12 
REMARK   12  A    between atoms: C_24  and  C_12 
REMARK   13  A    between atoms: N_27  and  C_14 
REMARK   14  A    between atoms: O_38  and  C_14 
REMARK   15  A    between atoms: C_16  and  O_39 
REMARK   16  A    between atoms: C_17  and  O_55 
REMARK   17  A    between atoms: C_21  and  C_18 
REMARK   18  A    between atoms: C_25  and  C_18 
REMARK   19  A    between atoms: C_18  and  O_40 
REMARK   20  A    between atoms: N_26  and  C_19 
REMARK   21  A    between atoms: N_29  and  C_21 
REMARK   22  A    between atoms: O_41  and  C_21 
REMARK   23  A    between atoms: C_22  and  N_37 
REMARK   24  A    between atoms: O_43  and  C_23 
REMARK   25  A    between atoms: S_60  and  C_24 
REMARK   26  A    between atoms: P_57  and  O_45 
REMARK   27  A    between atoms: P_57  and  O_46 
REMARK   28  A    between atoms: P_58  and  O_48 
REMARK   29  A    between atoms: P_59  and  O_50 
REMARK   30  A    between atoms: P_58  and  O_52 
REMARK   31  A    between atoms: P_59  and  O_53 
REMARK   32  A    between atoms: P_57  and  O_55 
REMARK   33  A    between atoms: P_58  and  O_56 
REMARK   34  A    between atoms: P_59  and  O_56 
ROOT
HETATM    1  O   UNK N   1      21.316  13.347   1.129  0.00  0.00    -0.195 OA
ENDROOT
BRANCH   1   2
HETATM    2  P   UNK N   1      19.860  14.252   1.643  0.00  0.00     0.401 P 
HETATM    3  O   UNK N   1      20.234  13.371   2.870  0.00  0.00    -0.631 OA
BRANCH   2   4
HETATM    4  O   UNK N   1      20.771  15.659   1.169  0.00  0.00    -0.307 OA
HETATM    5  H   UNK N   1      21.430  16.049   1.765  0.00  0.00     0.222 HD
ENDBRANCH   2   4
BRANCH   2   6
HETATM    6  O   UNK N   1      20.088  15.372   2.981  0.00  0.00    -0.294 OA
BRANCH   6   7
HETATM    7  C   UNK N   1      19.655  14.783   4.189  0.00  0.00     0.215 C 
BRANCH   7   8
HETATM    8  C   UNK N   1      20.466  15.233   5.395  0.00  0.00     0.180 C 
HETATM    9  C   UNK N   1      21.347  16.455   5.103  0.00  0.00     0.197 C 
HETATM   10  C   UNK N   1      22.309  16.290   6.236  0.00  0.00     0.199 C 
HETATM   11  C   UNK N   1      22.574  14.791   6.060  0.00  0.00     0.262 C 
HETATM   12  O   UNK N   1      21.307  14.193   5.875  0.00  0.00    -0.353 OA
BRANCH   9  13
HETATM   13  O   UNK N   1      20.648  17.682   5.126  0.00  0.00    -0.286 OA
BRANCH  13  14
HETATM   14  P   UNK N   1      21.218  18.701   3.809  0.00  0.00     0.391 P 
HETATM   15  O   UNK N   1      20.677  20.128   4.084  0.00  0.00    -0.632 OA
BRANCH  14  16
HETATM   16  O   UNK N   1      22.948  18.862   3.772  0.00  0.00    -0.307 OA
HETATM   17  H   UNK N   1      23.845  19.200   3.619  0.00  0.00     0.222 HD
ENDBRANCH  14  16
BRANCH  14  18
HETATM   18  O   UNK N   1      20.576  18.246   2.261  0.00  0.00    -0.307 OA
HETATM   19  H   UNK N   1      20.277  18.746   1.486  0.00  0.00     0.222 HD
ENDBRANCH  14  18
ENDBRANCH  13  14
ENDBRANCH   9  13
BRANCH  10  20
HETATM   20  O   UNK N   1      23.455  17.072   6.078  0.00  0.00    -0.388 OA
HETATM   21  H   UNK N   1      23.922  17.921   6.124  0.00  0.00     0.210 HD
ENDBRANCH  10  20
BRANCH  11  22
HETATM   22  N   UNK N   1      23.318  14.144   7.146  0.00  0.00    -0.297 N 
HETATM   23  C   UNK N   1      24.662  13.947   7.138  0.00  0.00     0.188 A 
HETATM   24  N   UNK N   1      25.092  13.376   8.296  0.00  0.00    -0.346 N 
HETATM   25  C   UNK N   1      23.975  13.225   9.027  0.00  0.00     0.122 A 
ATOM     26  HN  UNK N   1      26.046  13.120   8.551  1.00  0.00     0.167 HD
HETATM   27  C   UNK N   1      23.813  12.717  10.305  0.00  0.00     0.131 A 
HETATM   28  C   UNK N   1      22.909  13.678   8.338  0.00  0.00     0.142 A 
HETATM   29  N   UNK N   1      22.553  12.688  10.828  0.00  0.00    -0.337 N 
HETATM   30  C   UNK N   1      21.478  13.151  10.107  0.00  0.00     0.183 A 
ATOM     31  HN  UNK N   1      22.406  12.318  11.767  1.00  0.00     0.168 HD
HETATM   32  N   UNK N   1      21.654  13.657   8.848  0.00  0.00    -0.336 N 
ATOM     33  HN  UNK N   1      20.863  14.009   8.309  1.00  0.00     0.168 HD
BRANCH  27  34
HETATM   34  N   UNK N   1      24.914  12.256  11.054  0.00  0.00    -0.383 N 
HETATM   35  H   UNK N   1      24.772  11.831  11.931  0.00  0.00     0.157 HD
HETATM   36  H   UNK N   1      25.828  12.358  10.700  0.00  0.00     0.157 HD
ENDBRANCH  27  34
ENDBRANCH  11  22
ENDBRANCH   7   8
ENDBRANCH   6   7
ENDBRANCH   2   6
ENDBRANCH   1   2
BRANCH   1  37
HETATM   37  P   UNK N   1      22.874  14.172   0.891  0.00  0.00     0.401 P 
HETATM   38  O   UNK N   1      23.240  12.729   0.449  0.00  0.00    -0.631 OA
BRANCH  37  39
HETATM   39  O   UNK N   1      22.771  14.279   2.617  0.00  0.00    -0.307 OA
HETATM   40  H   UNK N   1      22.785  14.153   3.578  0.00  0.00     0.222 HD
ENDBRANCH  37  39
BRANCH  37  41
HETATM   41  O   UNK N   1      24.181  13.742   1.949  0.00  0.00    -0.296 OA
BRANCH  41  42
HETATM   42  C   UNK N   1      25.213  14.632   1.669  0.00  0.00     0.192 C 
BRANCH  42  43
HETATM   43  C   UNK N   1      26.299  14.800   2.760  0.00  0.00     0.008 C 
HETATM   44  C   UNK N   1      27.657  15.272   2.252  0.00  0.00     0.020 C 
HETATM   45  C   UNK N   1      26.495  13.414   3.359  0.00  0.00     0.020 C 
BRANCH  43  46
HETATM   46  C   UNK N   1      25.799  15.800   3.827  0.00  0.00     0.202 C 
BRANCH  46  47
HETATM   47  C   UNK N   1      26.815  16.876   4.065  0.00  0.00     0.141 C 
BRANCH  47  48
HETATM   48  N   UNK N   1      27.781  16.673   4.902  0.00  0.00    -0.372 N 
ATOM     49  HN  UNK N   1      28.674  17.127   4.710  1.00  0.00     0.161 HD
BRANCH  48  50
HETATM   50  C   UNK N   1      27.692  15.851   6.089  0.00  0.00     0.129 C 
BRANCH  50  51
HETATM   51  C   UNK N   1      27.151  16.620   7.296  0.00  0.00     0.103 C 
BRANCH  51  52
HETATM   52  C   UNK N   1      28.155  17.389   8.148  0.00  0.00     0.112 C 
BRANCH  52  53
HETATM   53  N   UNK N   1      29.433  17.432   7.926  0.00  0.00    -0.374 N 
ATOM     54  HN  UNK N   1      29.730  17.608   6.966  1.00  0.00     0.161 HD
BRANCH  53  55
HETATM   55  C   UNK N   1      30.476  17.255   8.913  0.00  0.00     0.132 C 
BRANCH  55  56
HETATM   56  C   UNK N   1      31.727  18.001   8.490  0.00  0.00     0.102 C 
BRANCH  56  57
HETATM   57  S   UNK N   1      33.166  16.896   8.571  0.00  0.00    -0.090 SA
BRANCH  57  58
HETATM   58  C   UNK N   1      33.419  16.942   6.791  0.00  0.00     0.200 C 
HETATM   59  O   UNK N   1      33.956  17.925   6.303  0.00  0.00    -0.285 OA
BRANCH  58  60
HETATM   60  C   UNK N   1      33.064  15.747   5.931  0.00  0.00     0.160 C 
HETATM   61  C   UNK N   1      33.894  15.734   4.649  0.00  0.00     0.030 C 
BRANCH  60  62
HETATM   62  C   UNK N   1      31.587  15.732   5.633  0.00  0.00     0.151 C 
HETATM   63  O   UNK N   1      30.995  16.765   5.359  0.00  0.00    -0.649 OA
BRANCH  62  64
HETATM   64  O   UNK N   1      30.909  14.567   5.652  0.00  0.00    -0.776 OA
HETATM   65  H   UNK N   1      30.107  14.165   5.921  0.00  0.00     0.167 HD
ENDBRANCH  62  64
ENDBRANCH  60  62
ENDBRANCH  58  60
ENDBRANCH  57  58
ENDBRANCH  56  57
ENDBRANCH  55  56
ENDBRANCH  53  55
ENDBRANCH  52  53
BRANCH  52  66
HETATM   66  O   UNK N   1      27.670  18.075   9.200  0.00  0.00    -0.350 OA
HETATM   67  H   UNK N   1      27.785  17.748  10.071  0.00  0.00     0.219 HD
ENDBRANCH  52  66
ENDBRANCH  51  52
ENDBRANCH  50  51
ENDBRANCH  48  50
ENDBRANCH  47  48
BRANCH  47  68
HETATM   68  O   UNK N   1      26.609  18.080   3.500  0.00  0.00    -0.348 OA
HETATM   69  H   UNK N   1      25.839  18.479   3.145  0.00  0.00     0.219 HD
ENDBRANCH  47  68
ENDBRANCH  46  47
BRANCH  46  70
HETATM   70  O   UNK N   1      24.572  16.357   3.455  0.00  0.00    -0.387 OA
HETATM   71  H   UNK N   1      24.058  15.967   2.730  0.00  0.00     0.210 HD
ENDBRANCH  46  70
ENDBRANCH  43  46
ENDBRANCH  42  43
ENDBRANCH  41  42
ENDBRANCH  37  41
ENDBRANCH   1  37
TORSDOF 34
ENDMDL
MODEL 6
REMARK VINA RESULT:      -6.0      4.403      7.164
REMARK WARNING: 32 MAX_TORS EXCEEDED!!!
REMARK  34 active torsions:
REMARK  status: ('A' for Active; 'I' for Inactive)
REMARK    1  A    between atoms: C_5  and  C_4 
REMARK    2  A    between atoms: C_14  and  C_4 
REMARK    3  A    between atoms: N_29  and  C_5 
REMARK    4  A    between atoms: C_7  and  C_6 
REMARK    5  A    between atoms: N_27  and  C_6 
REMARK    6  A    between atoms: S_60  and  C_7 
REMARK    7  A    between atoms: C_13  and  C_8 
REMARK    8  A    between atoms: O_52  and  C_8 
REMARK    9  A    between atoms: C_25  and  C_9 
REMARK   10  A    between atoms: O_53  and  C_9 
REMARK   11  A    between atoms: C_23  and  C_12 
REMARK   12  A    between atoms: C_24  and  C_12 
REMARK   13  A    between atoms: N_27  and  C_14 
REMARK   14  A    between atoms: O_38  and  C_14 
REMARK   15  A    between atoms: C_16  and  O_39 
REMARK   16  A    between atoms: C_17  and  O_55 
REMARK   17  A    between atoms: C_21  and  C_18 
REMARK   18  A    between atoms: C_25  and  C_18 
REMARK   19  A    between atoms: C_18  and  O_40 
REMARK   20  A    between atoms: N_26  and  C_19 
REMARK   21  A    between atoms: N_29  and  C_21 
REMARK   22  A    between atoms: O_41  and  C_21 
REMARK   23  A    between atoms: C_22  and  N_37 
REMARK   24  A    between atoms: O_43  and  C_23 
REMARK   25  A    between atoms: S_60  and  C_24 
REMARK   26  A    between atoms: P_57  and  O_45 
REMARK   27  A    between atoms: P_57  and  O_46 
REMARK   28  A    between atoms: P_58  and  O_48 
REMARK   29  A    between atoms: P_59  and  O_50 
REMARK   30  A    between atoms: P_58  and  O_52 
REMARK   31  A    between atoms: P_59  and  O_53 
REMARK   32  A    between atoms: P_57  and  O_55 
REMARK   33  A    between atoms: P_58  and  O_56 
REMARK   34  A    between atoms: P_59  and  O_56 
ROOT
HETATM    1  O   UNK N   1      30.706  14.132   3.575  0.00  0.00    -0.195 OA
ENDROOT
BRANCH   1   2
HETATM    2  P   UNK N   1      32.229  13.576   4.333  0.00  0.00     0.401 P 
HETATM    3  O   UNK N   1      32.564  14.979   3.749  0.00  0.00    -0.631 OA
BRANCH   2   4
HETATM    4  O   UNK N   1      31.244  13.346   5.752  0.00  0.00    -0.307 OA
HETATM    5  H   UNK N   1      30.276  13.350   5.691  0.00  0.00     0.222 HD
ENDBRANCH   2   4
BRANCH   2   6
HETATM    6  O   UNK N   1      32.800  14.534   5.695  0.00  0.00    -0.294 OA
BRANCH   6   7
HETATM    7  C   UNK N   1      32.814  15.904   5.354  0.00  0.00     0.215 C 
BRANCH   7   8
HETATM    8  C   UNK N   1      32.257  16.797   6.453  0.00  0.00     0.180 C 
HETATM    9  C   UNK N   1      32.221  16.108   7.824  0.00  0.00     0.197 C 
HETATM   10  C   UNK N   1      31.211  16.999   8.474  0.00  0.00     0.199 C 
HETATM   11  C   UNK N   1      30.192  17.020   7.329  0.00  0.00     0.262 C 
HETATM   12  O   UNK N   1      30.941  17.237   6.149  0.00  0.00    -0.353 OA
BRANCH   9  13
HETATM   13  O   UNK N   1      33.468  16.087   8.486  0.00  0.00    -0.286 OA
BRANCH  13  14
HETATM   14  P   UNK N   1      33.600  14.607   9.430  0.00  0.00     0.391 P 
HETATM   15  O   UNK N   1      35.102  14.227   9.455  0.00  0.00    -0.632 OA
BRANCH  14  16
HETATM   16  O   UNK N   1      33.149  14.819  11.096  0.00  0.00    -0.307 OA
HETATM   17  H   UNK N   1      33.058  14.698  12.054  0.00  0.00     0.222 HD
ENDBRANCH  14  16
BRANCH  14  18
HETATM   18  O   UNK N   1      32.784  13.255   8.706  0.00  0.00    -0.307 OA
HETATM   19  H   UNK N   1      32.808  12.298   8.860  0.00  0.00     0.222 HD
ENDBRANCH  14  18
ENDBRANCH  13  14
ENDBRANCH   9  13
BRANCH  10  20
HETATM   20  O   UNK N   1      30.699  16.451   9.652  0.00  0.00    -0.388 OA
HETATM   21  H   UNK N   1      30.220  16.530  10.492  0.00  0.00     0.210 HD
ENDBRANCH  10  20
BRANCH  11  22
HETATM   22  N   UNK N   1      29.106  17.997   7.460  0.00  0.00    -0.297 N 
HETATM   23  C   UNK N   1      28.615  18.436   8.649  0.00  0.00     0.188 A 
HETATM   24  N   UNK N   1      27.651  19.381   8.474  0.00  0.00    -0.346 N 
HETATM   25  C   UNK N   1      27.559  19.519   7.141  0.00  0.00     0.122 A 
ATOM     26  HN  UNK N   1      27.119  19.873   9.192  1.00  0.00     0.167 HD
HETATM   27  C   UNK N   1      26.756  20.363   6.390  0.00  0.00     0.131 A 
HETATM   28  C   UNK N   1      28.425  18.687   6.530  0.00  0.00     0.142 A 
HETATM   29  N   UNK N   1      26.871  20.314   5.030  0.00  0.00    -0.337 N 
HETATM   30  C   UNK N   1      27.757  19.454   4.427  0.00  0.00     0.183 A 
ATOM     31  HN  UNK N   1      26.291  20.923   4.455  1.00  0.00     0.168 HD
HETATM   32  N   UNK N   1      28.549  18.632   5.183  0.00  0.00    -0.336 N 
ATOM     33  HN  UNK N   1      29.214  17.996   4.743  1.00  0.00     0.168 HD
BRANCH  27  34
HETATM   34  N   UNK N   1      25.858  21.257   7.005  0.00  0.00    -0.383 N 
HETATM   35  H   UNK N   1      25.469  21.040   7.884  0.00  0.00     0.157 HD
HETATM   36  H   UNK N   1      25.617  22.100   6.557  0.00  0.00     0.157 HD
ENDBRANCH  27  34
ENDBRANCH  11  22
ENDBRANCH   7   8
ENDBRANCH   6   7
ENDBRANCH   2   6
ENDBRANCH   1   2
BRANCH   1  37
HETATM   37  P   UNK N   1      29.263  14.475   4.557  0.00  0.00     0.401 P 
HETATM   38  O   UNK N   1      28.637  13.647   3.402  0.00  0.00    -0.631 OA
BRANCH  37  39
HETATM   39  O   UNK N   1      29.625  16.086   4.033  0.00  0.00    -0.307 OA
HETATM   40  H   UNK N   1      29.652  17.033   3.824  0.00  0.00     0.222 HD
ENDBRANCH  37  39
BRANCH  37  41
HETATM   41  O   UNK N   1      28.072  15.546   3.888  0.00  0.00    -0.296 OA
BRANCH  41  42
HETATM   42  C   UNK N   1      27.024  15.578   4.803  0.00  0.00     0.192 C 
BRANCH  42  43
HETATM   43  C   UNK N   1      25.592  15.477   4.221  0.00  0.00     0.008 C 
HETATM   44  C   UNK N   1      25.084  14.057   4.001  0.00  0.00     0.020 C 
HETATM   45  C   UNK N   1      25.656  16.154   2.859  0.00  0.00     0.020 C 
BRANCH  43  46
HETATM   46  C   UNK N   1      24.609  16.212   5.160  0.00  0.00     0.202 C 
BRANCH  46  47
HETATM   47  C   UNK N   1      24.431  15.455   6.441  0.00  0.00     0.141 C 
BRANCH  47  48
HETATM   48  N   UNK N   1      23.265  14.994   6.759  0.00  0.00    -0.372 N 
ATOM     49  HN  UNK N   1      23.225  14.256   7.461  1.00  0.00     0.161 HD
BRANCH  48  50
HETATM   50  C   UNK N   1      22.012  15.445   6.193  0.00  0.00     0.129 C 
BRANCH  50  51
HETATM   51  C   UNK N   1      21.310  16.481   7.072  0.00  0.00     0.103 C 
BRANCH  51  52
HETATM   52  C   UNK N   1      21.393  17.942   6.642  0.00  0.00     0.112 C 
BRANCH  52  53
HETATM   53  N   UNK N   1      22.069  18.374   5.622  0.00  0.00    -0.374 N 
ATOM     54  HN  UNK N   1      23.084  18.284   5.667  1.00  0.00     0.161 HD
BRANCH  53  55
HETATM   55  C   UNK N   1      21.517  18.973   4.427  0.00  0.00     0.132 C 
BRANCH  55  56
HETATM   56  C   UNK N   1      21.558  17.982   3.279  0.00  0.00     0.102 C 
BRANCH  56  57
HETATM   57  S   UNK N   1      19.976  17.097   3.166  0.00  0.00    -0.090 SA
BRANCH  57  58
HETATM   58  C   UNK N   1      20.706  15.715   2.277  0.00  0.00     0.200 C 
HETATM   59  O   UNK N   1      21.567  15.051   2.835  0.00  0.00    -0.285 OA
BRANCH  58  60
HETATM   60  C   UNK N   1      20.194  15.324   0.906  0.00  0.00     0.160 C 
HETATM   61  C   UNK N   1      19.525  16.511   0.217  0.00  0.00     0.030 C 
BRANCH  60  62
HETATM   62  C   UNK N   1      19.259  14.146   1.009  0.00  0.00     0.151 C 
HETATM   63  O   UNK N   1      19.132  13.367   0.077  0.00  0.00    -0.649 OA
BRANCH  62  64
HETATM   64  O   UNK N   1      18.565  13.936   2.145  0.00  0.00    -0.776 OA
HETATM   65  H   UNK N   1      17.721  14.026   2.542  0.00  0.00     0.167 HD
ENDBRANCH  62  64
ENDBRANCH  60  62
ENDBRANCH  58  60
ENDBRANCH  57  58
ENDBRANCH  56  57
ENDBRANCH  55  56
ENDBRANCH  53  55
ENDBRANCH  52  53
BRANCH  52  66
HETATM   66  O   UNK N   1      20.706  18.838   7.375  0.00  0.00    -0.350 OA
HETATM   67  H   UNK N   1      20.664  18.752   8.308  0.00  0.00     0.219 HD
ENDBRANCH  52  66
ENDBRANCH  51  52
ENDBRANCH  50  51
ENDBRANCH  48  50
ENDBRANCH  47  48
BRANCH  47  68
HETATM   68  O   UNK N   1      25.471  15.398   7.294  0.00  0.00    -0.348 OA
HETATM   69  H   UNK N   1      26.014  14.686   7.570  0.00  0.00     0.219 HD
ENDBRANCH  47  68
ENDBRANCH  46  47
BRANCH  46  70
HETATM   70  O   UNK N   1      25.041  17.516   5.416  0.00  0.00    -0.387 OA
HETATM   71  H   UNK N   1      24.395  18.228   5.548  0.00  0.00     0.210 HD
ENDBRANCH  46  70
ENDBRANCH  43  46
ENDBRANCH  42  43
ENDBRANCH  41  42
ENDBRANCH  37  41
ENDBRANCH   1  37
TORSDOF 34
ENDMDL
MODEL 7
REMARK VINA RESULT:      -6.0      3.688      7.816
REMARK WARNING: 32 MAX_TORS EXCEEDED!!!
REMARK  34 active torsions:
REMARK  status: ('A' for Active; 'I' for Inactive)
REMARK    1  A    between atoms: C_5  and  C_4 
REMARK    2  A    between atoms: C_14  and  C_4 
REMARK    3  A    between atoms: N_29  and  C_5 
REMARK    4  A    between atoms: C_7  and  C_6 
REMARK    5  A    between atoms: N_27  and  C_6 
REMARK    6  A    between atoms: S_60  and  C_7 
REMARK    7  A    between atoms: C_13  and  C_8 
REMARK    8  A    between atoms: O_52  and  C_8 
REMARK    9  A    between atoms: C_25  and  C_9 
REMARK   10  A    between atoms: O_53  and  C_9 
REMARK   11  A    between atoms: C_23  and  C_12 
REMARK   12  A    between atoms: C_24  and  C_12 
REMARK   13  A    between atoms: N_27  and  C_14 
REMARK   14  A    between atoms: O_38  and  C_14 
REMARK   15  A    between atoms: C_16  and  O_39 
REMARK   16  A    between atoms: C_17  and  O_55 
REMARK   17  A    between atoms: C_21  and  C_18 
REMARK   18  A    between atoms: C_25  and  C_18 
REMARK   19  A    between atoms: C_18  and  O_40 
REMARK   20  A    between atoms: N_26  and  C_19 
REMARK   21  A    between atoms: N_29  and  C_21 
REMARK   22  A    between atoms: O_41  and  C_21 
REMARK   23  A    between atoms: C_22  and  N_37 
REMARK   24  A    between atoms: O_43  and  C_23 
REMARK   25  A    between atoms: S_60  and  C_24 
REMARK   26  A    between atoms: P_57  and  O_45 
REMARK   27  A    between atoms: P_57  and  O_46 
REMARK   28  A    between atoms: P_58  and  O_48 
REMARK   29  A    between atoms: P_59  and  O_50 
REMARK   30  A    between atoms: P_58  and  O_52 
REMARK   31  A    between atoms: P_59  and  O_53 
REMARK   32  A    between atoms: P_57  and  O_55 
REMARK   33  A    between atoms: P_58  and  O_56 
REMARK   34  A    between atoms: P_59  and  O_56 
ROOT
HETATM    1  O   UNK N   1      28.024  15.064   3.646  0.00  0.00    -0.195 OA
ENDROOT
BRANCH   1   2
HETATM    2  P   UNK N   1      26.599  14.228   4.335  0.00  0.00     0.401 P 
HETATM    3  O   UNK N   1      26.509  15.682   4.881  0.00  0.00    -0.631 OA
BRANCH   2   4
HETATM    4  O   UNK N   1      26.252  13.810   2.680  0.00  0.00    -0.307 OA
HETATM    5  H   UNK N   1      26.895  13.315   2.147  0.00  0.00     0.222 HD
ENDBRANCH   2   4
BRANCH   2   6
HETATM    6  O   UNK N   1      25.031  14.835   3.815  0.00  0.00    -0.294 OA
BRANCH   6   7
HETATM    7  C   UNK N   1      24.342  15.402   4.909  0.00  0.00     0.215 C 
BRANCH   7   8
HETATM    8  C   UNK N   1      23.352  14.442   5.553  0.00  0.00     0.180 C 
HETATM    9  C   UNK N   1      21.893  14.764   5.203  0.00  0.00     0.197 C 
HETATM   10  C   UNK N   1      21.245  14.030   6.335  0.00  0.00     0.199 C 
HETATM   11  C   UNK N   1      22.151  14.549   7.457  0.00  0.00     0.262 C 
HETATM   12  O   UNK N   1      23.473  14.441   6.968  0.00  0.00    -0.353 OA
BRANCH   9  13
HETATM   13  O   UNK N   1      21.496  14.304   3.928  0.00  0.00    -0.286 OA
BRANCH  13  14
HETATM   14  P   UNK N   1      20.581  15.568   3.114  0.00  0.00     0.391 P 
HETATM   15  O   UNK N   1      21.496  16.819   3.066  0.00  0.00    -0.632 OA
BRANCH  14  16
HETATM   16  O   UNK N   1      20.227  15.191   1.454  0.00  0.00    -0.307 OA
HETATM   17  H   UNK N   1      20.057  15.267   0.502  0.00  0.00     0.222 HD
ENDBRANCH  14  16
BRANCH  14  18
HETATM   18  O   UNK N   1      19.160  16.058   3.984  0.00  0.00    -0.307 OA
HETATM   19  H   UNK N   1      18.600  16.849   3.961  0.00  0.00     0.222 HD
ENDBRANCH  14  18
ENDBRANCH  13  14
ENDBRANCH   9  13
BRANCH  10  20
HETATM   20  O   UNK N   1      19.906  14.388   6.503  0.00  0.00    -0.388 OA
HETATM   21  H   UNK N   1      19.197  14.832   6.994  0.00  0.00     0.210 HD
ENDBRANCH  10  20
BRANCH  11  22
HETATM   22  N   UNK N   1      22.004  13.881   8.754  0.00  0.00    -0.297 N 
HETATM   23  C   UNK N   1      20.811  13.653   9.365  0.00  0.00     0.188 A 
HETATM   24  N   UNK N   1      20.967  12.966  10.529  0.00  0.00    -0.346 N 
HETATM   25  C   UNK N   1      22.293  12.770  10.625  0.00  0.00     0.122 A 
ATOM     26  HN  UNK N   1      20.242  12.668  11.181  1.00  0.00     0.167 HD
HETATM   27  C   UNK N   1      23.023  12.105  11.595  0.00  0.00     0.131 A 
HETATM   28  C   UNK N   1      22.918  13.322   9.566  0.00  0.00     0.142 A 
HETATM   29  N   UNK N   1      24.378  12.037  11.443  0.00  0.00    -0.337 N 
HETATM   30  C   UNK N   1      24.997  12.612  10.359  0.00  0.00     0.183 A 
ATOM     31  HN  UNK N   1      24.939  11.554  12.145  1.00  0.00     0.168 HD
HETATM   32  N   UNK N   1      24.261  13.260   9.404  0.00  0.00    -0.336 N 
ATOM     33  HN  UNK N   1      24.712  13.682   8.593  1.00  0.00     0.168 HD
BRANCH  27  34
HETATM   34  N   UNK N   1      22.392  11.501  12.701  0.00  0.00    -0.383 N 
HETATM   35  H   UNK N   1      21.817  12.037  13.294  0.00  0.00     0.157 HD
HETATM   36  H   UNK N   1      22.524  10.542  12.881  0.00  0.00     0.157 HD
ENDBRANCH  27  34
ENDBRANCH  11  22
ENDBRANCH   7   8
ENDBRANCH   6   7
ENDBRANCH   2   6
ENDBRANCH   1   2
BRANCH   1  37
HETATM   37  P   UNK N   1      29.055  16.105   4.655  0.00  0.00     0.401 P 
HETATM   38  O   UNK N   1      29.696  16.328   3.257  0.00  0.00    -0.631 OA
BRANCH  37  39
HETATM   39  O   UNK N   1      29.510  14.563   5.301  0.00  0.00    -0.307 OA
HETATM   40  H   UNK N   1      29.952  13.770   5.642  0.00  0.00     0.222 HD
ENDBRANCH  37  39
BRANCH  37  41
HETATM   41  O   UNK N   1      30.707  15.621   4.883  0.00  0.00    -0.296 OA
BRANCH  41  42
HETATM   42  C   UNK N   1      31.294  16.610   5.664  0.00  0.00     0.192 C 
BRANCH  42  43
HETATM   43  C   UNK N   1      32.740  16.341   6.153  0.00  0.00     0.008 C 
HETATM   44  C   UNK N   1      33.552  17.589   6.481  0.00  0.00     0.020 C 
HETATM   45  C   UNK N   1      33.437  15.636   4.999  0.00  0.00     0.020 C 
BRANCH  43  46
HETATM   46  C   UNK N   1      32.693  15.441   7.407  0.00  0.00     0.202 C 
BRANCH  46  47
HETATM   47  C   UNK N   1      32.502  16.263   8.646  0.00  0.00     0.141 C 
BRANCH  47  48
HETATM   48  N   UNK N   1      31.307  16.587   9.024  0.00  0.00    -0.372 N 
ATOM     49  HN  UNK N   1      30.719  15.848   9.409  1.00  0.00     0.161 HD
BRANCH  48  50
HETATM   50  C   UNK N   1      30.742  17.916   8.942  0.00  0.00     0.129 C 
BRANCH  50  51
HETATM   51  C   UNK N   1      29.391  18.025   9.650  0.00  0.00     0.103 C 
BRANCH  51  52
HETATM   52  C   UNK N   1      28.142  17.700   8.837  0.00  0.00     0.112 C 
BRANCH  52  53
HETATM   53  N   UNK N   1      27.900  18.147   7.644  0.00  0.00    -0.374 N 
ATOM     54  HN  UNK N   1      27.549  17.476   6.960  1.00  0.00     0.161 HD
BRANCH  53  55
HETATM   55  C   UNK N   1      28.082  19.509   7.191  0.00  0.00     0.132 C 
BRANCH  55  56
HETATM   56  C   UNK N   1      27.683  19.632   5.732  0.00  0.00     0.102 C 
BRANCH  56  57
HETATM   57  S   UNK N   1      26.274  20.765   5.568  0.00  0.00    -0.090 SA
BRANCH  57  58
HETATM   58  C   UNK N   1      25.283  19.553   4.681  0.00  0.00     0.200 C 
HETATM   59  O   UNK N   1      24.878  18.573   5.290  0.00  0.00    -0.285 OA
BRANCH  58  60
HETATM   60  C   UNK N   1      24.880  19.792   3.242  0.00  0.00     0.160 C 
HETATM   61  C   UNK N   1      25.825  20.787   2.571  0.00  0.00     0.030 C 
BRANCH  60  62
HETATM   62  C   UNK N   1      23.447  20.254   3.166  0.00  0.00     0.151 C 
HETATM   63  O   UNK N   1      23.164  21.330   2.661  0.00  0.00    -0.649 OA
BRANCH  62  64
HETATM   64  O   UNK N   1      22.462  19.469   3.644  0.00  0.00    -0.776 OA
HETATM   65  H   UNK N   1      22.174  18.995   4.400  0.00  0.00     0.167 HD
ENDBRANCH  62  64
ENDBRANCH  60  62
ENDBRANCH  58  60
ENDBRANCH  57  58
ENDBRANCH  56  57
ENDBRANCH  55  56
ENDBRANCH  53  55
ENDBRANCH  52  53
BRANCH  52  66
HETATM   66  O   UNK N   1      27.235  16.883   9.405  0.00  0.00    -0.350 OA
HETATM   67  H   UNK N   1      26.492  17.240   9.852  0.00  0.00     0.219 HD
ENDBRANCH  52  66
ENDBRANCH  51  52
ENDBRANCH  50  51
ENDBRANCH  48  50
ENDBRANCH  47  48
BRANCH  47  68
HETATM   68  O   UNK N   1      33.596  16.762   9.252  0.00  0.00    -0.348 OA
HETATM   69  H   UNK N   1      33.948  16.630  10.111  0.00  0.00     0.219 HD
ENDBRANCH  47  68
ENDBRANCH  46  47
BRANCH  46  70
HETATM   70  O   UNK N   1      31.685  14.479   7.296  0.00  0.00    -0.387 OA
HETATM   71  H   UNK N   1      30.993  14.416   7.972  0.00  0.00     0.210 HD
ENDBRANCH  46  70
ENDBRANCH  43  46
ENDBRANCH  42  43
ENDBRANCH  41  42
ENDBRANCH  37  41
ENDBRANCH   1  37
TORSDOF 34
ENDMDL
MODEL 8
REMARK VINA RESULT:      -5.9      8.912     12.978
REMARK WARNING: 32 MAX_TORS EXCEEDED!!!
REMARK  34 active torsions:
REMARK  status: ('A' for Active; 'I' for Inactive)
REMARK    1  A    between atoms: C_5  and  C_4 
REMARK    2  A    between atoms: C_14  and  C_4 
REMARK    3  A    between atoms: N_29  and  C_5 
REMARK    4  A    between atoms: C_7  and  C_6 
REMARK    5  A    between atoms: N_27  and  C_6 
REMARK    6  A    between atoms: S_60  and  C_7 
REMARK    7  A    between atoms: C_13  and  C_8 
REMARK    8  A    between atoms: O_52  and  C_8 
REMARK    9  A    between atoms: C_25  and  C_9 
REMARK   10  A    between atoms: O_53  and  C_9 
REMARK   11  A    between atoms: C_23  and  C_12 
REMARK   12  A    between atoms: C_24  and  C_12 
REMARK   13  A    between atoms: N_27  and  C_14 
REMARK   14  A    between atoms: O_38  and  C_14 
REMARK   15  A    between atoms: C_16  and  O_39 
REMARK   16  A    between atoms: C_17  and  O_55 
REMARK   17  A    between atoms: C_21  and  C_18 
REMARK   18  A    between atoms: C_25  and  C_18 
REMARK   19  A    between atoms: C_18  and  O_40 
REMARK   20  A    between atoms: N_26  and  C_19 
REMARK   21  A    between atoms: N_29  and  C_21 
REMARK   22  A    between atoms: O_41  and  C_21 
REMARK   23  A    between atoms: C_22  and  N_37 
REMARK   24  A    between atoms: O_43  and  C_23 
REMARK   25  A    between atoms: S_60  and  C_24 
REMARK   26  A    between atoms: P_57  and  O_45 
REMARK   27  A    between atoms: P_57  and  O_46 
REMARK   28  A    between atoms: P_58  and  O_48 
REMARK   29  A    between atoms: P_59  and  O_50 
REMARK   30  A    between atoms: P_58  and  O_52 
REMARK   31  A    between atoms: P_59  and  O_53 
REMARK   32  A    between atoms: P_57  and  O_55 
REMARK   33  A    between atoms: P_58  and  O_56 
REMARK   34  A    between atoms: P_59  and  O_56 
ROOT
HETATM    1  O   UNK N   1      34.964  17.708   9.207  0.00  0.00    -0.195 OA
ENDROOT
BRANCH   1   2
HETATM    2  P   UNK N   1      33.537  18.263   8.281  0.00  0.00     0.401 P 
HETATM    3  O   UNK N   1      34.663  18.101   7.218  0.00  0.00    -0.631 OA
BRANCH   2   4
HETATM    4  O   UNK N   1      32.733  16.909   9.029  0.00  0.00    -0.307 OA
HETATM    5  H   UNK N   1      32.667  16.056   8.571  0.00  0.00     0.222 HD
ENDBRANCH   2   4
BRANCH   2   6
HETATM    6  O   UNK N   1      32.909  17.128   7.091  0.00  0.00    -0.294 OA
BRANCH   6   7
HETATM    7  C   UNK N   1      31.687  16.580   7.538  0.00  0.00     0.215 C 
BRANCH   7   8
HETATM    8  C   UNK N   1      30.741  16.227   6.400  0.00  0.00     0.180 C 
HETATM    9  C   UNK N   1      31.460  16.062   5.054  0.00  0.00     0.197 C 
HETATM   10  C   UNK N   1      30.271  16.242   4.164  0.00  0.00     0.199 C 
HETATM   11  C   UNK N   1      29.689  17.483   4.851  0.00  0.00     0.262 C 
HETATM   12  O   UNK N   1      29.729  17.211   6.238  0.00  0.00    -0.353 OA
BRANCH   9  13
HETATM   13  O   UNK N   1      32.101  14.814   4.897  0.00  0.00    -0.286 OA
BRANCH  13  14
HETATM   14  P   UNK N   1      33.734  15.071   4.292  0.00  0.00     0.391 P 
HETATM   15  O   UNK N   1      33.612  16.015   3.069  0.00  0.00    -0.632 OA
BRANCH  14  16
HETATM   16  O   UNK N   1      34.755  15.909   5.423  0.00  0.00    -0.307 OA
HETATM   17  H   UNK N   1      35.142  16.255   6.242  0.00  0.00     0.222 HD
ENDBRANCH  14  16
BRANCH  14  18
HETATM   18  O   UNK N   1      34.482  13.622   3.695  0.00  0.00    -0.307 OA
HETATM   19  H   UNK N   1      34.175  12.709   3.580  0.00  0.00     0.222 HD
ENDBRANCH  14  18
ENDBRANCH  13  14
ENDBRANCH   9  13
BRANCH  10  20
HETATM   20  O   UNK N   1      30.632  16.472   2.834  0.00  0.00    -0.388 OA
HETATM   21  H   UNK N   1      30.920  17.060   2.118  0.00  0.00     0.210 HD
ENDBRANCH  10  20
BRANCH  11  22
HETATM   22  N   UNK N   1      28.344  17.877   4.422  0.00  0.00    -0.297 N 
HETATM   23  C   UNK N   1      27.533  17.107   3.650  0.00  0.00     0.188 A 
HETATM   24  N   UNK N   1      26.322  17.695   3.452  0.00  0.00    -0.346 N 
HETATM   25  C   UNK N   1      26.402  18.855   4.127  0.00  0.00     0.122 A 
ATOM     26  HN  UNK N   1      25.533  17.338   2.914  1.00  0.00     0.167 HD
HETATM   27  C   UNK N   1      25.453  19.849   4.296  0.00  0.00     0.131 A 
HETATM   28  C   UNK N   1      27.614  18.970   4.704  0.00  0.00     0.142 A 
HETATM   29  N   UNK N   1      25.790  20.935   5.053  0.00  0.00    -0.337 N 
HETATM   30  C   UNK N   1      27.034  21.035   5.628  0.00  0.00     0.183 A 
ATOM     31  HN  UNK N   1      25.110  21.681   5.192  1.00  0.00     0.168 HD
HETATM   32  N   UNK N   1      27.959  20.040   5.458  0.00  0.00    -0.336 N 
ATOM     33  HN  UNK N   1      28.881  20.104   5.888  1.00  0.00     0.168 HD
BRANCH  27  34
HETATM   34  N   UNK N   1      24.171  19.743   3.721  0.00  0.00    -0.383 N 
HETATM   35  H   UNK N   1      23.480  20.415   3.926  0.00  0.00     0.157 HD
HETATM   36  H   UNK N   1      23.965  18.997   3.112  0.00  0.00     0.157 HD
ENDBRANCH  27  34
ENDBRANCH  11  22
ENDBRANCH   7   8
ENDBRANCH   6   7
ENDBRANCH   2   6
ENDBRANCH   1   2
BRANCH   1  37
HETATM   37  P   UNK N   1      34.960  16.141  10.051  0.00  0.00     0.401 P 
HETATM   38  O   UNK N   1      36.322  16.721  10.522  0.00  0.00    -0.631 OA
BRANCH  37  39
HETATM   39  O   UNK N   1      35.066  15.571   8.418  0.00  0.00    -0.307 OA
HETATM   40  H   UNK N   1      35.222  15.425   7.472  0.00  0.00     0.222 HD
ENDBRANCH  37  39
BRANCH  37  41
HETATM   41  O   UNK N   1      36.110  14.948   9.534  0.00  0.00    -0.296 OA
BRANCH  41  42
HETATM   42  C   UNK N   1      36.314  14.111  10.627  0.00  0.00     0.192 C 
BRANCH  42  43
HETATM   43  C   UNK N   1      37.332  12.958  10.437  0.00  0.00     0.008 C 
HETATM   44  C   UNK N   1      36.853  11.815   9.549  0.00  0.00     0.020 C 
HETATM   45  C   UNK N   1      37.566  12.387  11.828  0.00  0.00     0.020 C 
BRANCH  43  46
HETATM   46  C   UNK N   1      38.640  13.528   9.844  0.00  0.00     0.202 C 
BRANCH  46  47
HETATM   47  C   UNK N   1      38.779  13.147   8.401  0.00  0.00     0.141 C 
BRANCH  47  48
HETATM   48  N   UNK N   1      38.019  13.704   7.513  0.00  0.00    -0.372 N 
ATOM     49  HN  UNK N   1      37.020  13.747   7.709  1.00  0.00     0.161 HD
BRANCH  48  50
HETATM   50  C   UNK N   1      38.480  14.271   6.265  0.00  0.00     0.129 C 
BRANCH  50  51
HETATM   51  C   UNK N   1      37.756  13.687   5.051  0.00  0.00     0.103 C 
BRANCH  51  52
HETATM   52  C   UNK N   1      37.489  12.185   5.046  0.00  0.00     0.112 C 
BRANCH  52  53
HETATM   53  N   UNK N   1      36.363  11.636   4.709  0.00  0.00    -0.374 N 
ATOM     54  HN  UNK N   1      35.607  12.262   4.433  1.00  0.00     0.161 HD
BRANCH  53  55
HETATM   55  C   UNK N   1      36.079  10.217   4.688  0.00  0.00     0.132 C 
BRANCH  55  56
HETATM   56  C   UNK N   1      34.601   9.984   4.440  0.00  0.00     0.102 C 
BRANCH  56  57
HETATM   57  S   UNK N   1      33.921   8.895   5.724  0.00  0.00    -0.090 SA
BRANCH  57  58
HETATM   58  C   UNK N   1      33.091  10.251   6.565  0.00  0.00     0.200 C 
HETATM   59  O   UNK N   1      31.909  10.451   6.326  0.00  0.00    -0.285 OA
BRANCH  58  60
HETATM   60  C   UNK N   1      33.815  11.063   7.619  0.00  0.00     0.160 C 
HETATM   61  C   UNK N   1      33.221  10.809   9.003  0.00  0.00     0.030 C 
BRANCH  60  62
HETATM   62  C   UNK N   1      33.788  12.528   7.266  0.00  0.00     0.151 C 
HETATM   63  O   UNK N   1      34.807  13.106   6.920  0.00  0.00    -0.649 OA
BRANCH  62  64
HETATM   64  O   UNK N   1      32.627  13.210   7.315  0.00  0.00    -0.776 OA
HETATM   65  H   UNK N   1      32.073  13.793   6.835  0.00  0.00     0.167 HD
ENDBRANCH  62  64
ENDBRANCH  60  62
ENDBRANCH  58  60
ENDBRANCH  57  58
ENDBRANCH  56  57
ENDBRANCH  55  56
ENDBRANCH  53  55
ENDBRANCH  52  53
BRANCH  52  66
HETATM   66  O   UNK N   1      38.504  11.380   5.412  0.00  0.00    -0.350 OA
HETATM   67  H   UNK N   1      39.392  11.652   5.284  0.00  0.00     0.219 HD
ENDBRANCH  52  66
ENDBRANCH  51  52
ENDBRANCH  50  51
ENDBRANCH  48  50
ENDBRANCH  47  48
BRANCH  47  68
HETATM   68  O   UNK N   1      39.600  12.126   8.089  0.00  0.00    -0.348 OA
HETATM   69  H   UNK N   1      40.515  12.100   7.890  0.00  0.00     0.219 HD
ENDBRANCH  47  68
ENDBRANCH  46  47
BRANCH  46  70
HETATM   70  O   UNK N   1      38.695  14.916   9.993  0.00  0.00    -0.387 OA
HETATM   71  H   UNK N   1      38.566  15.320  10.865  0.00  0.00     0.210 HD
ENDBRANCH  46  70
ENDBRANCH  43  46
ENDBRANCH  42  43
ENDBRANCH  41  42
ENDBRANCH  37  41
ENDBRANCH   1  37
TORSDOF 34
ENDMDL
MODEL 9
REMARK VINA RESULT:      -5.9      3.629      8.459
REMARK WARNING: 32 MAX_TORS EXCEEDED!!!
REMARK  34 active torsions:
REMARK  status: ('A' for Active; 'I' for Inactive)
REMARK    1  A    between atoms: C_5  and  C_4 
REMARK    2  A    between atoms: C_14  and  C_4 
REMARK    3  A    between atoms: N_29  and  C_5 
REMARK    4  A    between atoms: C_7  and  C_6 
REMARK    5  A    between atoms: N_27  and  C_6 
REMARK    6  A    between atoms: S_60  and  C_7 
REMARK    7  A    between atoms: C_13  and  C_8 
REMARK    8  A    between atoms: O_52  and  C_8 
REMARK    9  A    between atoms: C_25  and  C_9 
REMARK   10  A    between atoms: O_53  and  C_9 
REMARK   11  A    between atoms: C_23  and  C_12 
REMARK   12  A    between atoms: C_24  and  C_12 
REMARK   13  A    between atoms: N_27  and  C_14 
REMARK   14  A    between atoms: O_38  and  C_14 
REMARK   15  A    between atoms: C_16  and  O_39 
REMARK   16  A    between atoms: C_17  and  O_55 
REMARK   17  A    between atoms: C_21  and  C_18 
REMARK   18  A    between atoms: C_25  and  C_18 
REMARK   19  A    between atoms: C_18  and  O_40 
REMARK   20  A    between atoms: N_26  and  C_19 
REMARK   21  A    between atoms: N_29  and  C_21 
REMARK   22  A    between atoms: O_41  and  C_21 
REMARK   23  A    between atoms: C_22  and  N_37 
REMARK   24  A    between atoms: O_43  and  C_23 
REMARK   25  A    between atoms: S_60  and  C_24 
REMARK   26  A    between atoms: P_57  and  O_45 
REMARK   27  A    between atoms: P_57  and  O_46 
REMARK   28  A    between atoms: P_58  and  O_48 
REMARK   29  A    between atoms: P_59  and  O_50 
REMARK   30  A    between atoms: P_58  and  O_52 
REMARK   31  A    between atoms: P_59  and  O_53 
REMARK   32  A    between atoms: P_57  and  O_55 
REMARK   33  A    between atoms: P_58  and  O_56 
REMARK   34  A    between atoms: P_59  and  O_56 
ROOT
HETATM    1  O   UNK N   1      24.040  19.810   3.504  0.00  0.00    -0.195 OA
ENDROOT
BRANCH   1   2
HETATM    2  P   UNK N   1      22.617  18.981   4.204  0.00  0.00     0.401 P 
HETATM    3  O   UNK N   1      22.024  19.992   3.180  0.00  0.00    -0.631 OA
BRANCH   2   4
HETATM    4  O   UNK N   1      23.442  17.521   3.730  0.00  0.00    -0.307 OA
HETATM    5  H   UNK N   1      24.126  17.131   4.298  0.00  0.00     0.222 HD
ENDBRANCH   2   4
BRANCH   2   6
HETATM    6  O   UNK N   1      21.664  18.018   3.080  0.00  0.00    -0.294 OA
BRANCH   6   7
HETATM    7  C   UNK N   1      20.327  17.929   3.527  0.00  0.00     0.215 C 
BRANCH   7   8
HETATM    8  C   UNK N   1      19.847  16.494   3.689  0.00  0.00     0.180 C 
HETATM    9  C   UNK N   1      20.188  15.901   5.062  0.00  0.00     0.197 C 
HETATM   10  C   UNK N   1      20.064  14.455   4.697  0.00  0.00     0.199 C 
HETATM   11  C   UNK N   1      20.869  14.507   3.393  0.00  0.00     0.262 C 
HETATM   12  O   UNK N   1      20.401  15.644   2.695  0.00  0.00    -0.353 OA
BRANCH   9  13
HETATM   13  O   UNK N   1      19.309  16.302   6.093  0.00  0.00    -0.286 OA
BRANCH  13  14
HETATM   14  P   UNK N   1      20.214  16.481   7.592  0.00  0.00     0.391 P 
HETATM   15  O   UNK N   1      19.416  15.728   8.686  0.00  0.00    -0.632 OA
BRANCH  14  16
HETATM   16  O   UNK N   1      21.772  15.711   7.543  0.00  0.00    -0.307 OA
HETATM   17  H   UNK N   1      22.678  15.467   7.297  0.00  0.00     0.222 HD
ENDBRANCH  14  16
BRANCH  14  18
HETATM   18  O   UNK N   1      20.322  18.127   8.136  0.00  0.00    -0.307 OA
HETATM   19  H   UNK N   1      19.665  18.818   8.315  0.00  0.00     0.222 HD
ENDBRANCH  14  18
ENDBRANCH  13  14
ENDBRANCH   9  13
BRANCH  10  20
HETATM   20  O   UNK N   1      20.632  13.614   5.656  0.00  0.00    -0.388 OA
HETATM   21  H   UNK N   1      20.786  12.735   6.036  0.00  0.00     0.210 HD
ENDBRANCH  10  20
BRANCH  11  22
HETATM   22  N   UNK N   1      20.806  13.304   2.558  0.00  0.00    -0.297 N 
HETATM   23  C   UNK N   1      19.651  12.688   2.192  0.00  0.00     0.188 A 
HETATM   24  N   UNK N   1      19.885  11.629   1.370  0.00  0.00    -0.346 N 
HETATM   25  C   UNK N   1      21.222  11.604   1.234  0.00  0.00     0.122 A 
ATOM     26  HN  UNK N   1      19.202  10.997   0.953  1.00  0.00     0.167 HD
HETATM   27  C   UNK N   1      22.021  10.752   0.489  0.00  0.00     0.131 A 
HETATM   28  C   UNK N   1      21.777  12.602   1.949  0.00  0.00     0.142 A 
HETATM   29  N   UNK N   1      23.371  10.957   0.513  0.00  0.00    -0.337 N 
HETATM   30  C   UNK N   1      23.917  11.978   1.253  0.00  0.00     0.183 A 
ATOM     31  HN  UNK N   1      23.982  10.343  -0.026  1.00  0.00     0.168 HD
HETATM   32  N   UNK N   1      23.114  12.816   1.978  0.00  0.00    -0.336 N 
ATOM     33  HN  UNK N   1      23.511  13.580   2.524  1.00  0.00     0.168 HD
BRANCH  27  34
HETATM   34  N   UNK N   1      21.464   9.714  -0.283  0.00  0.00    -0.383 N 
HETATM   35  H   UNK N   1      21.696   9.628  -1.236  0.00  0.00     0.157 HD
HETATM   36  H   UNK N   1      20.842   9.072   0.130  0.00  0.00     0.157 HD
ENDBRANCH  27  34
ENDBRANCH  11  22
ENDBRANCH   7   8
ENDBRANCH   6   7
ENDBRANCH   2   6
ENDBRANCH   1   2
BRANCH   1  37
HETATM   37  P   UNK N   1      25.603  19.827   4.353  0.00  0.00     0.401 P 
HETATM   38  O   UNK N   1      25.897  18.801   3.224  0.00  0.00    -0.631 OA
BRANCH  37  39
HETATM   39  O   UNK N   1      24.628  19.113   5.594  0.00  0.00    -0.307 OA
HETATM   40  H   UNK N   1      24.231  18.580   6.300  0.00  0.00     0.222 HD
ENDBRANCH  37  39
BRANCH  37  41
HETATM   41  O   UNK N   1      26.064  18.394   5.216  0.00  0.00    -0.296 OA
BRANCH  41  42
HETATM   42  C   UNK N   1      27.403  18.563   5.557  0.00  0.00     0.192 C 
BRANCH  42  43
HETATM   43  C   UNK N   1      28.226  17.272   5.794  0.00  0.00     0.008 C 
HETATM   44  C   UNK N   1      27.608  16.284   6.777  0.00  0.00     0.020 C 
HETATM   45  C   UNK N   1      29.550  17.735   6.387  0.00  0.00     0.020 C 
BRANCH  43  46
HETATM   46  C   UNK N   1      28.444  16.552   4.444  0.00  0.00     0.202 C 
BRANCH  46  47
HETATM   47  C   UNK N   1      27.356  15.552   4.194  0.00  0.00     0.141 C 
BRANCH  47  48
HETATM   48  N   UNK N   1      27.592  14.291   4.365  0.00  0.00    -0.372 N 
ATOM     49  HN  UNK N   1      28.560  14.009   4.513  1.00  0.00     0.161 HD
BRANCH  48  50
HETATM   50  C   UNK N   1      26.586  13.251   4.362  0.00  0.00     0.129 C 
BRANCH  50  51
HETATM   51  C   UNK N   1      25.728  13.260   5.628  0.00  0.00     0.103 C 
BRANCH  51  52
HETATM   52  C   UNK N   1      24.244  13.575   5.469  0.00  0.00     0.112 C 
BRANCH  52  53
HETATM   53  N   UNK N   1      23.296  12.690   5.480  0.00  0.00    -0.374 N 
ATOM     54  HN  UNK N   1      22.344  13.030   5.341  1.00  0.00     0.161 HD
BRANCH  53  55
HETATM   55  C   UNK N   1      23.461  11.266   5.672  0.00  0.00     0.132 C 
BRANCH  55  56
HETATM   56  C   UNK N   1      22.665  10.805   6.878  0.00  0.00     0.102 C 
BRANCH  56  57
HETATM   57  S   UNK N   1      23.562  11.209   8.405  0.00  0.00    -0.090 SA
BRANCH  57  58
HETATM   58  C   UNK N   1      22.335  12.421   8.915  0.00  0.00     0.200 C 
HETATM   59  O   UNK N   1      21.563  12.860   8.074  0.00  0.00    -0.285 OA
BRANCH  58  60
HETATM   60  C   UNK N   1      22.198  12.813  10.371  0.00  0.00     0.160 C 
HETATM   61  C   UNK N   1      23.129  11.979  11.248  0.00  0.00     0.030 C 
BRANCH  60  62
HETATM   62  C   UNK N   1      20.763  12.692  10.817  0.00  0.00     0.151 C 
HETATM   63  O   UNK N   1      20.461  11.977  11.760  0.00  0.00    -0.649 OA
BRANCH  62  64
HETATM   64  O   UNK N   1      19.801  13.390  10.182  0.00  0.00    -0.776 OA
HETATM   65  H   UNK N   1      18.982  13.311   9.735  0.00  0.00     0.167 HD
ENDBRANCH  62  64
ENDBRANCH  60  62
ENDBRANCH  58  60
ENDBRANCH  57  58
ENDBRANCH  56  57
ENDBRANCH  55  56
ENDBRANCH  53  55
ENDBRANCH  52  53
BRANCH  52  66
HETATM   66  O   UNK N   1      23.904  14.868   5.316  0.00  0.00    -0.350 OA
HETATM   67  H   UNK N   1      24.543  15.543   5.440  0.00  0.00     0.219 HD
ENDBRANCH  52  66
ENDBRANCH  51  52
ENDBRANCH  50  51
ENDBRANCH  48  50
ENDBRANCH  47  48
BRANCH  47  68
HETATM   68  O   UNK N   1      26.201  15.990   3.661  0.00  0.00    -0.348 OA
HETATM   69  H   UNK N   1      25.352  15.596   3.600  0.00  0.00     0.219 HD
ENDBRANCH  47  68
ENDBRANCH  46  47
BRANCH  46  70
HETATM   70  O   UNK N   1      28.518  17.471   3.394  0.00  0.00    -0.387 OA
HETATM   71  H   UNK N   1      29.380  17.777   3.071  0.00  0.00     0.210 HD
ENDBRANCH  46  70
ENDBRANCH  43  46
ENDBRANCH  42  43
ENDBRANCH  41  42
ENDBRANCH  37  41
ENDBRANCH   1  37
TORSDOF 34
ENDMDL
