MODEL 1
REMARK VINA RESULT:      -4.3      0.000      0.000
REMARK  5 active torsions:
REMARK  status: ('A' for Active; 'I' for Inactive)
REMARK    1  A    between atoms: C_2  and  C_3 
REMARK    2  A    between atoms: C_3  and  C_4 
REMARK    3  A    between atoms: C_4  and  C_5 
REMARK    4  A    between atoms: C_4  and  C_8 
REMARK    5  A    between atoms: C_5  and  C_6 
REMARK       I    between atoms: C_8  and  N_9 
ROOT
HETATM    1  C   UNK N   1      33.390  17.499   7.594  0.00  0.00     0.077 C 
ENDROOT
BRANCH   1   2
HETATM    2  C   UNK N   1      32.079  16.891   8.081  0.00  0.00     0.013 C 
BRANCH   2   3
HETATM    3  C   UNK N   1      31.133  17.963   8.598  0.00  0.00    -0.004 C 
HETATM    4  C   UNK N   1      29.779  17.813   7.938  0.00  0.00     0.005 C 
ENDBRANCH   2   3
ENDBRANCH   1   2
BRANCH   1   5
HETATM    5  C   UNK N   1      33.635  17.574   6.087  0.00  0.00     0.013 C 
BRANCH   5   6
HETATM    6  C   UNK N   1      32.488  16.949   5.311  0.00  0.00    -0.004 C 
HETATM    7  C   UNK N   1      32.324  17.653   3.980  0.00  0.00     0.005 C 
ENDBRANCH   5   6
ENDBRANCH   1   5
BRANCH   1   8
HETATM    8  C   UNK N   1      34.414  18.022   8.571  0.00  0.00     0.219 C 
HETATM    9  N   UNK N   1      34.655  17.380   9.725  0.00  0.00    -0.370 N 
HETATM   10  H   UNK N   1      35.103  17.811  10.489  0.00  0.00     0.159 HD
HETATM   11  H   UNK N   1      34.375  16.439   9.812  0.00  0.00     0.159 HD
HETATM   12  O   UNK N   1      35.038  19.047   8.311  0.00  0.00    -0.273 OA
ENDBRANCH   1   8
TORSDOF 5
ENDMDL
MODEL 2
REMARK VINA RESULT:      -4.3      9.623     10.851
REMARK  5 active torsions:
REMARK  status: ('A' for Active; 'I' for Inactive)
REMARK    1  A    between atoms: C_2  and  C_3 
REMARK    2  A    between atoms: C_3  and  C_4 
REMARK    3  A    between atoms: C_4  and  C_5 
REMARK    4  A    between atoms: C_4  and  C_8 
REMARK    5  A    between atoms: C_5  and  C_6 
REMARK       I    between atoms: C_8  and  N_9 
ROOT
HETATM    1  C   UNK N   1      35.836  13.006  15.829  0.00  0.00     0.077 C 
ENDROOT
BRANCH   1   2
HETATM    2  C   UNK N   1      35.991  11.516  15.543  0.00  0.00     0.013 C 
BRANCH   2   3
HETATM    3  C   UNK N   1      34.688  10.770  15.789  0.00  0.00    -0.004 C 
HETATM    4  C   UNK N   1      33.860  10.754  14.521  0.00  0.00     0.005 C 
ENDBRANCH   2   3
ENDBRANCH   1   2
BRANCH   1   5
HETATM    5  C   UNK N   1      34.747  13.442  16.809  0.00  0.00     0.013 C 
BRANCH   5   6
HETATM    6  C   UNK N   1      35.330  13.761  18.175  0.00  0.00    -0.004 C 
HETATM    7  C   UNK N   1      35.239  12.543  19.070  0.00  0.00     0.005 C 
ENDBRANCH   5   6
ENDBRANCH   1   5
BRANCH   1   8
HETATM    8  C   UNK N   1      36.738  14.021  15.174  0.00  0.00     0.219 C 
HETATM    9  N   UNK N   1      36.741  14.180  13.840  0.00  0.00    -0.370 N 
HETATM   10  H   UNK N   1      37.478  14.623  13.361  0.00  0.00     0.159 HD
HETATM   11  H   UNK N   1      35.976  13.841  13.321  0.00  0.00     0.159 HD
HETATM   12  O   UNK N   1      37.480  14.714  15.864  0.00  0.00    -0.273 OA
ENDBRANCH   1   8
TORSDOF 5
ENDMDL
MODEL 3
REMARK VINA RESULT:      -4.3      9.676     10.663
REMARK  5 active torsions:
REMARK  status: ('A' for Active; 'I' for Inactive)
REMARK    1  A    between atoms: C_2  and  C_3 
REMARK    2  A    between atoms: C_3  and  C_4 
REMARK    3  A    between atoms: C_4  and  C_5 
REMARK    4  A    between atoms: C_4  and  C_8 
REMARK    5  A    between atoms: C_5  and  C_6 
REMARK       I    between atoms: C_8  and  N_9 
ROOT
HETATM    1  C   UNK N   1      35.913  13.078  15.904  0.00  0.00     0.077 C 
ENDROOT
BRANCH   1   2
HETATM    2  C   UNK N   1      34.784  13.488  16.844  0.00  0.00     0.013 C 
BRANCH   2   3
HETATM    3  C   UNK N   1      35.325  13.914  18.200  0.00  0.00    -0.004 C 
HETATM    4  C   UNK N   1      35.230  12.759  19.174  0.00  0.00     0.005 C 
ENDBRANCH   2   3
ENDBRANCH   1   2
BRANCH   1   5
HETATM    5  C   UNK N   1      36.137  11.587  15.654  0.00  0.00     0.013 C 
BRANCH   5   6
HETATM    6  C   UNK N   1      34.895  10.779  15.992  0.00  0.00    -0.004 C 
HETATM    7  C   UNK N   1      34.041  10.605  14.754  0.00  0.00     0.005 C 
ENDBRANCH   5   6
ENDBRANCH   1   5
BRANCH   1   8
HETATM    8  C   UNK N   1      36.778  14.113  15.230  0.00  0.00     0.219 C 
HETATM    9  N   UNK N   1      36.724  14.295  13.901  0.00  0.00    -0.370 N 
HETATM   10  H   UNK N   1      37.437  14.754  13.399  0.00  0.00     0.159 HD
HETATM   11  H   UNK N   1      35.942  13.958  13.407  0.00  0.00     0.159 HD
HETATM   12  O   UNK N   1      37.541  14.802  15.901  0.00  0.00    -0.273 OA
ENDBRANCH   1   8
TORSDOF 5
ENDMDL
MODEL 4
REMARK VINA RESULT:      -4.2      0.472      3.174
REMARK  5 active torsions:
REMARK  status: ('A' for Active; 'I' for Inactive)
REMARK    1  A    between atoms: C_2  and  C_3 
REMARK    2  A    between atoms: C_3  and  C_4 
REMARK    3  A    between atoms: C_4  and  C_5 
REMARK    4  A    between atoms: C_4  and  C_8 
REMARK    5  A    between atoms: C_5  and  C_6 
REMARK       I    between atoms: C_8  and  N_9 
ROOT
HETATM    1  C   UNK N   1      33.337  17.560   7.506  0.00  0.00     0.077 C 
ENDROOT
BRANCH   1   2
HETATM    2  C   UNK N   1      33.680  17.503   6.021  0.00  0.00     0.013 C 
BRANCH   2   3
HETATM    3  C   UNK N   1      32.423  17.445   5.168  0.00  0.00    -0.004 C 
HETATM    4  C   UNK N   1      32.792  17.119   3.736  0.00  0.00     0.005 C 
ENDBRANCH   2   3
ENDBRANCH   1   2
BRANCH   1   5
HETATM    5  C   UNK N   1      31.941  17.115   7.941  0.00  0.00     0.013 C 
BRANCH   5   6
HETATM    6  C   UNK N   1      31.192  18.245   8.628  0.00  0.00    -0.004 C 
HETATM    7  C   UNK N   1      29.805  17.780   9.019  0.00  0.00     0.005 C 
ENDBRANCH   5   6
ENDBRANCH   1   5
BRANCH   1   8
HETATM    8  C   UNK N   1      34.350  18.030   8.520  0.00  0.00     0.219 C 
HETATM    9  N   UNK N   1      34.557  17.343   9.655  0.00  0.00    -0.370 N 
HETATM   10  H   UNK N   1      34.997  17.740  10.442  0.00  0.00     0.159 HD
HETATM   11  H   UNK N   1      34.260  16.406   9.703  0.00  0.00     0.159 HD
HETATM   12  O   UNK N   1      34.996  19.052   8.309  0.00  0.00    -0.273 OA
ENDBRANCH   1   8
TORSDOF 5
ENDMDL
MODEL 5
REMARK VINA RESULT:      -4.2     10.744     12.096
REMARK  5 active torsions:
REMARK  status: ('A' for Active; 'I' for Inactive)
REMARK    1  A    between atoms: C_2  and  C_3 
REMARK    2  A    between atoms: C_3  and  C_4 
REMARK    3  A    between atoms: C_4  and  C_5 
REMARK    4  A    between atoms: C_4  and  C_8 
REMARK    5  A    between atoms: C_5  and  C_6 
REMARK       I    between atoms: C_8  and  N_9 
ROOT
HETATM    1  C   UNK N   1      35.247  12.487  17.542  0.00  0.00     0.077 C 
ENDROOT
BRANCH   1   2
HETATM    2  C   UNK N   1      34.727  12.992  16.200  0.00  0.00     0.013 C 
BRANCH   2   3
HETATM    3  C   UNK N   1      35.823  12.980  15.146  0.00  0.00    -0.004 C 
HETATM    4  C   UNK N   1      36.825  14.078  15.437  0.00  0.00     0.005 C 
ENDBRANCH   2   3
ENDBRANCH   1   2
BRANCH   1   5
HETATM    5  C   UNK N   1      35.800  11.063  17.611  0.00  0.00     0.013 C 
BRANCH   5   6
HETATM    6  C   UNK N   1      34.741  10.042  17.233  0.00  0.00    -0.004 C 
HETATM    7  C   UNK N   1      34.300   9.278  18.464  0.00  0.00     0.005 C 
ENDBRANCH   5   6
ENDBRANCH   1   5
BRANCH   1   8
HETATM    8  C   UNK N   1      35.228  13.369  18.765  0.00  0.00     0.219 C 
HETATM    9  N   UNK N   1      35.208  12.836  19.997  0.00  0.00    -0.370 N 
HETATM   10  H   UNK N   1      34.933  13.349  20.792  0.00  0.00     0.159 HD
HETATM   11  H   UNK N   1      35.479  11.897  20.112  0.00  0.00     0.159 HD
HETATM   12  O   UNK N   1      35.232  14.590  18.637  0.00  0.00    -0.273 OA
ENDBRANCH   1   8
TORSDOF 5
ENDMDL
MODEL 6
REMARK VINA RESULT:      -4.2     10.736     11.870
REMARK  5 active torsions:
REMARK  status: ('A' for Active; 'I' for Inactive)
REMARK    1  A    between atoms: C_2  and  C_3 
REMARK    2  A    between atoms: C_3  and  C_4 
REMARK    3  A    between atoms: C_4  and  C_5 
REMARK    4  A    between atoms: C_4  and  C_8 
REMARK    5  A    between atoms: C_5  and  C_6 
REMARK       I    between atoms: C_8  and  N_9 
ROOT
HETATM    1  C   UNK N   1      35.232  12.473  17.526  0.00  0.00     0.077 C 
ENDROOT
BRANCH   1   2
HETATM    2  C   UNK N   1      35.806  11.061  17.554  0.00  0.00     0.013 C 
BRANCH   2   3
HETATM    3  C   UNK N   1      34.741  10.028  17.217  0.00  0.00    -0.004 C 
HETATM    4  C   UNK N   1      34.283   9.335  18.483  0.00  0.00     0.005 C 
ENDBRANCH   2   3
ENDBRANCH   1   2
BRANCH   1   5
HETATM    5  C   UNK N   1      34.645  12.988  16.211  0.00  0.00     0.013 C 
BRANCH   5   6
HETATM    6  C   UNK N   1      35.688  12.989  15.106  0.00  0.00    -0.004 C 
HETATM    7  C   UNK N   1      36.760  14.014  15.412  0.00  0.00     0.005 C 
ENDBRANCH   5   6
ENDBRANCH   1   5
BRANCH   1   8
HETATM    8  C   UNK N   1      35.233  13.337  18.762  0.00  0.00     0.219 C 
HETATM    9  N   UNK N   1      35.222  12.786  19.986  0.00  0.00    -0.370 N 
HETATM   10  H   UNK N   1      34.959  13.288  20.792  0.00  0.00     0.159 HD
HETATM   11  H   UNK N   1      35.487  11.842  20.084  0.00  0.00     0.159 HD
HETATM   12  O   UNK N   1      35.245  14.560  18.653  0.00  0.00    -0.273 OA
ENDBRANCH   1   8
TORSDOF 5
ENDMDL
MODEL 7
REMARK VINA RESULT:      -4.0     11.958     13.000
REMARK  5 active torsions:
REMARK  status: ('A' for Active; 'I' for Inactive)
REMARK    1  A    between atoms: C_2  and  C_3 
REMARK    2  A    between atoms: C_3  and  C_4 
REMARK    3  A    between atoms: C_4  and  C_5 
REMARK    4  A    between atoms: C_4  and  C_8 
REMARK    5  A    between atoms: C_5  and  C_6 
REMARK       I    between atoms: C_8  and  N_9 
ROOT
HETATM    1  C   UNK N   1      21.705  13.132   9.894  0.00  0.00     0.077 C 
ENDROOT
BRANCH   1   2
HETATM    2  C   UNK N   1      22.852  12.969   8.903  0.00  0.00     0.013 C 
BRANCH   2   3
HETATM    3  C   UNK N   1      22.593  11.817   7.944  0.00  0.00    -0.004 C 
HETATM    4  C   UNK N   1      21.893  12.332   6.704  0.00  0.00     0.005 C 
ENDBRANCH   2   3
ENDBRANCH   1   2
BRANCH   1   5
HETATM    5  C   UNK N   1      21.708  12.260  11.149  0.00  0.00     0.013 C 
BRANCH   5   6
HETATM    6  C   UNK N   1      23.125  11.941  11.596  0.00  0.00    -0.004 C 
HETATM    7  C   UNK N   1      23.187  11.885  13.107  0.00  0.00     0.005 C 
ENDBRANCH   5   6
ENDBRANCH   1   5
BRANCH   1   8
HETATM    8  C   UNK N   1      20.602  14.132   9.649  0.00  0.00     0.219 C 
HETATM    9  N   UNK N   1      20.862  15.314   9.068  0.00  0.00    -0.370 N 
HETATM   10  H   UNK N   1      20.248  16.081   9.129  0.00  0.00     0.159 HD
HETATM   11  H   UNK N   1      21.700  15.419   8.560  0.00  0.00     0.159 HD
HETATM   12  O   UNK N   1      19.452  13.865   9.982  0.00  0.00    -0.273 OA
ENDBRANCH   1   8
TORSDOF 5
ENDMDL
MODEL 8
REMARK VINA RESULT:      -3.8      2.213      2.787
REMARK  5 active torsions:
REMARK  status: ('A' for Active; 'I' for Inactive)
REMARK    1  A    between atoms: C_2  and  C_3 
REMARK    2  A    between atoms: C_3  and  C_4 
REMARK    3  A    between atoms: C_4  and  C_5 
REMARK    4  A    between atoms: C_4  and  C_8 
REMARK    5  A    between atoms: C_5  and  C_6 
REMARK       I    between atoms: C_8  and  N_9 
ROOT
HETATM    1  C   UNK N   1      31.903  16.956   8.397  0.00  0.00     0.077 C 
ENDROOT
BRANCH   1   2
HETATM    2  C   UNK N   1      30.503  17.438   8.034  0.00  0.00     0.013 C 
BRANCH   2   3
HETATM    3  C   UNK N   1      29.967  18.409   9.075  0.00  0.00    -0.004 C 
HETATM    4  C   UNK N   1      28.502  18.126   9.332  0.00  0.00     0.005 C 
ENDBRANCH   2   3
ENDBRANCH   1   2
BRANCH   1   5
HETATM    5  C   UNK N   1      33.061  17.947   8.274  0.00  0.00     0.013 C 
BRANCH   5   6
HETATM    6  C   UNK N   1      34.101  17.458   7.280  0.00  0.00    -0.004 C 
HETATM    7  C   UNK N   1      33.518  17.461   5.883  0.00  0.00     0.005 C 
ENDBRANCH   5   6
ENDBRANCH   1   5
BRANCH   1   8
HETATM    8  C   UNK N   1      32.140  15.546   8.876  0.00  0.00     0.219 C 
HETATM    9  N   UNK N   1      32.223  15.269  10.187  0.00  0.00    -0.370 N 
HETATM   10  H   UNK N   1      32.630  14.440  10.529  0.00  0.00     0.159 HD
HETATM   11  H   UNK N   1      31.863  15.919  10.833  0.00  0.00     0.159 HD
HETATM   12  O   UNK N   1      32.257  14.636   8.060  0.00  0.00    -0.273 OA
ENDBRANCH   1   8
TORSDOF 5
ENDMDL
MODEL 9
REMARK VINA RESULT:      -3.8     11.276     11.943
REMARK  5 active torsions:
REMARK  status: ('A' for Active; 'I' for Inactive)
REMARK    1  A    between atoms: C_2  and  C_3 
REMARK    2  A    between atoms: C_3  and  C_4 
REMARK    3  A    between atoms: C_4  and  C_5 
REMARK    4  A    between atoms: C_4  and  C_8 
REMARK    5  A    between atoms: C_5  and  C_6 
REMARK       I    between atoms: C_8  and  N_9 
ROOT
HETATM    1  C   UNK N   1      43.159  21.898   3.425  0.00  0.00     0.077 C 
ENDROOT
BRANCH   1   2
HETATM    2  C   UNK N   1      42.371  20.596   3.523  0.00  0.00     0.013 C 
BRANCH   2   3
HETATM    3  C   UNK N   1      43.145  19.438   2.912  0.00  0.00    -0.004 C 
HETATM    4  C   UNK N   1      42.388  18.889   1.721  0.00  0.00     0.005 C 
ENDBRANCH   2   3
ENDBRANCH   1   2
BRANCH   1   5
HETATM    5  C   UNK N   1      42.848  22.844   2.265  0.00  0.00     0.013 C 
BRANCH   5   6
HETATM    6  C   UNK N   1      41.387  22.753   1.856  0.00  0.00    -0.004 C 
HETATM    7  C   UNK N   1      40.972  24.024   1.147  0.00  0.00     0.005 C 
ENDBRANCH   5   6
ENDBRANCH   1   5
BRANCH   1   8
HETATM    8  C   UNK N   1      44.208  22.250   4.450  0.00  0.00     0.219 C 
HETATM    9  N   UNK N   1      45.515  22.118   4.169  0.00  0.00    -0.370 N 
HETATM   10  H   UNK N   1      46.206  22.079   4.870  0.00  0.00     0.159 HD
HETATM   11  H   UNK N   1      45.794  22.057   3.227  0.00  0.00     0.159 HD
HETATM   12  O   UNK N   1      43.869  22.665   5.554  0.00  0.00    -0.273 OA
ENDBRANCH   1   8
TORSDOF 5
ENDMDL
