REMARK  18 active torsions:
REMARK  status: ('A' for Active; 'I' for Inactive)
REMARK    1  A    between atoms: P_1  and  O_2 
REMARK    2  A    between atoms: P_1  and  O_3 
REMARK    3  A    between atoms: P_1  and  O_4 
REMARK    4  A    between atoms: C_6  and  O_2 
REMARK    5  A    between atoms: C_7  and  O_10 
REMARK    6  A    between atoms: C_8  and  O_12 
REMARK    7  A    between atoms: C_9  and  O_14 
REMARK    8  A    between atoms: O_10  and  P_15 
REMARK    9  A    between atoms: C_11  and  O_16 
REMARK   10  A    between atoms: C_13  and  O_17 
REMARK   11  A    between atoms: P_15  and  O_18 
REMARK   12  A    between atoms: P_15  and  O_19 
REMARK   13  A    between atoms: O_16  and  P_21 
REMARK   14  A    between atoms: O_17  and  P_22 
REMARK   15  A    between atoms: P_21  and  O_23 
REMARK   16  A    between atoms: P_21  and  O_24 
REMARK   17  A    between atoms: P_22  and  O_26 
REMARK   18  A    between atoms: P_22  and  O_27 
ROOT
HETATM    1  C   UNK N   1      -1.546   0.043   0.057  0.00  0.00     0.197 C 
HETATM    2  C   UNK N   1      -0.661   1.292   0.105  0.00  0.00     0.197 C 
HETATM    3  C   UNK N   1      -0.829  -1.101  -0.661  0.00  0.00     0.182 C 
HETATM    4  C   UNK N   1       0.669   0.969   0.790  0.00  0.00     0.182 C 
HETATM    5  C   UNK N   1       0.496  -1.428   0.039  0.00  0.00     0.197 C 
HETATM    6  C   UNK N   1       1.403  -0.187   0.101  0.00  0.00     0.197 C 
ENDROOT
BRANCH   1   7
HETATM    7  O   UNK N   1      -2.756   0.333  -0.590  0.00  0.00    -0.286 OA
BRANCH   7   8
HETATM    8  P   UNK N   1      -4.000  -0.032   0.575  0.00  0.00     0.391 P 
HETATM    9  O   UNK N   1      -4.357  -1.004  -0.582  0.00  0.00    -0.632 OA
BRANCH   8  10
HETATM   10  O   UNK N   1      -5.662   0.350   0.256  0.00  0.00    -0.307 OA
HETATM   11  H   UNK N   1      -5.942   1.262   0.077  0.00  0.00     0.222 HD
ENDBRANCH   8  10
BRANCH   8  12
HETATM   12  O   UNK N   1      -4.178   1.605   0.024  0.00  0.00    -0.307 OA
HETATM   13  H   UNK N   1      -3.436   2.148  -0.283  0.00  0.00     0.222 HD
ENDBRANCH   8  12
ENDBRANCH   7   8
ENDBRANCH   1   7
BRANCH   2  14
HETATM   14  O   UNK N   1      -1.314   2.298   0.824  0.00  0.00    -0.286 OA
BRANCH  14  15
HETATM   15  P   UNK N   1      -1.510   3.640  -0.271  0.00  0.00     0.391 P 
HETATM   16  O   UNK N   1      -0.121   4.299  -0.484  0.00  0.00    -0.632 OA
BRANCH  15  17
HETATM   17  O   UNK N   1      -2.113   3.150  -1.824  0.00  0.00    -0.307 OA
HETATM   18  H   UNK N   1      -2.519   3.305  -2.691  0.00  0.00     0.222 HD
ENDBRANCH  15  17
BRANCH  15  19
HETATM   19  O   UNK N   1      -2.537   4.850   0.430  0.00  0.00    -0.307 OA
HETATM   20  H   UNK N   1      -2.239   5.685   0.822  0.00  0.00     0.222 HD
ENDBRANCH  15  19
ENDBRANCH  14  15
ENDBRANCH   2  14
BRANCH   3  21
HETATM   21  O   UNK N   1      -1.650  -2.231  -0.664  0.00  0.00    -0.390 OA
HETATM   22  H   UNK N   1      -2.615  -2.129  -0.667  0.00  0.00     0.210 HD
ENDBRANCH   3  21
BRANCH   4  23
HETATM   23  O   UNK N   1       1.477   2.108   0.798  0.00  0.00    -0.390 OA
HETATM   24  H   UNK N   1       2.443   2.018   0.804  0.00  0.00     0.210 HD
ENDBRANCH   4  23
BRANCH   5  25
HETATM   25  O   UNK N   1       1.140  -2.485  -0.625  0.00  0.00    -0.286 OA
BRANCH  25  26
HETATM   26  P   UNK N   1       1.490  -3.676   0.603  0.00  0.00     0.391 P 
HETATM   27  O   UNK N   1       2.042  -4.991  -0.007  0.00  0.00    -0.632 OA
BRANCH  26  28
HETATM   28  O   UNK N   1       2.971  -3.221  -0.179  0.00  0.00    -0.307 OA
HETATM   29  H   UNK N   1       3.606  -3.811  -0.616  0.00  0.00     0.222 HD
ENDBRANCH  26  28
BRANCH  26  30
HETATM   30  O   UNK N   1       0.189  -4.295  -0.365  0.00  0.00    -0.307 OA
HETATM   31  H   UNK N   1      -0.475  -3.838  -0.905  0.00  0.00     0.222 HD
ENDBRANCH  26  30
ENDBRANCH  25  26
ENDBRANCH   5  25
BRANCH   6  32
HETATM   32  O   UNK N   1       2.555  -0.494   0.838  0.00  0.00    -0.286 OA
BRANCH  32  33
HETATM   33  P   UNK N   1       3.919   0.006  -0.125  0.00  0.00     0.391 P 
HETATM   34  O   UNK N   1       5.175  -0.594   0.561  0.00  0.00    -0.632 OA
BRANCH  33  35
HETATM   35  O   UNK N   1       3.884  -0.649  -1.732  0.00  0.00    -0.307 OA
HETATM   36  H   UNK N   1       3.558  -0.815  -2.631  0.00  0.00     0.222 HD
ENDBRANCH  33  35
BRANCH  33  37
HETATM   37  O   UNK N   1       4.143   1.727  -0.123  0.00  0.00    -0.307 OA
HETATM   38  H   UNK N   1       5.038   2.100  -0.121  0.00  0.00     0.222 HD
ENDBRANCH  33  37
ENDBRANCH  32  33
ENDBRANCH   6  32
TORSDOF 18
