MODEL 1
REMARK VINA RESULT:      -5.6      0.000      0.000
REMARK  12 active torsions:
REMARK  status: ('A' for Active; 'I' for Inactive)
REMARK    1  A    between atoms: C_3  and  C_1 
REMARK    2  A    between atoms: C_4  and  C_2 
REMARK    3  A    between atoms: N_19  and  C_3 
REMARK    4  A    between atoms: N_19  and  C_4 
REMARK    5  A    between atoms: C_9  and  C_7 
REMARK    6  A    between atoms: N_17  and  C_7 
REMARK    7  A    between atoms: C_9  and  C_8 
REMARK    8  A    between atoms: C_14  and  C_10 
REMARK    9  A    between atoms: N_20  and  C_11 
REMARK   10  A    between atoms: N_19  and  C_12 
REMARK   11  A    between atoms: N_21  and  C_13 
REMARK   12  A    between atoms: O_24  and  C_14 
ROOT
HETATM    1  C   UNK N   1      31.001  17.040   6.280  0.00  0.00     0.050 A 
HETATM    2  C   UNK N   1      31.160  16.941   9.028  0.00  0.00     0.075 A 
HETATM    3  C   UNK N   1      32.220  16.759   6.872  0.00  0.00     0.050 A 
HETATM    4  C   UNK N   1      32.305  16.656   8.274  0.00  0.00     0.119 A 
HETATM    5  C   UNK N   1      29.830  17.303   6.998  0.00  0.00     0.064 A 
HETATM    6  C   UNK N   1      29.935  17.316   8.440  0.00  0.00     0.131 A 
ENDROOT
BRANCH   3   7
HETATM    7  C   UNK N   1      33.412  16.844   6.001  0.00  0.00     0.149 C 
HETATM    8  N   UNK N   1      33.774  15.911   5.196  0.00  0.00    -0.363 N 
ATOM      9  HN  UNK N   1      34.470  16.137   4.485  1.00  0.00     0.162 HD
BRANCH   8  10
HETATM   10  C   UNK N   1      33.264  14.569   5.233  0.00  0.00     0.208 C 
BRANCH  10  11
HETATM   11  C   UNK N   1      32.518  14.439   3.944  0.00  0.00     0.204 C 
HETATM   12  O   UNK N   1      31.332  14.152   3.948  0.00  0.00    -0.288 OA
BRANCH  11  13
HETATM   13  C   UNK N   1      33.285  14.446   2.679  0.00  0.00     0.310 C 
HETATM   14  O   UNK N   1      33.766  15.478   2.241  0.00  0.00    -0.298 OA
ENDBRANCH  11  13
ENDBRANCH  10  11
ENDBRANCH   8  10
BRANCH   7  15
HETATM   15  O   UNK N   1      34.123  17.985   6.018  0.00  0.00    -0.346 OA
HETATM   16  H   UNK N   1      34.393  18.755   5.558  0.00  0.00     0.219 HD
ENDBRANCH   7  15
ENDBRANCH   3   7
BRANCH   4  17
HETATM   17  N   UNK N   1      33.515  16.287   8.946  0.00  0.00    -0.115 N 
HETATM   18  O   UNK N   1      33.642  15.190   9.408  0.00  0.00    -0.532 OA
HETATM   19  O   UNK N   1      34.341  17.113   9.183  0.00  0.00    -0.532 OA
ENDBRANCH   4  17
BRANCH   5  20
HETATM   20  N   UNK N   1      28.622  17.564   6.235  0.00  0.00    -0.377 N 
BRANCH  20  21
HETATM   21  C   UNK N   1      28.321  18.885   5.717  0.00  0.00     0.134 C 
BRANCH  21  22
HETATM   22  C   UNK N   1      27.603  19.720   6.779  0.00  0.00     0.105 C 
HETATM   23 Br   UNK N   1      27.073  21.448   6.089  0.00  0.00    -0.095 Br
ENDBRANCH  21  22
ENDBRANCH  20  21
BRANCH  20  24
HETATM   24  C   UNK N   1      27.630  16.514   5.969  0.00  0.00     0.134 C 
BRANCH  24  25
HETATM   25  C   UNK N   1      26.996  16.465   4.575  0.00  0.00     0.105 C 
HETATM   26 Br   UNK N   1      28.229  16.032   3.155  0.00  0.00    -0.095 Br
ENDBRANCH  24  25
ENDBRANCH  20  24
ENDBRANCH   5  20
BRANCH   6  27
HETATM   27  N   UNK N   1      28.919  17.805   9.327  0.00  0.00    -0.113 N 
HETATM   28  O   UNK N   1      29.174  18.666  10.109  0.00  0.00    -0.532 OA
HETATM   29  O   UNK N   1      27.940  17.146   9.510  0.00  0.00    -0.532 OA
ENDBRANCH   6  27
TORSDOF 12
ENDMDL
MODEL 2
REMARK VINA RESULT:      -5.6      9.575     11.616
REMARK  12 active torsions:
REMARK  status: ('A' for Active; 'I' for Inactive)
REMARK    1  A    between atoms: C_3  and  C_1 
REMARK    2  A    between atoms: C_4  and  C_2 
REMARK    3  A    between atoms: N_19  and  C_3 
REMARK    4  A    between atoms: N_19  and  C_4 
REMARK    5  A    between atoms: C_9  and  C_7 
REMARK    6  A    between atoms: N_17  and  C_7 
REMARK    7  A    between atoms: C_9  and  C_8 
REMARK    8  A    between atoms: C_14  and  C_10 
REMARK    9  A    between atoms: N_20  and  C_11 
REMARK   10  A    between atoms: N_19  and  C_12 
REMARK   11  A    between atoms: N_21  and  C_13 
REMARK   12  A    between atoms: O_24  and  C_14 
ROOT
HETATM    1  C   UNK N   1      20.515  14.250   6.402  0.00  0.00     0.050 A 
HETATM    2  C   UNK N   1      20.620  15.234   8.973  0.00  0.00     0.075 A 
HETATM    3  C   UNK N   1      19.991  15.506   6.663  0.00  0.00     0.050 A 
HETATM    4  C   UNK N   1      20.084  16.041   7.962  0.00  0.00     0.119 A 
HETATM    5  C   UNK N   1      21.082  13.427   7.380  0.00  0.00     0.064 A 
HETATM    6  C   UNK N   1      21.073  13.920   8.738  0.00  0.00     0.131 A 
ENDROOT
BRANCH   3   7
HETATM    7  C   UNK N   1      19.134  16.094   5.612  0.00  0.00     0.149 C 
HETATM    8  N   UNK N   1      19.583  16.809   4.644  0.00  0.00    -0.363 N 
ATOM      9  HN  UNK N   1      18.960  16.989   3.856  1.00  0.00     0.162 HD
BRANCH   8  10
HETATM   10  C   UNK N   1      20.902  17.372   4.600  0.00  0.00     0.208 C 
BRANCH  10  11
HETATM   11  C   UNK N   1      20.695  18.708   3.961  0.00  0.00     0.204 C 
HETATM   12  O   UNK N   1      20.976  19.728   4.568  0.00  0.00    -0.288 OA
BRANCH  11  13
HETATM   13  C   UNK N   1      19.948  18.773   2.686  0.00  0.00     0.310 C 
HETATM   14  O   UNK N   1      18.729  18.828   2.673  0.00  0.00    -0.298 OA
ENDBRANCH  11  13
ENDBRANCH  10  11
ENDBRANCH   8  10
BRANCH   7  15
HETATM   15  O   UNK N   1      17.818  15.819   5.648  0.00  0.00    -0.346 OA
HETATM   16  H   UNK N   1      16.967  16.067   5.951  0.00  0.00     0.219 HD
ENDBRANCH   7  15
ENDBRANCH   3   7
BRANCH   4  17
HETATM   17  N   UNK N   1      19.639  17.365   8.282  0.00  0.00    -0.115 N 
HETATM   18  O   UNK N   1      20.360  18.305   8.113  0.00  0.00    -0.532 OA
HETATM   19  O   UNK N   1      18.607  17.524   8.858  0.00  0.00    -0.532 OA
ENDBRANCH   4  17
BRANCH   5  20
HETATM   20  N   UNK N   1      21.605  12.142   6.949  0.00  0.00    -0.377 N 
BRANCH  20  21
HETATM   21  C   UNK N   1      22.963  11.733   7.256  0.00  0.00     0.134 C 
BRANCH  21  22
HETATM   22  C   UNK N   1      23.965  12.698   6.618  0.00  0.00     0.105 C 
HETATM   23 Br   UNK N   1      25.044  13.590   7.952  0.00  0.00    -0.095 Br
ENDBRANCH  21  22
ENDBRANCH  20  21
BRANCH  20  24
HETATM   24  C   UNK N   1      20.800  11.200   6.160  0.00  0.00     0.134 C 
BRANCH  24  25
HETATM   25  C   UNK N   1      21.404  10.656   4.862  0.00  0.00     0.105 C 
HETATM   26 Br   UNK N   1      21.758  12.000   3.523  0.00  0.00    -0.095 Br
ENDBRANCH  24  25
ENDBRANCH  20  24
ENDBRANCH   5  20
BRANCH   6  27
HETATM   27  N   UNK N   1      21.376  13.128   9.895  0.00  0.00    -0.113 N 
HETATM   28  O   UNK N   1      20.496  12.630  10.524  0.00  0.00    -0.532 OA
HETATM   29  O   UNK N   1      22.449  13.235  10.409  0.00  0.00    -0.532 OA
ENDBRANCH   6  27
TORSDOF 12
ENDMDL
MODEL 3
REMARK VINA RESULT:      -5.6      6.621     10.388
REMARK  12 active torsions:
REMARK  status: ('A' for Active; 'I' for Inactive)
REMARK    1  A    between atoms: C_3  and  C_1 
REMARK    2  A    between atoms: C_4  and  C_2 
REMARK    3  A    between atoms: N_19  and  C_3 
REMARK    4  A    between atoms: N_19  and  C_4 
REMARK    5  A    between atoms: C_9  and  C_7 
REMARK    6  A    between atoms: N_17  and  C_7 
REMARK    7  A    between atoms: C_9  and  C_8 
REMARK    8  A    between atoms: C_14  and  C_10 
REMARK    9  A    between atoms: N_20  and  C_11 
REMARK   10  A    between atoms: N_19  and  C_12 
REMARK   11  A    between atoms: N_21  and  C_13 
REMARK   12  A    between atoms: O_24  and  C_14 
ROOT
HETATM    1  C   UNK N   1      22.596  16.617   3.557  0.00  0.00     0.050 A 
HETATM    2  C   UNK N   1      22.778  16.208   6.276  0.00  0.00     0.075 A 
HETATM    3  C   UNK N   1      21.627  17.160   4.385  0.00  0.00     0.050 A 
HETATM    4  C   UNK N   1      21.736  17.001   5.780  0.00  0.00     0.119 A 
HETATM    5  C   UNK N   1      23.666  15.843   4.018  0.00  0.00     0.064 A 
HETATM    6  C   UNK N   1      23.719  15.576   5.437  0.00  0.00     0.131 A 
ENDROOT
BRANCH   3   7
HETATM    7  C   UNK N   1      20.397  17.650   3.727  0.00  0.00     0.149 C 
HETATM    8  N   UNK N   1      20.241  18.857   3.319  0.00  0.00    -0.363 N 
ATOM      9  HN  UNK N   1      19.460  19.051   2.690  1.00  0.00     0.162 HD
BRANCH   8  10
HETATM   10  C   UNK N   1      21.091  19.953   3.691  0.00  0.00     0.208 C 
BRANCH  10  11
HETATM   11  C   UNK N   1      21.651  20.424   2.387  0.00  0.00     0.204 C 
HETATM   12  O   UNK N   1      22.790  20.860   2.332  0.00  0.00    -0.288 OA
BRANCH  11  13
HETATM   13  C   UNK N   1      20.738  20.555   1.231  0.00  0.00     0.310 C 
HETATM   14  O   UNK N   1      21.172  20.668   0.097  0.00  0.00    -0.298 OA
ENDBRANCH  11  13
ENDBRANCH  10  11
ENDBRANCH   8  10
BRANCH   7  15
HETATM   15  O   UNK N   1      19.410  16.765   3.499  0.00  0.00    -0.346 OA
HETATM   16  H   UNK N   1      19.050  16.111   2.934  0.00  0.00     0.219 HD
ENDBRANCH   7  15
ENDBRANCH   3   7
BRANCH   4  17
HETATM   17  N   UNK N   1      20.816  17.605   6.697  0.00  0.00    -0.115 N 
HETATM   18  O   UNK N   1      20.970  18.737   7.054  0.00  0.00    -0.532 OA
HETATM   19  O   UNK N   1      19.980  16.941   7.227  0.00  0.00    -0.532 OA
ENDBRANCH   4  17
BRANCH   5  20
HETATM   20  N   UNK N   1      24.612  15.357   3.029  0.00  0.00    -0.377 N 
BRANCH  20  21
HETATM   21  C   UNK N   1      24.423  14.086   2.355  0.00  0.00     0.134 C 
BRANCH  21  22
HETATM   22  C   UNK N   1      24.219  14.306   0.855  0.00  0.00     0.105 C 
HETATM   23 Br   UNK N   1      23.513  12.726  -0.008  0.00  0.00    -0.095 Br
ENDBRANCH  21  22
ENDBRANCH  20  21
BRANCH  20  24
HETATM   24  C   UNK N   1      25.823  16.111   2.676  0.00  0.00     0.134 C 
BRANCH  24  25
HETATM   25  C   UNK N   1      27.163  15.611   3.225  0.00  0.00     0.105 C 
HETATM   26 Br   UNK N   1      28.251  14.676   1.935  0.00  0.00    -0.095 Br
ENDBRANCH  24  25
ENDBRANCH  20  24
ENDBRANCH   5  20
BRANCH   6  27
HETATM   27  N   UNK N   1      24.583  14.611   6.053  0.00  0.00    -0.113 N 
HETATM   28  O   UNK N   1      24.123  13.643   6.572  0.00  0.00    -0.532 OA
HETATM   29  O   UNK N   1      25.701  14.925   6.333  0.00  0.00    -0.532 OA
ENDBRANCH   6  27
TORSDOF 12
ENDMDL
MODEL 4
REMARK VINA RESULT:      -5.6     12.956     15.066
REMARK  12 active torsions:
REMARK  status: ('A' for Active; 'I' for Inactive)
REMARK    1  A    between atoms: C_3  and  C_1 
REMARK    2  A    between atoms: C_4  and  C_2 
REMARK    3  A    between atoms: N_19  and  C_3 
REMARK    4  A    between atoms: N_19  and  C_4 
REMARK    5  A    between atoms: C_9  and  C_7 
REMARK    6  A    between atoms: N_17  and  C_7 
REMARK    7  A    between atoms: C_9  and  C_8 
REMARK    8  A    between atoms: C_14  and  C_10 
REMARK    9  A    between atoms: N_20  and  C_11 
REMARK   10  A    between atoms: N_19  and  C_12 
REMARK   11  A    between atoms: N_21  and  C_13 
REMARK   12  A    between atoms: O_24  and  C_14 
ROOT
HETATM    1  C   UNK N   1      28.543  22.899  -6.359  0.00  0.00     0.050 A 
HETATM    2  C   UNK N   1      25.942  23.567  -5.749  0.00  0.00     0.075 A 
HETATM    3  C   UNK N   1      28.297  23.711  -5.265  0.00  0.00     0.050 A 
HETATM    4  C   UNK N   1      26.969  24.019  -4.912  0.00  0.00     0.119 A 
HETATM    5  C   UNK N   1      27.542  22.406  -7.202  0.00  0.00     0.064 A 
HETATM    6  C   UNK N   1      26.185  22.815  -6.917  0.00  0.00     0.131 A 
ENDROOT
BRANCH   3   7
HETATM    7  C   UNK N   1      29.463  24.416  -4.691  0.00  0.00     0.149 C 
HETATM    8  N   UNK N   1      30.175  23.950  -3.729  0.00  0.00    -0.363 N 
ATOM      9  HN  UNK N   1      31.076  24.392  -3.545  1.00  0.00     0.162 HD
BRANCH   8  10
HETATM   10  C   UNK N   1      29.784  22.849  -2.895  0.00  0.00     0.208 C 
BRANCH  10  11
HETATM   11  C   UNK N   1      30.945  21.911  -2.980  0.00  0.00     0.204 C 
HETATM   12  O   UNK N   1      31.857  21.990  -2.173  0.00  0.00    -0.288 OA
BRANCH  11  13
HETATM   13  C   UNK N   1      31.070  21.048  -4.175  0.00  0.00     0.310 C 
HETATM   14  O   UNK N   1      31.547  21.476  -5.213  0.00  0.00    -0.298 OA
ENDBRANCH  11  13
ENDBRANCH  10  11
ENDBRANCH   8  10
BRANCH   7  15
HETATM   15  O   UNK N   1      29.826  25.586  -5.246  0.00  0.00    -0.346 OA
HETATM   16  H   UNK N   1      29.952  26.508  -5.136  0.00  0.00     0.219 HD
ENDBRANCH   7  15
ENDBRANCH   3   7
BRANCH   4  17
HETATM   17  N   UNK N   1      26.640  24.784  -3.746  0.00  0.00    -0.115 N 
HETATM   18  O   UNK N   1      26.615  24.265  -2.668  0.00  0.00    -0.532 OA
HETATM   19  O   UNK N   1      26.242  25.901  -3.859  0.00  0.00    -0.532 OA
ENDBRANCH   4  17
BRANCH   5  20
HETATM   20  N   UNK N   1      27.955  21.550  -8.300  0.00  0.00    -0.377 N 
BRANCH  20  21
HETATM   21  C   UNK N   1      28.162  22.076  -9.637  0.00  0.00     0.134 C 
BRANCH  21  22
HETATM   22  C   UNK N   1      27.219  21.391 -10.628  0.00  0.00     0.105 C 
HETATM   23 Br   UNK N   1      28.194  20.366 -11.946  0.00  0.00    -0.095 Br
ENDBRANCH  21  22
ENDBRANCH  20  21
BRANCH  20  24
HETATM   24  C   UNK N   1      28.160  20.106  -8.126  0.00  0.00     0.134 C 
BRANCH  24  25
HETATM   25  C   UNK N   1      29.573  19.620  -7.787  0.00  0.00     0.105 C 
HETATM   26 Br   UNK N   1      30.298  18.347  -9.043  0.00  0.00    -0.095 Br
ENDBRANCH  24  25
ENDBRANCH  20  24
ENDBRANCH   5  20
BRANCH   6  27
HETATM   27  N   UNK N   1      25.073  22.621  -7.801  0.00  0.00    -0.113 N 
HETATM   28  O   UNK N   1      24.783  23.465  -8.590  0.00  0.00    -0.532 OA
HETATM   29  O   UNK N   1      24.256  21.791  -7.535  0.00  0.00    -0.532 OA
ENDBRANCH   6  27
TORSDOF 12
ENDMDL
MODEL 5
REMARK VINA RESULT:      -5.5      2.071      5.584
REMARK  12 active torsions:
REMARK  status: ('A' for Active; 'I' for Inactive)
REMARK    1  A    between atoms: C_3  and  C_1 
REMARK    2  A    between atoms: C_4  and  C_2 
REMARK    3  A    between atoms: N_19  and  C_3 
REMARK    4  A    between atoms: N_19  and  C_4 
REMARK    5  A    between atoms: C_9  and  C_7 
REMARK    6  A    between atoms: N_17  and  C_7 
REMARK    7  A    between atoms: C_9  and  C_8 
REMARK    8  A    between atoms: C_14  and  C_10 
REMARK    9  A    between atoms: N_20  and  C_11 
REMARK   10  A    between atoms: N_19  and  C_12 
REMARK   11  A    between atoms: N_21  and  C_13 
REMARK   12  A    between atoms: O_24  and  C_14 
ROOT
HETATM    1  C   UNK N   1      30.886  16.355   6.521  0.00  0.00     0.050 A 
HETATM    2  C   UNK N   1      33.465  17.030   5.828  0.00  0.00     0.075 A 
HETATM    3  C   UNK N   1      31.747  16.817   7.503  0.00  0.00     0.050 A 
HETATM    4  C   UNK N   1      33.052  17.213   7.153  0.00  0.00     0.119 A 
HETATM    5  C   UNK N   1      31.254  16.185   5.183  0.00  0.00     0.064 A 
HETATM    6  C   UNK N   1      32.627  16.476   4.838  0.00  0.00     0.131 A 
ENDROOT
BRANCH   3   7
HETATM    7  C   UNK N   1      31.318  16.617   8.904  0.00  0.00     0.149 C 
HETATM    8  N   UNK N   1      30.478  17.378   9.507  0.00  0.00    -0.363 N 
ATOM      9  HN  UNK N   1      30.079  17.046  10.385  1.00  0.00     0.162 HD
BRANCH   8  10
HETATM   10  C   UNK N   1      30.066  18.666   9.027  0.00  0.00     0.208 C 
BRANCH  10  11
HETATM   11  C   UNK N   1      28.620  18.476   8.700  0.00  0.00     0.204 C 
HETATM   12  O   UNK N   1      27.895  17.860   9.464  0.00  0.00    -0.288 OA
BRANCH  11  13
HETATM   13  C   UNK N   1      28.145  18.851   7.350  0.00  0.00     0.310 C 
HETATM   14  O   UNK N   1      27.572  19.911   7.157  0.00  0.00    -0.298 OA
ENDBRANCH  11  13
ENDBRANCH  10  11
ENDBRANCH   8  10
BRANCH   7  15
HETATM   15  O   UNK N   1      31.798  15.546   9.561  0.00  0.00    -0.346 OA
HETATM   16  H   UNK N   1      31.986  15.144  10.386  0.00  0.00     0.219 HD
ENDBRANCH   7  15
ENDBRANCH   3   7
BRANCH   4  17
HETATM   17  N   UNK N   1      33.965  17.776   8.102  0.00  0.00    -0.115 N 
HETATM   18  O   UNK N   1      34.427  18.867   7.926  0.00  0.00    -0.532 OA
HETATM   19  O   UNK N   1      34.389  17.106   8.992  0.00  0.00    -0.532 OA
ENDBRANCH   4  17
BRANCH   5  20
HETATM   20  N   UNK N   1      30.234  15.708   4.265  0.00  0.00    -0.377 N 
BRANCH  20  21
HETATM   21  C   UNK N   1      29.960  14.292   4.103  0.00  0.00     0.134 C 
BRANCH  21  22
HETATM   22  C   UNK N   1      30.501  13.798   2.760  0.00  0.00     0.105 C 
HETATM   23 Br   UNK N   1      29.077  13.200   1.595  0.00  0.00    -0.095 Br
ENDBRANCH  21  22
ENDBRANCH  20  21
BRANCH  20  24
HETATM   24  C   UNK N   1      29.444  16.627   3.435  0.00  0.00     0.134 C 
BRANCH  24  25
HETATM   25  C   UNK N   1      28.024  16.968   3.898  0.00  0.00     0.105 C 
HETATM   26 Br   UNK N   1      26.631  16.023   2.954  0.00  0.00    -0.095 Br
ENDBRANCH  24  25
ENDBRANCH  20  24
ENDBRANCH   5  20
BRANCH   6  27
HETATM   27  N   UNK N   1      33.246  16.128   3.591  0.00  0.00    -0.113 N 
HETATM   28  O   UNK N   1      32.889  16.651   2.582  0.00  0.00    -0.532 OA
HETATM   29  O   UNK N   1      33.866  15.111   3.513  0.00  0.00    -0.532 OA
ENDBRANCH   6  27
TORSDOF 12
ENDMDL
MODEL 6
REMARK VINA RESULT:      -5.5      0.933      2.432
REMARK  12 active torsions:
REMARK  status: ('A' for Active; 'I' for Inactive)
REMARK    1  A    between atoms: C_3  and  C_1 
REMARK    2  A    between atoms: C_4  and  C_2 
REMARK    3  A    between atoms: N_19  and  C_3 
REMARK    4  A    between atoms: N_19  and  C_4 
REMARK    5  A    between atoms: C_9  and  C_7 
REMARK    6  A    between atoms: N_17  and  C_7 
REMARK    7  A    between atoms: C_9  and  C_8 
REMARK    8  A    between atoms: C_14  and  C_10 
REMARK    9  A    between atoms: N_20  and  C_11 
REMARK   10  A    between atoms: N_19  and  C_12 
REMARK   11  A    between atoms: N_21  and  C_13 
REMARK   12  A    between atoms: O_24  and  C_14 
ROOT
HETATM    1  C   UNK N   1      31.020  17.053   5.998  0.00  0.00     0.050 A 
HETATM    2  C   UNK N   1      30.809  17.065   8.745  0.00  0.00     0.075 A 
HETATM    3  C   UNK N   1      32.157  16.840   6.761  0.00  0.00     0.050 A 
HETATM    4  C   UNK N   1      32.053  16.794   8.164  0.00  0.00     0.119 A 
HETATM    5  C   UNK N   1      29.755  17.299   6.542  0.00  0.00     0.064 A 
HETATM    6  C   UNK N   1      29.663  17.372   7.982  0.00  0.00     0.131 A 
ENDROOT
BRANCH   3   7
HETATM    7  C   UNK N   1      33.452  16.936   6.054  0.00  0.00     0.149 C 
HETATM    8  N   UNK N   1      33.910  16.021   5.278  0.00  0.00    -0.363 N 
ATOM      9  HN  UNK N   1      34.694  16.259   4.671  1.00  0.00     0.162 HD
BRANCH   8  10
HETATM   10  C   UNK N   1      33.390  14.684   5.212  0.00  0.00     0.208 C 
BRANCH  10  11
HETATM   11  C   UNK N   1      33.916  14.165   3.912  0.00  0.00     0.204 C 
HETATM   12  O   UNK N   1      34.529  13.110   3.877  0.00  0.00    -0.288 OA
BRANCH  11  13
HETATM   13  C   UNK N   1      33.873  15.050   2.728  0.00  0.00     0.310 C 
HETATM   14  O   UNK N   1      32.990  15.882   2.596  0.00  0.00    -0.298 OA
ENDBRANCH  11  13
ENDBRANCH  10  11
ENDBRANCH   8  10
BRANCH   7  15
HETATM   15  O   UNK N   1      34.163  18.070   6.195  0.00  0.00    -0.346 OA
HETATM   16  H   UNK N   1      34.705  18.718   5.791  0.00  0.00     0.219 HD
ENDBRANCH   7  15
ENDBRANCH   3   7
BRANCH   4  17
HETATM   17  N   UNK N   1      33.173  16.497   9.008  0.00  0.00    -0.115 N 
HETATM   18  O   UNK N   1      33.947  17.357   9.314  0.00  0.00    -0.532 OA
HETATM   19  O   UNK N   1      33.425  15.366   9.287  0.00  0.00    -0.532 OA
ENDBRANCH   4  17
BRANCH   5  20
HETATM   20  N   UNK N   1      28.654  17.485   5.612  0.00  0.00    -0.377 N 
BRANCH  20  21
HETATM   21  C   UNK N   1      27.876  16.363   5.123  0.00  0.00     0.134 C 
BRANCH  21  22
HETATM   22  C   UNK N   1      27.763  16.421   3.598  0.00  0.00     0.105 C 
HETATM   23 Br   UNK N   1      29.350  15.726   2.739  0.00  0.00    -0.095 Br
ENDBRANCH  21  22
ENDBRANCH  20  21
BRANCH  20  24
HETATM   24  C   UNK N   1      28.286  18.812   5.099  0.00  0.00     0.134 C 
BRANCH  24  25
HETATM   25  C   UNK N   1      27.000  19.452   5.629  0.00  0.00     0.105 C 
HETATM   26 Br   UNK N   1      27.189  21.298   6.158  0.00  0.00    -0.095 Br
ENDBRANCH  24  25
ENDBRANCH  20  24
ENDBRANCH   5  20
BRANCH   6  27
HETATM   27  N   UNK N   1      28.521  17.856   8.702  0.00  0.00    -0.113 N 
HETATM   28  O   UNK N   1      28.340  19.028   8.816  0.00  0.00    -0.532 OA
HETATM   29  O   UNK N   1      27.949  17.120   9.449  0.00  0.00    -0.532 OA
ENDBRANCH   6  27
TORSDOF 12
ENDMDL
MODEL 7
REMARK VINA RESULT:      -5.5      2.035      5.247
REMARK  12 active torsions:
REMARK  status: ('A' for Active; 'I' for Inactive)
REMARK    1  A    between atoms: C_3  and  C_1 
REMARK    2  A    between atoms: C_4  and  C_2 
REMARK    3  A    between atoms: N_19  and  C_3 
REMARK    4  A    between atoms: N_19  and  C_4 
REMARK    5  A    between atoms: C_9  and  C_7 
REMARK    6  A    between atoms: N_17  and  C_7 
REMARK    7  A    between atoms: C_9  and  C_8 
REMARK    8  A    between atoms: C_14  and  C_10 
REMARK    9  A    between atoms: N_20  and  C_11 
REMARK   10  A    between atoms: N_19  and  C_12 
REMARK   11  A    between atoms: N_21  and  C_13 
REMARK   12  A    between atoms: O_24  and  C_14 
ROOT
HETATM    1  C   UNK N   1      30.815  16.525   6.517  0.00  0.00     0.050 A 
HETATM    2  C   UNK N   1      33.359  17.206   5.710  0.00  0.00     0.075 A 
HETATM    3  C   UNK N   1      31.737  16.927   7.469  0.00  0.00     0.050 A 
HETATM    4  C   UNK N   1      33.025  17.326   7.064  0.00  0.00     0.119 A 
HETATM    5  C   UNK N   1      31.103  16.419   5.152  0.00  0.00     0.064 A 
HETATM    6  C   UNK N   1      32.458  16.712   4.744  0.00  0.00     0.131 A 
ENDROOT
BRANCH   3   7
HETATM    7  C   UNK N   1      31.386  16.660   8.880  0.00  0.00     0.149 C 
HETATM    8  N   UNK N   1      30.542  17.359   9.549  0.00  0.00    -0.363 N 
ATOM      9  HN  UNK N   1      30.202  16.979  10.433  1.00  0.00     0.162 HD
BRANCH   8  10
HETATM   10  C   UNK N   1      30.046  18.641   9.134  0.00  0.00     0.208 C 
BRANCH  10  11
HETATM   11  C   UNK N   1      28.607  18.380   8.825  0.00  0.00     0.204 C 
HETATM   12  O   UNK N   1      27.921  17.732   9.600  0.00  0.00    -0.288 OA
BRANCH  11  13
HETATM   13  C   UNK N   1      28.098  18.728   7.481  0.00  0.00     0.310 C 
HETATM   14  O   UNK N   1      27.919  19.891   7.157  0.00  0.00    -0.298 OA
ENDBRANCH  11  13
ENDBRANCH  10  11
ENDBRANCH   8  10
BRANCH   7  15
HETATM   15  O   UNK N   1      31.948  15.593   9.477  0.00  0.00    -0.346 OA
HETATM   16  H   UNK N   1      32.533  14.865   9.405  0.00  0.00     0.219 HD
ENDBRANCH   7  15
ENDBRANCH   3   7
BRANCH   4  17
HETATM   17  N   UNK N   1      34.000  17.830   7.985  0.00  0.00    -0.115 N 
HETATM   18  O   UNK N   1      34.295  18.990   7.981  0.00  0.00    -0.532 OA
HETATM   19  O   UNK N   1      34.631  17.076   8.658  0.00  0.00    -0.532 OA
ENDBRANCH   4  17
BRANCH   5  20
HETATM   20  N   UNK N   1      30.025  16.001   4.273  0.00  0.00    -0.377 N 
BRANCH  20  21
HETATM   21  C   UNK N   1      29.231  16.964   3.533  0.00  0.00     0.134 C 
BRANCH  21  22
HETATM   22  C   UNK N   1      27.739  16.685   3.731  0.00  0.00     0.105 C 
HETATM   23 Br   UNK N   1      26.727  18.322   3.920  0.00  0.00    -0.095 Br
ENDBRANCH  21  22
ENDBRANCH  20  21
BRANCH  20  24
HETATM   24  C   UNK N   1      29.664  14.587   4.104  0.00  0.00     0.134 C 
BRANCH  24  25
HETATM   25  C   UNK N   1      30.707  13.651   3.485  0.00  0.00     0.105 C 
HETATM   26 Br   UNK N   1      31.781  12.694   4.771  0.00  0.00    -0.095 Br
ENDBRANCH  24  25
ENDBRANCH  20  24
ENDBRANCH   5  20
BRANCH   6  27
HETATM   27  N   UNK N   1      32.999  16.422   3.448  0.00  0.00    -0.113 N 
HETATM   28  O   UNK N   1      32.512  16.908   2.475  0.00  0.00    -0.532 OA
HETATM   29  O   UNK N   1      33.701  15.465   3.311  0.00  0.00    -0.532 OA
ENDBRANCH   6  27
TORSDOF 12
ENDMDL
MODEL 8
REMARK VINA RESULT:      -5.4      6.315     10.306
REMARK  12 active torsions:
REMARK  status: ('A' for Active; 'I' for Inactive)
REMARK    1  A    between atoms: C_3  and  C_1 
REMARK    2  A    between atoms: C_4  and  C_2 
REMARK    3  A    between atoms: N_19  and  C_3 
REMARK    4  A    between atoms: N_19  and  C_4 
REMARK    5  A    between atoms: C_9  and  C_7 
REMARK    6  A    between atoms: N_17  and  C_7 
REMARK    7  A    between atoms: C_9  and  C_8 
REMARK    8  A    between atoms: C_14  and  C_10 
REMARK    9  A    between atoms: N_20  and  C_11 
REMARK   10  A    between atoms: N_19  and  C_12 
REMARK   11  A    between atoms: N_21  and  C_13 
REMARK   12  A    between atoms: O_24  and  C_14 
ROOT
HETATM    1  C   UNK N   1      23.451  17.282   3.990  0.00  0.00     0.050 A 
HETATM    2  C   UNK N   1      23.372  19.978   3.428  0.00  0.00     0.075 A 
HETATM    3  C   UNK N   1      22.226  17.884   3.757  0.00  0.00     0.050 A 
HETATM    4  C   UNK N   1      22.176  19.250   3.419  0.00  0.00     0.119 A 
HETATM    5  C   UNK N   1      24.669  17.970   3.980  0.00  0.00     0.064 A 
HETATM    6  C   UNK N   1      24.615  19.396   3.752  0.00  0.00     0.131 A 
ENDROOT
BRANCH   3   7
HETATM    7  C   UNK N   1      21.027  17.107   4.136  0.00  0.00     0.149 C 
HETATM    8  N   UNK N   1      20.651  16.923   5.350  0.00  0.00    -0.363 N 
ATOM      9  HN  UNK N   1      19.708  16.567   5.508  1.00  0.00     0.162 HD
BRANCH   8  10
HETATM   10  C   UNK N   1      21.472  17.186   6.498  0.00  0.00     0.208 C 
BRANCH  10  11
HETATM   11  C   UNK N   1      20.506  17.714   7.509  0.00  0.00     0.204 C 
HETATM   12  O   UNK N   1      20.576  18.877   7.874  0.00  0.00    -0.288 OA
BRANCH  11  13
HETATM   13  C   UNK N   1      19.623  16.758   8.211  0.00  0.00     0.310 C 
HETATM   14  O   UNK N   1      19.200  15.762   7.647  0.00  0.00    -0.298 OA
ENDBRANCH  11  13
ENDBRANCH  10  11
ENDBRANCH   8  10
BRANCH   7  15
HETATM   15  O   UNK N   1      20.262  16.610   3.147  0.00  0.00    -0.346 OA
HETATM   16  H   UNK N   1      19.607  16.772   2.498  0.00  0.00     0.219 HD
ENDBRANCH   7  15
ENDBRANCH   3   7
BRANCH   4  17
HETATM   17  N   UNK N   1      20.952  19.916   3.085  0.00  0.00    -0.115 N 
HETATM   18  O   UNK N   1      20.399  20.608   3.890  0.00  0.00    -0.532 OA
HETATM   19  O   UNK N   1      20.397  19.665   2.061  0.00  0.00    -0.532 OA
ENDBRANCH   4  17
BRANCH   5  20
HETATM   20  N   UNK N   1      25.874  17.197   4.225  0.00  0.00    -0.377 N 
BRANCH  20  21
HETATM   21  C   UNK N   1      26.333  16.911   5.571  0.00  0.00     0.134 C 
BRANCH  21  22
HETATM   22  C   UNK N   1      27.707  17.542   5.809  0.00  0.00     0.105 C 
HETATM   23 Br   UNK N   1      28.190  17.513   7.681  0.00  0.00    -0.095 Br
ENDBRANCH  21  22
ENDBRANCH  20  21
BRANCH  20  24
HETATM   24  C   UNK N   1      26.706  16.685   3.127  0.00  0.00     0.134 C 
BRANCH  24  25
HETATM   25  C   UNK N   1      26.647  15.185   2.823  0.00  0.00     0.105 C 
HETATM   26 Br   UNK N   1      25.133  14.649   1.753  0.00  0.00    -0.095 Br
ENDBRANCH  24  25
ENDBRANCH  20  24
ENDBRANCH   5  20
BRANCH   6  27
HETATM   27  N   UNK N   1      25.714  20.295   3.952  0.00  0.00    -0.113 N 
HETATM   28  O   UNK N   1      26.515  20.461   3.085  0.00  0.00    -0.532 OA
HETATM   29  O   UNK N   1      26.010  20.615   5.064  0.00  0.00    -0.532 OA
ENDBRANCH   6  27
TORSDOF 12
ENDMDL
MODEL 9
REMARK VINA RESULT:      -5.2     13.498     15.569
REMARK  12 active torsions:
REMARK  status: ('A' for Active; 'I' for Inactive)
REMARK    1  A    between atoms: C_3  and  C_1 
REMARK    2  A    between atoms: C_4  and  C_2 
REMARK    3  A    between atoms: N_19  and  C_3 
REMARK    4  A    between atoms: N_19  and  C_4 
REMARK    5  A    between atoms: C_9  and  C_7 
REMARK    6  A    between atoms: N_17  and  C_7 
REMARK    7  A    between atoms: C_9  and  C_8 
REMARK    8  A    between atoms: C_14  and  C_10 
REMARK    9  A    between atoms: N_20  and  C_11 
REMARK   10  A    between atoms: N_19  and  C_12 
REMARK   11  A    between atoms: N_21  and  C_13 
REMARK   12  A    between atoms: O_24  and  C_14 
ROOT
HETATM    1  C   UNK N   1      28.572  23.759  -6.730  0.00  0.00     0.050 A 
HETATM    2  C   UNK N   1      25.907  23.735  -6.033  0.00  0.00     0.075 A 
HETATM    3  C   UNK N   1      28.200  24.225  -5.480  0.00  0.00     0.050 A 
HETATM    4  C   UNK N   1      26.848  24.171  -5.093  0.00  0.00     0.119 A 
HETATM    5  C   UNK N   1      27.665  23.290  -7.686  0.00  0.00     0.064 A 
HETATM    6  C   UNK N   1      26.263  23.343  -7.340  0.00  0.00     0.131 A 
ENDROOT
BRANCH   3   7
HETATM    7  C   UNK N   1      29.219  24.992  -4.732  0.00  0.00     0.149 C 
HETATM    8  N   UNK N   1      30.023  24.467  -3.880  0.00  0.00    -0.363 N 
ATOM      9  HN  UNK N   1      30.825  25.020  -3.578  1.00  0.00     0.162 HD
BRANCH   8  10
HETATM   10  C   UNK N   1      29.864  23.153  -3.323  0.00  0.00     0.208 C 
BRANCH  10  11
HETATM   11  C   UNK N   1      31.267  22.656  -3.184  0.00  0.00     0.204 C 
HETATM   12  O   UNK N   1      31.640  22.162  -2.132  0.00  0.00    -0.288 OA
BRANCH  11  13
HETATM   13  C   UNK N   1      32.239  22.974  -4.252  0.00  0.00     0.310 C 
HETATM   14  O   UNK N   1      32.000  22.711  -5.419  0.00  0.00    -0.298 OA
ENDBRANCH  11  13
ENDBRANCH  10  11
ENDBRANCH   8  10
BRANCH   7  15
HETATM   15  O   UNK N   1      29.341  26.304  -5.002  0.00  0.00    -0.346 OA
HETATM   16  H   UNK N   1      29.062  27.034  -5.519  0.00  0.00     0.219 HD
ENDBRANCH   7  15
ENDBRANCH   3   7
BRANCH   4  17
HETATM   17  N   UNK N   1      26.406  24.559  -3.786  0.00  0.00    -0.115 N 
HETATM   18  O   UNK N   1      26.106  25.695  -3.559  0.00  0.00    -0.532 OA
HETATM   19  O   UNK N   1      26.480  23.789  -2.879  0.00  0.00    -0.532 OA
ENDBRANCH   4  17
BRANCH   5  20
HETATM   20  N   UNK N   1      28.209  22.817  -8.947  0.00  0.00    -0.377 N 
BRANCH  20  21
HETATM   21  C   UNK N   1      28.945  21.570  -9.037  0.00  0.00     0.134 C 
BRANCH  21  22
HETATM   22  C   UNK N   1      28.180  20.450  -8.327  0.00  0.00     0.105 C 
HETATM   23 Br   UNK N   1      29.355  19.008  -7.799  0.00  0.00    -0.095 Br
ENDBRANCH  21  22
ENDBRANCH  20  21
BRANCH  20  24
HETATM   24  C   UNK N   1      28.067  23.584 -10.192  0.00  0.00     0.134 C 
BRANCH  24  25
HETATM   25  C   UNK N   1      28.694  24.981 -10.247  0.00  0.00     0.105 C 
HETATM   26 Br   UNK N   1      27.477  26.417  -9.824  0.00  0.00    -0.095 Br
ENDBRANCH  24  25
ENDBRANCH  20  24
ENDBRANCH   5  20
BRANCH   6  27
HETATM   27  N   UNK N   1      25.187  23.145  -8.268  0.00  0.00    -0.113 N 
HETATM   28  O   UNK N   1      24.894  24.008  -9.035  0.00  0.00    -0.532 OA
HETATM   29  O   UNK N   1      24.391  22.279  -8.061  0.00  0.00    -0.532 OA
ENDBRANCH   6  27
TORSDOF 12
ENDMDL
