REMARK  17 active torsions:
REMARK  status: ('A' for Active; 'I' for Inactive)
REMARK    1  A    between atoms: C_5  and  C_3 
REMARK    2  A    between atoms: O_20  and  C_3 
REMARK    3  A    between atoms: C_6  and  C_4 
REMARK    4  A    between atoms: O_31  and  C_4 
REMARK    5  A    between atoms: O_21  and  C_7 
REMARK    6  A    between atoms: C_9  and  O_22 
REMARK    7  A    between atoms: C_10  and  O_23 
REMARK    8  A    between atoms: C_11  and  O_24 
REMARK    9  A    between atoms: C_12  and  O_25 
REMARK   10  A    between atoms: C_13  and  N_19 
REMARK   11  A    between atoms: C_14  and  O_34 
REMARK   12  A    between atoms: P_36  and  O_27 
REMARK   13  A    between atoms: P_37  and  O_29 
REMARK   14  A    between atoms: P_36  and  O_31 
REMARK   15  A    between atoms: P_37  and  O_34 
REMARK   16  A    between atoms: P_36  and  O_35 
REMARK   17  A    between atoms: P_37  and  O_35 
ROOT
HETATM    1  O   UNK N   1       1.846   5.526   1.206  0.00  0.00    -0.631 OA
HETATM    2  P   UNK N   1       2.084   6.986   0.719  0.00  0.00     0.401 P 
ENDROOT
BRANCH   2   3
HETATM    3  O   UNK N   1       2.826   6.829  -0.847  0.00  0.00    -0.307 OA
HETATM    4  H   UNK N   1       2.958   6.427  -1.720  0.00  0.00     0.222 HD
ENDBRANCH   2   3
BRANCH   2   5
HETATM    5  O   UNK N   1       0.561   7.824   0.587  0.00  0.00    -0.294 OA
BRANCH   5   6
HETATM    6  C   UNK N   1      -0.389   6.830   0.713  0.00  0.00     0.215 C 
BRANCH   6   7
HETATM    7  C   UNK N   1      -1.358   6.814  -0.456  0.00  0.00     0.180 C 
HETATM    8  C   UNK N   1      -2.538   7.766  -0.194  0.00  0.00     0.182 C 
HETATM    9  C   UNK N   1      -3.715   6.813  -0.164  0.00  0.00     0.198 C 
HETATM   10  C   UNK N   1      -3.018   5.552   0.333  0.00  0.00     0.263 C 
HETATM   11  O   UNK N   1      -1.876   5.507  -0.488  0.00  0.00    -0.353 OA
BRANCH   8  12
HETATM   12  O   UNK N   1      -2.684   8.731  -1.194  0.00  0.00    -0.390 OA
HETATM   13  H   UNK N   1      -2.154   9.154  -1.889  0.00  0.00     0.210 HD
ENDBRANCH   8  12
BRANCH   9  14
HETATM   14  O   UNK N   1      -4.730   7.281   0.675  0.00  0.00    -0.388 OA
HETATM   15  H   UNK N   1      -4.800   8.053   1.258  0.00  0.00     0.210 HD
ENDBRANCH   9  14
BRANCH  10  16
HETATM   16  N   UNK N   1      -3.718   4.255   0.248  0.00  0.00    -0.280 N 
HETATM   17  C   UNK N   1      -2.929   3.149   0.407  0.00  0.00     0.103 A 
HETATM   18  C   UNK N   1      -3.455   1.867   0.332  0.00  0.00     0.073 A 
HETATM   19  C   UNK N   1      -4.813   1.718   0.111  0.00  0.00     0.144 A 
HETATM   20  N   UNK N   1      -5.602   2.814  -0.023  0.00  0.00    -0.289 N 
HETATM   21  C   UNK N   1      -5.078   4.079   0.040  0.00  0.00     0.330 A 
ATOM     22  HN  UNK N   1      -6.604   2.694  -0.173  1.00  0.00     0.172 HD
HETATM   23  O   UNK N   1      -5.828   5.031  -0.068  0.00  0.00    -0.246 OA
BRANCH  19  24
HETATM   24  O   UNK N   1      -5.348   0.490   0.032  0.00  0.00    -0.346 OA
HETATM   25  H   UNK N   1      -6.278   0.385  -0.023  0.00  0.00     0.219 HD
ENDBRANCH  19  24
ENDBRANCH  10  16
ENDBRANCH   6   7
ENDBRANCH   5   6
ENDBRANCH   2   5
BRANCH   2  26
HETATM   26  O   UNK N   1       3.145   7.740   1.949  0.00  0.00    -0.195 OA
BRANCH  26  27
HETATM   27  P   UNK N   1       3.600   9.440   1.620  0.00  0.00     0.404 P 
HETATM   28  O   UNK N   1       4.109   8.656   0.388  0.00  0.00    -0.631 OA
BRANCH  27  29
HETATM   29  O   UNK N   1       1.946   9.420   2.154  0.00  0.00    -0.307 OA
HETATM   30  H   UNK N   1       1.475  10.214   2.452  0.00  0.00     0.222 HD
ENDBRANCH  27  29
BRANCH  27  31
HETATM   31  O   UNK N   1       2.597  10.190   0.374  0.00  0.00    -0.263 OA
BRANCH  31  32
HETATM   32  C   UNK N   1       3.214  11.050  -0.593  0.00  0.00     0.303 C 
HETATM   33  C   UNK N   1       3.391  12.553  -0.253  0.00  0.00     0.205 C 
HETATM   34  C   UNK N   1       4.752  12.861   0.371  0.00  0.00     0.188 C 
HETATM   35  C   UNK N   1       5.846  12.261  -0.532  0.00  0.00     0.232 C 
HETATM   36  C   UNK N   1       5.586  10.762  -0.680  0.00  0.00     0.184 C 
HETATM   37  F   UNK N   1       5.834  12.861  -1.781  0.00  0.00    -0.244 F 
HETATM   38  O   UNK N   1       4.323  10.488  -1.287  0.00  0.00    -0.348 OA
BRANCH  33  39
HETATM   39  O   UNK N   1       2.339  13.030   0.533  0.00  0.00    -0.388 OA
HETATM   40  H   UNK N   1       2.261  13.828   1.078  0.00  0.00     0.210 HD
ENDBRANCH  33  39
BRANCH  34  41
HETATM   41  O   UNK N   1       4.831  12.329   1.660  0.00  0.00    -0.390 OA
HETATM   42  H   UNK N   1       4.539  12.096   2.555  0.00  0.00     0.210 HD
ENDBRANCH  34  41
BRANCH  36  43
HETATM   43  C   UNK N   1       6.663  10.074  -1.502  0.00  0.00     0.199 C 
BRANCH  43  44
HETATM   44  O   UNK N   1       6.454   8.691  -1.486  0.00  0.00    -0.398 OA
HETATM   45  H   UNK N   1       5.551   8.337  -1.474  0.00  0.00     0.209 HD
ENDBRANCH  43  44
ENDBRANCH  36  43
ENDBRANCH  31  32
ENDBRANCH  27  31
ENDBRANCH  26  27
ENDBRANCH   2  26
TORSDOF 17
