REMARK  5 active torsions:
REMARK  status: ('A' for Active; 'I' for Inactive)
REMARK    1  A    between atoms: C_2  and  C_4 
REMARK    2  A    between atoms: C_4  and  C_5 
REMARK    3  A    between atoms: C_5  and  N_7 
REMARK    4  A    between atoms: C_5  and  C_8 
REMARK    5  A    between atoms: C_8  and  O_9 
ROOT
HETATM    1  C   UNK N   1       2.559   0.185  -0.490  0.00  0.00     0.106 C 
HETATM    2  C   UNK N   1       2.902   0.145  -1.967  0.00  0.00     0.050 C 
ENDROOT
BRANCH   1   3
HETATM    3  C   UNK N   1       1.755  -1.092  -0.159  0.00  0.00     0.045 C 
BRANCH   3   4
HETATM    4  C   UNK N   1       0.457  -0.865   0.613  0.00  0.00    -0.020 C 
HETATM    5  C   UNK N   1      -0.657  -0.535  -0.364  0.00  0.00     0.009 C 
HETATM    6  C   UNK N   1       0.086  -2.119   1.373  0.00  0.00     0.009 C 
ENDBRANCH   3   4
ENDBRANCH   1   3
BRANCH   1   7
HETATM    7  N   UNK N   1       1.783   1.391  -0.230  0.00  0.00    -0.414 N 
HETATM    8  H   UNK N   1       2.242   2.283  -0.048  0.00  0.00     0.151 HD
HETATM    9  H   UNK N   1       0.764   1.342  -0.230  0.00  0.00     0.151 HD
ENDBRANCH   1   7
BRANCH   1  10
HETATM   10  C   UNK N   1       3.843   0.253   0.300  0.00  0.00     0.168 C 
HETATM   11  O   UNK N   1       4.154  -0.642   1.072  0.00  0.00    -0.648 OA
BRANCH  10  12
HETATM   12  O   UNK N   1       4.663   1.312   0.152  0.00  0.00    -0.775 OA
HETATM   13  H   UNK N   1       5.586   1.186   0.048  0.00  0.00     0.167 HD
ENDBRANCH  10  12
ENDBRANCH   1  10
TORSDOF 5
