MODEL 1
REMARK VINA RESULT:      -8.0      0.000      0.000
REMARK  18 active torsions:
REMARK  status: ('A' for Active; 'I' for Inactive)
REMARK    1  A    between atoms: C_3  and  C_1 
REMARK    2  A    between atoms: O_37  and  C_1 
REMARK    3  A    between atoms: C_5  and  O_25 
REMARK    4  A    between atoms: C_6  and  O_26 
REMARK    5  A    between atoms: C_7  and  O_27 
REMARK    6  A    between atoms: C_8  and  O_28 
REMARK    7  A    between atoms: C_9  and  O_29 
REMARK    8  A    between atoms: C_10  and  C_14 
REMARK    9  A    between atoms: O_30  and  C_12 
REMARK   10  A    between atoms: C_13  and  N_24 
REMARK   11  A    between atoms: O_32  and  C_14 
REMARK   12  A    between atoms: C_15  and  O_40 
REMARK       I    between atoms: N_17  and  C_16 
REMARK   13  A    between atoms: P_42  and  O_33 
REMARK   14  A    between atoms: P_43  and  O_35 
REMARK   15  A    between atoms: P_42  and  O_37 
REMARK   16  A    between atoms: P_43  and  O_40 
REMARK   17  A    between atoms: P_42  and  O_41 
REMARK   18  A    between atoms: P_43  and  O_41 
ROOT
HETATM    1  C   UNK N   1      20.044  17.219   3.730  0.00  0.00     0.215 C 
ENDROOT
BRANCH   1   2
HETATM    2  C   UNK N   1      21.092  18.032   2.994  0.00  0.00     0.180 C 
HETATM    3  C   UNK N   1      20.600  19.458   2.764  0.00  0.00     0.182 C 
HETATM    4  C   UNK N   1      21.927  20.114   2.608  0.00  0.00     0.198 C 
HETATM    5  C   UNK N   1      22.682  19.453   3.761  0.00  0.00     0.262 C 
HETATM    6  O   UNK N   1      22.328  18.088   3.705  0.00  0.00    -0.353 OA
BRANCH   3   7
HETATM    7  O   UNK N   1      19.954  19.970   3.898  0.00  0.00    -0.390 OA
HETATM    8  H   UNK N   1      19.177  20.374   4.314  0.00  0.00     0.210 HD
ENDBRANCH   3   7
BRANCH   4   9
HETATM    9  O   UNK N   1      21.864  21.505   2.719  0.00  0.00    -0.388 OA
HETATM   10  H   UNK N   1      22.362  22.330   2.826  0.00  0.00     0.210 HD
ENDBRANCH   4   9
BRANCH   5  11
HETATM   11  N   UNK N   1      24.140  19.626   3.714  0.00  0.00    -0.297 N 
HETATM   12  C   UNK N   1      24.794  20.576   2.990  0.00  0.00     0.188 A 
HETATM   13  N   UNK N   1      26.146  20.465   3.126  0.00  0.00    -0.346 N 
HETATM   14  C   UNK N   1      26.312  19.419   3.957  0.00  0.00     0.130 A 
ATOM     15  HN  UNK N   1      26.867  21.043   2.694  1.00  0.00     0.167 HD
HETATM   16  C   UNK N   1      25.113  18.921   4.308  0.00  0.00     0.157 A 
HETATM   17  C   UNK N   1      27.474  18.844   4.447  0.00  0.00     0.186 A 
HETATM   18  N   UNK N   1      24.988  17.861   5.142  0.00  0.00    -0.174 N 
HETATM   19  C   UNK N   1      26.119  17.288   5.641  0.00  0.00     0.679 A 
HETATM   20  H   UNK N   1      24.098  17.511   5.382  0.00  0.00     0.186 HD
HETATM   21  N   UNK N   1      26.026  16.293   6.438  0.00  0.00    -0.234 N 
HETATM   22  N   UNK N   1      27.355  17.775   5.293  0.00  0.00    -0.168 N 
HETATM   23  H   UNK N   1      25.150  16.019   6.795  0.00  0.00     0.174 HD
ATOM     24  HN  UNK N   1      26.866  15.778   6.707  1.00  0.00     0.174 HD
ATOM     25  HN  UNK N   1      28.194  17.336   5.670  1.00  0.00     0.186 HD
BRANCH  17  26
HETATM   26  O   UNK N   1      28.684  19.314   4.105  0.00  0.00    -0.344 OA
HETATM   27  H   UNK N   1      28.786  20.210   3.850  0.00  0.00     0.219 HD
ENDBRANCH  17  26
ENDBRANCH   5  11
ENDBRANCH   1   2
BRANCH   1  28
HETATM   28  O   UNK N   1      20.692  16.232   4.457  0.00  0.00    -0.294 OA
BRANCH  28  29
HETATM   29  P   UNK N   1      19.955  16.103   6.031  0.00  0.00     0.401 P 
HETATM   30  O   UNK N   1      18.414  15.964   5.888  0.00  0.00    -0.631 OA
BRANCH  29  31
HETATM   31  O   UNK N   1      20.302  17.449   7.073  0.00  0.00    -0.307 OA
HETATM   32  H   UNK N   1      19.875  18.195   7.522  0.00  0.00     0.222 HD
ENDBRANCH  29  31
BRANCH  29  33
HETATM   33  O   UNK N   1      20.504  14.654   6.791  0.00  0.00    -0.195 OA
BRANCH  33  34
HETATM   34  P   UNK N   1      22.243  14.647   6.679  0.00  0.00     0.404 P 
HETATM   35  O   UNK N   1      22.651  13.732   5.491  0.00  0.00    -0.631 OA
BRANCH  34  36
HETATM   36  O   UNK N   1      22.953  16.226   6.512  0.00  0.00    -0.307 OA
HETATM   37  H   UNK N   1      23.440  16.502   5.720  0.00  0.00     0.222 HD
ENDBRANCH  34  36
BRANCH  34  38
HETATM   38  O   UNK N   1      22.746  13.915   8.149  0.00  0.00    -0.263 OA
BRANCH  38  39
HETATM   39  C   UNK N   1      23.433  12.714   7.936  0.00  0.00     0.304 C 
HETATM   40  C   UNK N   1      24.808  12.925   8.563  0.00  0.00     0.205 C 
HETATM   41  C   UNK N   1      24.584  13.256  10.048  0.00  0.00     0.183 C 
HETATM   42  C   UNK N   1      23.886  12.052  10.684  0.00  0.00     0.189 C 
HETATM   43  C   UNK N   1      22.597  11.633   9.923  0.00  0.00     0.253 C 
HETATM   44  O   UNK N   1      22.757  11.592   8.504  0.00  0.00    -0.340 OA
BRANCH  40  45
HETATM   45  O   UNK N   1      25.454  13.990   7.926  0.00  0.00    -0.388 OA
HETATM   46  H   UNK N   1      26.376  14.064   7.632  0.00  0.00     0.210 HD
ENDBRANCH  40  45
BRANCH  41  47
HETATM   47  O   UNK N   1      25.808  13.494  10.676  0.00  0.00    -0.390 OA
HETATM   48  H   UNK N   1      26.043  13.186  11.565  0.00  0.00     0.210 HD
ENDBRANCH  41  47
BRANCH  42  49
HETATM   49  O   UNK N   1      23.611  12.294  12.032  0.00  0.00    -0.390 OA
HETATM   50  H   UNK N   1      23.483  11.678  12.771  0.00  0.00     0.210 HD
ENDBRANCH  42  49
BRANCH  43  51
HETATM   51  C   UNK N   1      21.326  12.349  10.339  0.00  0.00     0.172 C 
HETATM   52  O   UNK N   1      20.965  12.378  11.502  0.00  0.00    -0.648 OA
BRANCH  51  53
HETATM   53  O   UNK N   1      20.566  12.946   9.398  0.00  0.00    -0.774 OA
HETATM   54  H   UNK N   1      20.289  12.535   8.602  0.00  0.00     0.167 HD
ENDBRANCH  51  53
ENDBRANCH  43  51
ENDBRANCH  38  39
ENDBRANCH  34  38
ENDBRANCH  33  34
ENDBRANCH  29  33
ENDBRANCH  28  29
ENDBRANCH   1  28
TORSDOF 18
ENDMDL
MODEL 2
REMARK VINA RESULT:      -7.7      1.584      2.334
REMARK  18 active torsions:
REMARK  status: ('A' for Active; 'I' for Inactive)
REMARK    1  A    between atoms: C_3  and  C_1 
REMARK    2  A    between atoms: O_37  and  C_1 
REMARK    3  A    between atoms: C_5  and  O_25 
REMARK    4  A    between atoms: C_6  and  O_26 
REMARK    5  A    between atoms: C_7  and  O_27 
REMARK    6  A    between atoms: C_8  and  O_28 
REMARK    7  A    between atoms: C_9  and  O_29 
REMARK    8  A    between atoms: C_10  and  C_14 
REMARK    9  A    between atoms: O_30  and  C_12 
REMARK   10  A    between atoms: C_13  and  N_24 
REMARK   11  A    between atoms: O_32  and  C_14 
REMARK   12  A    between atoms: C_15  and  O_40 
REMARK       I    between atoms: N_17  and  C_16 
REMARK   13  A    between atoms: P_42  and  O_33 
REMARK   14  A    between atoms: P_43  and  O_35 
REMARK   15  A    between atoms: P_42  and  O_37 
REMARK   16  A    between atoms: P_43  and  O_40 
REMARK   17  A    between atoms: P_42  and  O_41 
REMARK   18  A    between atoms: P_43  and  O_41 
ROOT
HETATM    1  C   UNK N   1      21.611  19.321   4.193  0.00  0.00     0.215 C 
ENDROOT
BRANCH   1   2
HETATM    2  C   UNK N   1      22.974  19.108   3.564  0.00  0.00     0.180 C 
HETATM    3  C   UNK N   1      23.288  20.228   2.575  0.00  0.00     0.182 C 
HETATM    4  C   UNK N   1      24.772  20.108   2.591  0.00  0.00     0.198 C 
HETATM    5  C   UNK N   1      25.006  19.958   4.093  0.00  0.00     0.262 C 
HETATM    6  O   UNK N   1      24.016  19.057   4.538  0.00  0.00    -0.353 OA
BRANCH   3   7
HETATM    7  O   UNK N   1      22.913  21.481   3.079  0.00  0.00    -0.390 OA
HETATM    8  H   UNK N   1      22.289  22.040   3.567  0.00  0.00     0.210 HD
ENDBRANCH   3   7
BRANCH   4   9
HETATM    9  O   UNK N   1      25.413  21.222   2.043  0.00  0.00    -0.388 OA
HETATM   10  H   UNK N   1      25.311  22.058   1.564  0.00  0.00     0.210 HD
ENDBRANCH   4   9
BRANCH   5  11
HETATM   11  N   UNK N   1      26.351  19.491   4.458  0.00  0.00    -0.297 N 
HETATM   12  C   UNK N   1      27.516  20.097   4.098  0.00  0.00     0.188 A 
HETATM   13  N   UNK N   1      28.599  19.412   4.561  0.00  0.00    -0.346 N 
HETATM   14  C   UNK N   1      28.073  18.362   5.220  0.00  0.00     0.130 A 
ATOM     15  HN  UNK N   1      29.585  19.642   4.435  1.00  0.00     0.167 HD
HETATM   16  C   UNK N   1      26.731  18.413   5.158  0.00  0.00     0.157 A 
HETATM   17  C   UNK N   1      28.700  17.326   5.891  0.00  0.00     0.186 A 
HETATM   18  N   UNK N   1      25.945  17.475   5.741  0.00  0.00    -0.174 N 
HETATM   19  C   UNK N   1      26.544  16.452   6.414  0.00  0.00     0.679 A 
HETATM   20  H   UNK N   1      24.963  17.531   5.679  0.00  0.00     0.186 HD
HETATM   21  N   UNK N   1      25.824  15.561   6.981  0.00  0.00    -0.234 N 
HETATM   22  N   UNK N   1      27.913  16.377   6.486  0.00  0.00    -0.168 N 
HETATM   23  H   UNK N   1      24.848  15.675   7.047  0.00  0.00     0.174 HD
ATOM     24  HN  UNK N   1      26.263  14.726   7.369  1.00  0.00     0.174 HD
ATOM     25  HN  UNK N   1      28.349  15.605   6.990  1.00  0.00     0.186 HD
BRANCH  17  26
HETATM   26  O   UNK N   1      30.038  17.244   5.960  0.00  0.00    -0.344 OA
HETATM   27  H   UNK N   1      30.520  16.835   5.268  0.00  0.00     0.219 HD
ENDBRANCH  17  26
ENDBRANCH   5  11
ENDBRANCH   1   2
BRANCH   1  28
HETATM   28  O   UNK N   1      21.021  18.080   4.382  0.00  0.00    -0.294 OA
BRANCH  28  29
HETATM   29  P   UNK N   1      21.266  17.574   6.032  0.00  0.00     0.401 P 
HETATM   30  O   UNK N   1      21.039  18.773   6.995  0.00  0.00    -0.631 OA
BRANCH  29  31
HETATM   31  O   UNK N   1      22.842  16.907   6.328  0.00  0.00    -0.307 OA
HETATM   32  H   UNK N   1      23.498  16.784   7.032  0.00  0.00     0.222 HD
ENDBRANCH  29  31
BRANCH  29  33
HETATM   33  O   UNK N   1      20.075  16.393   6.440  0.00  0.00    -0.195 OA
BRANCH  33  34
HETATM   34  P   UNK N   1      20.637  14.867   5.814  0.00  0.00     0.404 P 
HETATM   35  O   UNK N   1      19.406  13.939   5.613  0.00  0.00    -0.631 OA
BRANCH  34  36
HETATM   36  O   UNK N   1      21.558  14.994   4.345  0.00  0.00    -0.307 OA
HETATM   37  H   UNK N   1      22.509  15.185   4.335  0.00  0.00     0.222 HD
ENDBRANCH  34  36
BRANCH  34  38
HETATM   38  O   UNK N   1      21.611  14.237   7.081  0.00  0.00    -0.263 OA
BRANCH  38  39
HETATM   39  C   UNK N   1      21.872  12.871   6.921  0.00  0.00     0.304 C 
HETATM   40  C   UNK N   1      23.390  12.744   7.001  0.00  0.00     0.205 C 
HETATM   41  C   UNK N   1      23.821  13.301   8.368  0.00  0.00     0.183 C 
HETATM   42  C   UNK N   1      23.155  12.439   9.442  0.00  0.00     0.189 C 
HETATM   43  C   UNK N   1      21.616  12.328   9.256  0.00  0.00     0.253 C 
HETATM   44  O   UNK N   1      21.219  12.072   7.907  0.00  0.00    -0.340 OA
BRANCH  40  45
HETATM   45  O   UNK N   1      23.977  13.488   5.972  0.00  0.00    -0.388 OA
HETATM   46  H   UNK N   1      24.370  13.185   5.139  0.00  0.00     0.210 HD
ENDBRANCH  40  45
BRANCH  41  47
HETATM   47  O   UNK N   1      25.210  13.244   8.494  0.00  0.00    -0.390 OA
HETATM   48  H   UNK N   1      25.728  12.425   8.550  0.00  0.00     0.210 HD
ENDBRANCH  41  47
BRANCH  42  49
HETATM   49  O   UNK N   1      23.467  12.911  10.720  0.00  0.00    -0.390 OA
HETATM   50  H   UNK N   1      22.892  13.223  11.437  0.00  0.00     0.210 HD
ENDBRANCH  42  49
BRANCH  43  51
HETATM   51  C   UNK N   1      20.794  13.429   9.899  0.00  0.00     0.172 C 
HETATM   52  O   UNK N   1      19.790  13.180  10.542  0.00  0.00    -0.648 OA
BRANCH  51  53
HETATM   53  O   UNK N   1      21.169  14.714   9.736  0.00  0.00    -0.774 OA
HETATM   54  H   UNK N   1      21.176  15.163   8.913  0.00  0.00     0.167 HD
ENDBRANCH  51  53
ENDBRANCH  43  51
ENDBRANCH  38  39
ENDBRANCH  34  38
ENDBRANCH  33  34
ENDBRANCH  29  33
ENDBRANCH  28  29
ENDBRANCH   1  28
TORSDOF 18
ENDMDL
MODEL 3
REMARK VINA RESULT:      -7.6      6.756     10.142
REMARK  18 active torsions:
REMARK  status: ('A' for Active; 'I' for Inactive)
REMARK    1  A    between atoms: C_3  and  C_1 
REMARK    2  A    between atoms: O_37  and  C_1 
REMARK    3  A    between atoms: C_5  and  O_25 
REMARK    4  A    between atoms: C_6  and  O_26 
REMARK    5  A    between atoms: C_7  and  O_27 
REMARK    6  A    between atoms: C_8  and  O_28 
REMARK    7  A    between atoms: C_9  and  O_29 
REMARK    8  A    between atoms: C_10  and  C_14 
REMARK    9  A    between atoms: O_30  and  C_12 
REMARK   10  A    between atoms: C_13  and  N_24 
REMARK   11  A    between atoms: O_32  and  C_14 
REMARK   12  A    between atoms: C_15  and  O_40 
REMARK       I    between atoms: N_17  and  C_16 
REMARK   13  A    between atoms: P_42  and  O_33 
REMARK   14  A    between atoms: P_43  and  O_35 
REMARK   15  A    between atoms: P_42  and  O_37 
REMARK   16  A    between atoms: P_43  and  O_40 
REMARK   17  A    between atoms: P_42  and  O_41 
REMARK   18  A    between atoms: P_43  and  O_41 
ROOT
HETATM    1  C   UNK N   1      31.918  16.397   3.391  0.00  0.00     0.215 C 
ENDROOT
BRANCH   1   2
HETATM    2  C   UNK N   1      30.484  16.709   3.770  0.00  0.00     0.180 C 
HETATM    3  C   UNK N   1      29.711  15.423   4.050  0.00  0.00     0.182 C 
HETATM    4  C   UNK N   1      28.644  16.005   4.910  0.00  0.00     0.198 C 
HETATM    5  C   UNK N   1      29.491  16.917   5.796  0.00  0.00     0.262 C 
HETATM    6  O   UNK N   1      30.400  17.549   4.921  0.00  0.00    -0.353 OA
BRANCH   3   7
HETATM    7  O   UNK N   1      30.474  14.516   4.798  0.00  0.00    -0.390 OA
HETATM    8  H   UNK N   1      30.681  13.606   5.062  0.00  0.00     0.210 HD
ENDBRANCH   3   7
BRANCH   4   9
HETATM    9  O   UNK N   1      27.939  15.038   5.632  0.00  0.00    -0.388 OA
HETATM   10  H   UNK N   1      27.112  14.812   6.085  0.00  0.00     0.210 HD
ENDBRANCH   4   9
BRANCH   5  11
HETATM   11  N   UNK N   1      28.722  17.905   6.566  0.00  0.00    -0.297 N 
HETATM   12  C   UNK N   1      28.646  17.953   7.924  0.00  0.00     0.188 A 
HETATM   13  N   UNK N   1      27.832  18.963   8.344  0.00  0.00    -0.346 N 
HETATM   14  C   UNK N   1      27.405  19.541   7.205  0.00  0.00     0.130 A 
ATOM     15  HN  UNK N   1      27.599  19.221   9.302  1.00  0.00     0.167 HD
HETATM   16  C   UNK N   1      27.939  18.909   6.146  0.00  0.00     0.157 A 
HETATM   17  C   UNK N   1      26.551  20.616   7.016  0.00  0.00     0.186 A 
HETATM   18  N   UNK N   1      27.677  19.287   4.871  0.00  0.00    -0.174 N 
HETATM   19  C   UNK N   1      26.846  20.348   4.665  0.00  0.00     0.679 A 
HETATM   20  H   UNK N   1      28.077  18.806   4.110  0.00  0.00     0.186 HD
HETATM   21  N   UNK N   1      26.591  20.730   3.472  0.00  0.00    -0.234 N 
HETATM   22  N   UNK N   1      26.285  21.006   5.731  0.00  0.00    -0.168 N 
HETATM   23  H   UNK N   1      27.087  20.352   2.710  0.00  0.00     0.174 HD
ATOM     24  HN  UNK N   1      25.870  21.433   3.308  1.00  0.00     0.174 HD
ATOM     25  HN  UNK N   1      25.662  21.797   5.564  1.00  0.00     0.186 HD
BRANCH  17  26
HETATM   26  O   UNK N   1      25.996  21.259   8.055  0.00  0.00    -0.344 OA
HETATM   27  H   UNK N   1      25.409  21.974   7.905  0.00  0.00     0.219 HD
ENDBRANCH  17  26
ENDBRANCH   5  11
ENDBRANCH   1   2
BRANCH   1  28
HETATM   28  O   UNK N   1      32.751  17.228   4.124  0.00  0.00    -0.294 OA
BRANCH  28  29
HETATM   29  P   UNK N   1      33.548  16.293   5.362  0.00  0.00     0.401 P 
HETATM   30  O   UNK N   1      34.462  15.218   4.711  0.00  0.00    -0.631 OA
BRANCH  29  31
HETATM   31  O   UNK N   1      32.450  15.509   6.455  0.00  0.00    -0.307 OA
HETATM   32  H   UNK N   1      31.684  14.914   6.470  0.00  0.00     0.222 HD
ENDBRANCH  29  31
BRANCH  29  33
HETATM   33  O   UNK N   1      34.590  17.331   6.266  0.00  0.00    -0.195 OA
BRANCH  33  34
HETATM   34  P   UNK N   1      33.843  17.570   7.823  0.00  0.00     0.404 P 
HETATM   35  O   UNK N   1      34.672  18.627   8.604  0.00  0.00    -0.631 OA
BRANCH  34  36
HETATM   36  O   UNK N   1      32.169  18.034   7.747  0.00  0.00    -0.307 OA
HETATM   37  H   UNK N   1      31.470  17.564   8.228  0.00  0.00     0.222 HD
ENDBRANCH  34  36
BRANCH  34  38
HETATM   38  O   UNK N   1      34.009  16.045   8.596  0.00  0.00    -0.263 OA
BRANCH  38  39
HETATM   39  C   UNK N   1      35.340  15.753   8.914  0.00  0.00     0.304 C 
HETATM   40  C   UNK N   1      35.368  15.623  10.434  0.00  0.00     0.205 C 
HETATM   41  C   UNK N   1      34.381  14.506  10.812  0.00  0.00     0.183 C 
HETATM   42  C   UNK N   1      34.879  13.217  10.157  0.00  0.00     0.189 C 
HETATM   43  C   UNK N   1      35.113  13.370   8.628  0.00  0.00     0.253 C 
HETATM   44  O   UNK N   1      35.807  14.566   8.272  0.00  0.00    -0.340 OA
BRANCH  40  45
HETATM   45  O   UNK N   1      34.969  16.833  11.014  0.00  0.00    -0.388 OA
HETATM   46  H   UNK N   1      35.489  17.470  11.529  0.00  0.00     0.210 HD
ENDBRANCH  40  45
BRANCH  41  47
HETATM   47  O   UNK N   1      34.333  14.358  12.199  0.00  0.00    -0.390 OA
HETATM   48  H   UNK N   1      34.415  13.512  12.669  0.00  0.00     0.210 HD
ENDBRANCH  41  47
BRANCH  42  49
HETATM   49  O   UNK N   1      34.007  12.157  10.422  0.00  0.00    -0.390 OA
HETATM   50  H   UNK N   1      33.149  12.143  10.874  0.00  0.00     0.210 HD
ENDBRANCH  42  49
BRANCH  43  51
HETATM   51  C   UNK N   1      33.900  13.123   7.750  0.00  0.00     0.172 C 
HETATM   52  O   UNK N   1      32.773  13.116   8.210  0.00  0.00    -0.648 OA
BRANCH  51  53
HETATM   53  O   UNK N   1      34.076  12.882   6.435  0.00  0.00    -0.774 OA
HETATM   54  H   UNK N   1      34.227  13.545   5.790  0.00  0.00     0.167 HD
ENDBRANCH  51  53
ENDBRANCH  43  51
ENDBRANCH  38  39
ENDBRANCH  34  38
ENDBRANCH  33  34
ENDBRANCH  29  33
ENDBRANCH  28  29
ENDBRANCH   1  28
TORSDOF 18
ENDMDL
MODEL 4
REMARK VINA RESULT:      -7.6      8.352     11.528
REMARK  18 active torsions:
REMARK  status: ('A' for Active; 'I' for Inactive)
REMARK    1  A    between atoms: C_3  and  C_1 
REMARK    2  A    between atoms: O_37  and  C_1 
REMARK    3  A    between atoms: C_5  and  O_25 
REMARK    4  A    between atoms: C_6  and  O_26 
REMARK    5  A    between atoms: C_7  and  O_27 
REMARK    6  A    between atoms: C_8  and  O_28 
REMARK    7  A    between atoms: C_9  and  O_29 
REMARK    8  A    between atoms: C_10  and  C_14 
REMARK    9  A    between atoms: O_30  and  C_12 
REMARK   10  A    between atoms: C_13  and  N_24 
REMARK   11  A    between atoms: O_32  and  C_14 
REMARK   12  A    between atoms: C_15  and  O_40 
REMARK       I    between atoms: N_17  and  C_16 
REMARK   13  A    between atoms: P_42  and  O_33 
REMARK   14  A    between atoms: P_43  and  O_35 
REMARK   15  A    between atoms: P_42  and  O_37 
REMARK   16  A    between atoms: P_43  and  O_40 
REMARK   17  A    between atoms: P_42  and  O_41 
REMARK   18  A    between atoms: P_43  and  O_41 
ROOT
HETATM    1  C   UNK N   1      34.299  16.665   5.571  0.00  0.00     0.215 C 
ENDROOT
BRANCH   1   2
HETATM    2  C   UNK N   1      33.050  16.208   4.843  0.00  0.00     0.180 C 
HETATM    3  C   UNK N   1      32.573  14.864   5.390  0.00  0.00     0.182 C 
HETATM    4  C   UNK N   1      31.147  14.965   4.973  0.00  0.00     0.198 C 
HETATM    5  C   UNK N   1      30.858  16.410   5.380  0.00  0.00     0.262 C 
HETATM    6  O   UNK N   1      31.983  17.149   4.960  0.00  0.00    -0.353 OA
BRANCH   3   7
HETATM    7  O   UNK N   1      32.651  14.819   6.788  0.00  0.00    -0.390 OA
HETATM    8  H   UNK N   1      32.219  14.804   7.656  0.00  0.00     0.210 HD
ENDBRANCH   3   7
BRANCH   4   9
HETATM    9  O   UNK N   1      30.325  14.038   5.618  0.00  0.00    -0.388 OA
HETATM   10  H   UNK N   1      29.417  13.735   5.774  0.00  0.00     0.210 HD
ENDBRANCH   4   9
BRANCH   5  11
HETATM   11  N   UNK N   1      29.618  16.965   4.820  0.00  0.00    -0.297 N 
HETATM   12  C   UNK N   1      29.190  16.791   3.539  0.00  0.00     0.188 A 
HETATM   13  N   UNK N   1      28.021  17.452   3.308  0.00  0.00    -0.346 N 
HETATM   14  C   UNK N   1      27.734  18.041   4.485  0.00  0.00     0.130 A 
ATOM     15  HN  UNK N   1      27.486  17.493   2.441  1.00  0.00     0.167 HD
HETATM   16  C   UNK N   1      28.688  17.747   5.386  0.00  0.00     0.157 A 
HETATM   17  C   UNK N   1      26.665  18.847   4.842  0.00  0.00     0.186 A 
HETATM   18  N   UNK N   1      28.648  18.211   6.658  0.00  0.00    -0.174 N 
HETATM   19  C   UNK N   1      27.600  18.998   7.031  0.00  0.00     0.679 A 
HETATM   20  H   UNK N   1      29.361  17.985   7.300  0.00  0.00     0.186 HD
HETATM   21  N   UNK N   1      27.534  19.439   8.229  0.00  0.00    -0.234 N 
HETATM   22  N   UNK N   1      26.616  19.316   6.127  0.00  0.00    -0.168 N 
HETATM   23  H   UNK N   1      28.159  19.113   8.916  0.00  0.00     0.174 HD
ATOM     24  HN  UNK N   1      26.828  20.134   8.475  1.00  0.00     0.174 HD
ATOM     25  HN  UNK N   1      25.838  19.909   6.417  1.00  0.00     0.186 HD
BRANCH  17  26
HETATM   26  O   UNK N   1      25.704  19.165   3.961  0.00  0.00    -0.344 OA
HETATM   27  H   UNK N   1      25.929  19.372   3.076  0.00  0.00     0.219 HD
ENDBRANCH  17  26
ENDBRANCH   5  11
ENDBRANCH   1   2
BRANCH   1  28
HETATM   28  O   UNK N   1      34.042  17.903   6.139  0.00  0.00    -0.294 OA
BRANCH  28  29
HETATM   29  P   UNK N   1      34.287  17.804   7.862  0.00  0.00     0.401 P 
HETATM   30  O   UNK N   1      32.916  17.776   8.594  0.00  0.00    -0.631 OA
BRANCH  29  31
HETATM   31  O   UNK N   1      35.238  19.108   8.504  0.00  0.00    -0.307 OA
HETATM   32  H   UNK N   1      35.608  19.973   8.264  0.00  0.00     0.222 HD
ENDBRANCH  29  31
BRANCH  29  33
HETATM   33  O   UNK N   1      35.066  16.310   8.235  0.00  0.00    -0.195 OA
BRANCH  33  34
HETATM   34  P   UNK N   1      34.995  16.117   9.966  0.00  0.00     0.404 P 
HETATM   35  O   UNK N   1      35.432  17.455  10.624  0.00  0.00    -0.631 OA
BRANCH  34  36
HETATM   36  O   UNK N   1      33.440  15.617  10.564  0.00  0.00    -0.307 OA
HETATM   37  H   UNK N   1      33.324  14.861  11.160  0.00  0.00     0.222 HD
ENDBRANCH  34  36
BRANCH  34  38
HETATM   38  O   UNK N   1      36.178  14.917  10.294  0.00  0.00    -0.263 OA
BRANCH  38  39
HETATM   39  C   UNK N   1      35.818  13.663   9.787  0.00  0.00     0.304 C 
HETATM   40  C   UNK N   1      37.128  13.027   9.331  0.00  0.00     0.205 C 
HETATM   41  C   UNK N   1      38.051  12.957  10.559  0.00  0.00     0.183 C 
HETATM   42  C   UNK N   1      37.361  12.072  11.598  0.00  0.00     0.189 C 
HETATM   43  C   UNK N   1      35.912  12.535  11.916  0.00  0.00     0.253 C 
HETATM   44  O   UNK N   1      35.145  12.857  10.754  0.00  0.00    -0.340 OA
BRANCH  40  45
HETATM   45  O   UNK N   1      37.711  13.819   8.336  0.00  0.00    -0.388 OA
HETATM   46  H   UNK N   1      38.018  14.739   8.381  0.00  0.00     0.210 HD
ENDBRANCH  40  45
BRANCH  41  47
HETATM   47  O   UNK N   1      39.285  12.412  10.201  0.00  0.00    -0.390 OA
HETATM   48  H   UNK N   1      39.764  11.741  10.713  0.00  0.00     0.210 HD
ENDBRANCH  41  47
BRANCH  42  49
HETATM   49  O   UNK N   1      38.124  11.992  12.766  0.00  0.00    -0.390 OA
HETATM   50  H   UNK N   1      38.890  11.437  12.984  0.00  0.00     0.210 HD
ENDBRANCH  42  49
BRANCH  43  51
HETATM   51  C   UNK N   1      35.781  13.586  13.003  0.00  0.00     0.172 C 
HETATM   52  O   UNK N   1      34.810  13.624  13.736  0.00  0.00    -0.648 OA
BRANCH  51  53
HETATM   53  O   UNK N   1      36.750  14.514  13.144  0.00  0.00    -0.774 OA
HETATM   54  H   UNK N   1      37.623  14.420  12.818  0.00  0.00     0.167 HD
ENDBRANCH  51  53
ENDBRANCH  43  51
ENDBRANCH  38  39
ENDBRANCH  34  38
ENDBRANCH  33  34
ENDBRANCH  29  33
ENDBRANCH  28  29
ENDBRANCH   1  28
TORSDOF 18
ENDMDL
MODEL 5
REMARK VINA RESULT:      -7.6      6.825     10.228
REMARK  18 active torsions:
REMARK  status: ('A' for Active; 'I' for Inactive)
REMARK    1  A    between atoms: C_3  and  C_1 
REMARK    2  A    between atoms: O_37  and  C_1 
REMARK    3  A    between atoms: C_5  and  O_25 
REMARK    4  A    between atoms: C_6  and  O_26 
REMARK    5  A    between atoms: C_7  and  O_27 
REMARK    6  A    between atoms: C_8  and  O_28 
REMARK    7  A    between atoms: C_9  and  O_29 
REMARK    8  A    between atoms: C_10  and  C_14 
REMARK    9  A    between atoms: O_30  and  C_12 
REMARK   10  A    between atoms: C_13  and  N_24 
REMARK   11  A    between atoms: O_32  and  C_14 
REMARK   12  A    between atoms: C_15  and  O_40 
REMARK       I    between atoms: N_17  and  C_16 
REMARK   13  A    between atoms: P_42  and  O_33 
REMARK   14  A    between atoms: P_43  and  O_35 
REMARK   15  A    between atoms: P_42  and  O_37 
REMARK   16  A    between atoms: P_43  and  O_40 
REMARK   17  A    between atoms: P_42  and  O_41 
REMARK   18  A    between atoms: P_43  and  O_41 
ROOT
HETATM    1  C   UNK N   1      31.054  16.264   6.764  0.00  0.00     0.215 C 
ENDROOT
BRANCH   1   2
HETATM    2  C   UNK N   1      29.580  16.603   6.867  0.00  0.00     0.180 C 
HETATM    3  C   UNK N   1      29.188  16.850   8.322  0.00  0.00     0.182 C 
HETATM    4  C   UNK N   1      27.979  17.683   8.073  0.00  0.00     0.198 C 
HETATM    5  C   UNK N   1      28.516  18.601   6.976  0.00  0.00     0.262 C 
HETATM    6  O   UNK N   1      29.237  17.759   6.103  0.00  0.00    -0.353 OA
BRANCH   3   7
HETATM    7  O   UNK N   1      30.153  17.612   8.994  0.00  0.00    -0.390 OA
HETATM    8  H   UNK N   1      30.868  17.681   9.645  0.00  0.00     0.210 HD
ENDBRANCH   3   7
BRANCH   4   9
HETATM    9  O   UNK N   1      27.552  18.376   9.209  0.00  0.00    -0.388 OA
HETATM   10  H   UNK N   1      27.464  18.367  10.174  0.00  0.00     0.210 HD
ENDBRANCH   4   9
BRANCH   5  11
HETATM   11  N   UNK N   1      27.484  19.357   6.253  0.00  0.00    -0.297 N 
HETATM   12  C   UNK N   1      27.160  20.659   6.484  0.00  0.00     0.188 A 
HETATM   13  N   UNK N   1      26.143  21.072   5.675  0.00  0.00    -0.346 N 
HETATM   14  C   UNK N   1      25.846  19.987   4.934  0.00  0.00     0.130 A 
ATOM     15  HN  UNK N   1      25.706  21.992   5.640  1.00  0.00     0.167 HD
HETATM   16  C   UNK N   1      26.650  18.966   5.280  0.00  0.00     0.157 A 
HETATM   17  C   UNK N   1      24.891  19.816   3.946  0.00  0.00     0.186 A 
HETATM   18  N   UNK N   1      26.567  17.749   4.688  0.00  0.00    -0.174 N 
HETATM   19  C   UNK N   1      25.638  17.565   3.708  0.00  0.00     0.679 A 
HETATM   20  H   UNK N   1      27.164  17.015   4.961  0.00  0.00     0.186 HD
HETATM   21  N   UNK N   1      25.548  16.429   3.127  0.00  0.00    -0.234 N 
HETATM   22  N   UNK N   1      24.804  18.592   3.341  0.00  0.00    -0.168 N 
HETATM   23  H   UNK N   1      26.223  15.730   3.289  0.00  0.00     0.174 HD
ATOM     24  HN  UNK N   1      24.772  16.245   2.491  1.00  0.00     0.174 HD
ATOM     25  HN  UNK N   1      24.111  18.440   2.608  1.00  0.00     0.186 HD
BRANCH  17  26
HETATM   26  O   UNK N   1      24.069  20.815   3.587  0.00  0.00    -0.344 OA
HETATM   27  H   UNK N   1      24.265  21.338   2.834  0.00  0.00     0.219 HD
ENDBRANCH  17  26
ENDBRANCH   5  11
ENDBRANCH   1   2
BRANCH   1  28
HETATM   28  O   UNK N   1      31.767  17.450   6.677  0.00  0.00    -0.294 OA
BRANCH  28  29
HETATM   29  P   UNK N   1      33.289  17.148   5.883  0.00  0.00     0.401 P 
HETATM   30  O   UNK N   1      33.236  17.663   4.418  0.00  0.00    -0.631 OA
BRANCH  29  31
HETATM   31  O   UNK N   1      33.745  15.472   5.872  0.00  0.00    -0.307 OA
HETATM   32  H   UNK N   1      33.648  14.652   6.381  0.00  0.00     0.222 HD
ENDBRANCH  29  31
BRANCH  29  33
HETATM   33  O   UNK N   1      34.526  18.057   6.672  0.00  0.00    -0.195 OA
BRANCH  33  34
HETATM   34  P   UNK N   1      34.350  17.776   8.383  0.00  0.00     0.404 P 
HETATM   35  O   UNK N   1      35.506  18.510   9.119  0.00  0.00    -0.631 OA
BRANCH  34  36
HETATM   36  O   UNK N   1      32.808  18.255   9.030  0.00  0.00    -0.307 OA
HETATM   37  H   UNK N   1      32.428  19.135   8.886  0.00  0.00     0.222 HD
ENDBRANCH  34  36
BRANCH  34  38
HETATM   38  O   UNK N   1      34.569  16.081   8.546  0.00  0.00    -0.263 OA
BRANCH  38  39
HETATM   39  C   UNK N   1      34.624  15.679   9.886  0.00  0.00     0.304 C 
HETATM   40  C   UNK N   1      33.382  14.818  10.095  0.00  0.00     0.205 C 
HETATM   41  C   UNK N   1      33.464  13.652   9.094  0.00  0.00     0.183 C 
HETATM   42  C   UNK N   1      34.728  12.856   9.423  0.00  0.00     0.189 C 
HETATM   43  C   UNK N   1      36.003  13.744   9.473  0.00  0.00     0.253 C 
HETATM   44  O   UNK N   1      35.823  14.965  10.192  0.00  0.00    -0.340 OA
BRANCH  40  45
HETATM   45  O   UNK N   1      32.237  15.582   9.850  0.00  0.00    -0.388 OA
HETATM   46  H   UNK N   1      31.741  15.702   9.024  0.00  0.00     0.210 HD
ENDBRANCH  40  45
BRANCH  41  47
HETATM   47  O   UNK N   1      32.335  12.840   9.211  0.00  0.00    -0.390 OA
HETATM   48  H   UNK N   1      31.427  13.124   9.021  0.00  0.00     0.210 HD
ENDBRANCH  41  47
BRANCH  42  49
HETATM   49  O   UNK N   1      34.895  11.798   8.527  0.00  0.00    -0.390 OA
HETATM   50  H   UNK N   1      34.407  11.571   7.719  0.00  0.00     0.210 HD
ENDBRANCH  42  49
BRANCH  43  51
HETATM   51  C   UNK N   1      36.710  13.954   8.147  0.00  0.00     0.172 C 
HETATM   52  O   UNK N   1      37.924  13.912   8.061  0.00  0.00    -0.648 OA
BRANCH  51  53
HETATM   53  O   UNK N   1      35.980  14.218   7.044  0.00  0.00    -0.774 OA
HETATM   54  H   UNK N   1      36.212  13.945   6.178  0.00  0.00     0.167 HD
ENDBRANCH  51  53
ENDBRANCH  43  51
ENDBRANCH  38  39
ENDBRANCH  34  38
ENDBRANCH  33  34
ENDBRANCH  29  33
ENDBRANCH  28  29
ENDBRANCH   1  28
TORSDOF 18
ENDMDL
MODEL 6
REMARK VINA RESULT:      -7.6     11.208     16.072
REMARK  18 active torsions:
REMARK  status: ('A' for Active; 'I' for Inactive)
REMARK    1  A    between atoms: C_3  and  C_1 
REMARK    2  A    between atoms: O_37  and  C_1 
REMARK    3  A    between atoms: C_5  and  O_25 
REMARK    4  A    between atoms: C_6  and  O_26 
REMARK    5  A    between atoms: C_7  and  O_27 
REMARK    6  A    between atoms: C_8  and  O_28 
REMARK    7  A    between atoms: C_9  and  O_29 
REMARK    8  A    between atoms: C_10  and  C_14 
REMARK    9  A    between atoms: O_30  and  C_12 
REMARK   10  A    between atoms: C_13  and  N_24 
REMARK   11  A    between atoms: O_32  and  C_14 
REMARK   12  A    between atoms: C_15  and  O_40 
REMARK       I    between atoms: N_17  and  C_16 
REMARK   13  A    between atoms: P_42  and  O_33 
REMARK   14  A    between atoms: P_43  and  O_35 
REMARK   15  A    between atoms: P_42  and  O_37 
REMARK   16  A    between atoms: P_43  and  O_40 
REMARK   17  A    between atoms: P_42  and  O_41 
REMARK   18  A    between atoms: P_43  and  O_41 
ROOT
HETATM    1  C   UNK N   1      36.515  13.927  12.668  0.00  0.00     0.215 C 
ENDROOT
BRANCH   1   2
HETATM    2  C   UNK N   1      35.565  13.374  13.713  0.00  0.00     0.180 C 
HETATM    3  C   UNK N   1      34.643  12.325  13.097  0.00  0.00     0.182 C 
HETATM    4  C   UNK N   1      34.297  11.593  14.347  0.00  0.00     0.198 C 
HETATM    5  C   UNK N   1      35.681  11.506  14.990  0.00  0.00     0.262 C 
HETATM    6  O   UNK N   1      36.257  12.781  14.811  0.00  0.00    -0.353 OA
BRANCH   3   7
HETATM    7  O   UNK N   1      35.339  11.471  12.231  0.00  0.00    -0.390 OA
HETATM    8  H   UNK N   1      36.172  11.096  11.908  0.00  0.00     0.210 HD
ENDBRANCH   3   7
BRANCH   4   9
HETATM    9  O   UNK N   1      33.724  10.342  14.105  0.00  0.00    -0.388 OA
HETATM   10  H   UNK N   1      33.678   9.577  13.512  0.00  0.00     0.210 HD
ENDBRANCH   4   9
BRANCH   5  11
HETATM   11  N   UNK N   1      35.672  11.121  16.408  0.00  0.00    -0.297 N 
HETATM   12  C   UNK N   1      35.829   9.853  16.877  0.00  0.00     0.188 A 
HETATM   13  N   UNK N   1      35.744   9.809  18.237  0.00  0.00    -0.346 N 
HETATM   14  C   UNK N   1      35.530  11.088  18.599  0.00  0.00     0.130 A 
ATOM     15  HN  UNK N   1      35.823   8.992  18.842  1.00  0.00     0.167 HD
HETATM   16  C   UNK N   1      35.489  11.870  17.505  0.00  0.00     0.157 A 
HETATM   17  C   UNK N   1      35.358  11.643  19.856  0.00  0.00     0.186 A 
HETATM   18  N   UNK N   1      35.287  13.207  17.580  0.00  0.00    -0.174 N 
HETATM   19  C   UNK N   1      35.125  13.772  18.810  0.00  0.00     0.679 A 
HETATM   20  H   UNK N   1      35.258  13.759  16.764  0.00  0.00     0.186 HD
HETATM   21  N   UNK N   1      34.944  15.034  18.908  0.00  0.00    -0.234 N 
HETATM   22  N   UNK N   1      35.158  12.994  19.940  0.00  0.00    -0.168 N 
HETATM   23  H   UNK N   1      35.048  15.616  18.120  0.00  0.00     0.174 HD
ATOM     24  HN  UNK N   1      34.690  15.442  19.808  1.00  0.00     0.174 HD
ATOM     25  HN  UNK N   1      35.032  13.428  20.855  1.00  0.00     0.186 HD
BRANCH  17  26
HETATM   26  O   UNK N   1      35.384  10.886  20.964  0.00  0.00    -0.344 OA
HETATM   27  H   UNK N   1      35.885  11.158  21.708  0.00  0.00     0.219 HD
ENDBRANCH  17  26
ENDBRANCH   5  11
ENDBRANCH   1   2
BRANCH   1  28
HETATM   28  O   UNK N   1      36.308  15.294  12.573  0.00  0.00    -0.294 OA
BRANCH  28  29
HETATM   29  P   UNK N   1      35.687  15.672  10.989  0.00  0.00     0.401 P 
HETATM   30  O   UNK N   1      35.868  17.187  10.693  0.00  0.00    -0.631 OA
BRANCH  29  31
HETATM   31  O   UNK N   1      34.013  15.256  10.782  0.00  0.00    -0.307 OA
HETATM   32  H   UNK N   1      33.431  14.658  10.286  0.00  0.00     0.222 HD
ENDBRANCH  29  31
BRANCH  29  33
HETATM   33  O   UNK N   1      36.620  14.832   9.804  0.00  0.00    -0.195 OA
BRANCH  33  34
HETATM   34  P   UNK N   1      35.502  13.914   8.832  0.00  0.00     0.404 P 
HETATM   35  O   UNK N   1      36.301  13.214   7.699  0.00  0.00    -0.631 OA
BRANCH  34  36
HETATM   36  O   UNK N   1      34.562  12.757   9.728  0.00  0.00    -0.307 OA
HETATM   37  H   UNK N   1      34.729  12.553  10.661  0.00  0.00     0.222 HD
ENDBRANCH  34  36
BRANCH  34  38
HETATM   38  O   UNK N   1      34.481  15.110   8.141  0.00  0.00    -0.263 OA
BRANCH  38  39
HETATM   39  C   UNK N   1      34.654  15.221   6.757  0.00  0.00     0.304 C 
HETATM   40  C   UNK N   1      33.378  14.650   6.148  0.00  0.00     0.205 C 
HETATM   41  C   UNK N   1      32.203  15.480   6.693  0.00  0.00     0.183 C 
HETATM   42  C   UNK N   1      32.414  16.925   6.236  0.00  0.00     0.189 C 
HETATM   43  C   UNK N   1      33.817  17.477   6.615  0.00  0.00     0.253 C 
HETATM   44  O   UNK N   1      34.884  16.568   6.342  0.00  0.00    -0.340 OA
BRANCH  40  45
HETATM   45  O   UNK N   1      33.236  13.311   6.527  0.00  0.00    -0.388 OA
HETATM   46  H   UNK N   1      32.934  12.938   7.371  0.00  0.00     0.210 HD
ENDBRANCH  40  45
BRANCH  41  47
HETATM   47  O   UNK N   1      30.996  14.986   6.198  0.00  0.00    -0.390 OA
HETATM   48  H   UNK N   1      30.148  15.457   6.235  0.00  0.00     0.210 HD
ENDBRANCH  41  47
BRANCH  42  49
HETATM   49  O   UNK N   1      31.404  17.754   6.729  0.00  0.00    -0.390 OA
HETATM   50  H   UNK N   1      31.248  18.703   6.604  0.00  0.00     0.210 HD
ENDBRANCH  42  49
BRANCH  43  51
HETATM   51  C   UNK N   1      33.927  18.099   7.994  0.00  0.00     0.172 C 
HETATM   52  O   UNK N   1      34.665  19.044   8.209  0.00  0.00    -0.648 OA
BRANCH  51  53
HETATM   53  O   UNK N   1      33.211  17.579   9.012  0.00  0.00    -0.774 OA
HETATM   54  H   UNK N   1      32.773  18.089   9.666  0.00  0.00     0.167 HD
ENDBRANCH  51  53
ENDBRANCH  43  51
ENDBRANCH  38  39
ENDBRANCH  34  38
ENDBRANCH  33  34
ENDBRANCH  29  33
ENDBRANCH  28  29
ENDBRANCH   1  28
TORSDOF 18
ENDMDL
MODEL 7
REMARK VINA RESULT:      -7.6      6.740     10.113
REMARK  18 active torsions:
REMARK  status: ('A' for Active; 'I' for Inactive)
REMARK    1  A    between atoms: C_3  and  C_1 
REMARK    2  A    between atoms: O_37  and  C_1 
REMARK    3  A    between atoms: C_5  and  O_25 
REMARK    4  A    between atoms: C_6  and  O_26 
REMARK    5  A    between atoms: C_7  and  O_27 
REMARK    6  A    between atoms: C_8  and  O_28 
REMARK    7  A    between atoms: C_9  and  O_29 
REMARK    8  A    between atoms: C_10  and  C_14 
REMARK    9  A    between atoms: O_30  and  C_12 
REMARK   10  A    between atoms: C_13  and  N_24 
REMARK   11  A    between atoms: O_32  and  C_14 
REMARK   12  A    between atoms: C_15  and  O_40 
REMARK       I    between atoms: N_17  and  C_16 
REMARK   13  A    between atoms: P_42  and  O_33 
REMARK   14  A    between atoms: P_43  and  O_35 
REMARK   15  A    between atoms: P_42  and  O_37 
REMARK   16  A    between atoms: P_43  and  O_40 
REMARK   17  A    between atoms: P_42  and  O_41 
REMARK   18  A    between atoms: P_43  and  O_41 
ROOT
HETATM    1  C   UNK N   1      31.483  13.514   3.447  0.00  0.00     0.215 C 
ENDROOT
BRANCH   1   2
HETATM    2  C   UNK N   1      30.147  14.228   3.519  0.00  0.00     0.180 C 
HETATM    3  C   UNK N   1      29.003  13.218   3.565  0.00  0.00     0.182 C 
HETATM    4  C   UNK N   1      27.979  14.094   4.198  0.00  0.00     0.198 C 
HETATM    5  C   UNK N   1      28.830  14.744   5.289  0.00  0.00     0.262 C 
HETATM    6  O   UNK N   1      30.050  15.076   4.663  0.00  0.00    -0.353 OA
BRANCH   3   7
HETATM    7  O   UNK N   1      29.295  12.145   4.418  0.00  0.00    -0.390 OA
HETATM    8  H   UNK N   1      29.531  11.214   4.549  0.00  0.00     0.210 HD
ENDBRANCH   3   7
BRANCH   4   9
HETATM    9  O   UNK N   1      26.890  13.380   4.704  0.00  0.00    -0.388 OA
HETATM   10  H   UNK N   1      26.498  12.945   5.477  0.00  0.00     0.210 HD
ENDBRANCH   4   9
BRANCH   5  11
HETATM   11  N   UNK N   1      28.218  15.922   5.918  0.00  0.00    -0.297 N 
HETATM   12  C   UNK N   1      26.964  16.387   5.661  0.00  0.00     0.188 A 
HETATM   13  N   UNK N   1      26.692  17.514   6.377  0.00  0.00    -0.346 N 
HETATM   14  C   UNK N   1      27.814  17.736   7.089  0.00  0.00     0.130 A 
ATOM     15  HN  UNK N   1      25.834  18.065   6.374  1.00  0.00     0.167 HD
HETATM   16  C   UNK N   1      28.722  16.783   6.814  0.00  0.00     0.157 A 
HETATM   17  C   UNK N   1      28.115  18.745   7.988  0.00  0.00     0.186 A 
HETATM   18  N   UNK N   1      29.946  16.763   7.395  0.00  0.00    -0.174 N 
HETATM   19  C   UNK N   1      30.257  17.743   8.289  0.00  0.00     0.679 A 
HETATM   20  H   UNK N   1      30.597  16.057   7.175  0.00  0.00     0.186 HD
HETATM   21  N   UNK N   1      31.402  17.740   8.859  0.00  0.00    -0.234 N 
HETATM   22  N   UNK N   1      29.348  18.729   8.582  0.00  0.00    -0.168 N 
HETATM   23  H   UNK N   1      32.009  16.971   8.757  0.00  0.00     0.174 HD
ATOM     24  HN  UNK N   1      31.689  18.540   9.424  1.00  0.00     0.174 HD
ATOM     25  HN  UNK N   1      29.594  19.459   9.251  1.00  0.00     0.186 HD
BRANCH  17  26
HETATM   26  O   UNK N   1      27.231  19.714   8.274  0.00  0.00    -0.344 OA
HETATM   27  H   UNK N   1      27.528  20.531   8.624  0.00  0.00     0.219 HD
ENDBRANCH  17  26
ENDBRANCH   5  11
ENDBRANCH   1   2
BRANCH   1  28
HETATM   28  O   UNK N   1      32.306  14.033   4.435  0.00  0.00    -0.294 OA
BRANCH  28  29
HETATM   29  P   UNK N   1      33.598  14.935   3.689  0.00  0.00     0.401 P 
HETATM   30  O   UNK N   1      33.020  16.153   2.916  0.00  0.00    -0.631 OA
BRANCH  29  31
HETATM   31  O   UNK N   1      34.567  13.990   2.602  0.00  0.00    -0.307 OA
HETATM   32  H   UNK N   1      35.148  13.213   2.577  0.00  0.00     0.222 HD
ENDBRANCH  29  31
BRANCH  29  33
HETATM   33  O   UNK N   1      34.616  15.584   4.923  0.00  0.00    -0.195 OA
BRANCH  33  34
HETATM   34  P   UNK N   1      33.615  16.594   5.930  0.00  0.00     0.404 P 
HETATM   35  O   UNK N   1      34.329  17.962   6.113  0.00  0.00    -0.631 OA
BRANCH  34  36
HETATM   36  O   UNK N   1      31.998  16.820   5.330  0.00  0.00    -0.307 OA
HETATM   37  H   UNK N   1      31.228  16.910   5.913  0.00  0.00     0.222 HD
ENDBRANCH  34  36
BRANCH  34  38
HETATM   38  O   UNK N   1      33.586  15.772   7.437  0.00  0.00    -0.263 OA
BRANCH  38  39
HETATM   39  C   UNK N   1      34.851  15.709   8.032  0.00  0.00     0.304 C 
HETATM   40  C   UNK N   1      34.598  15.882   9.527  0.00  0.00     0.205 C 
HETATM   41  C   UNK N   1      33.652  14.750   9.962  0.00  0.00     0.183 C 
HETATM   42  C   UNK N   1      34.369  13.427   9.691  0.00  0.00     0.189 C 
HETATM   43  C   UNK N   1      34.878  13.306   8.228  0.00  0.00     0.253 C 
HETATM   44  O   UNK N   1      35.527  14.484   7.747  0.00  0.00    -0.340 OA
BRANCH  40  45
HETATM   45  O   UNK N   1      33.999  17.125   9.758  0.00  0.00    -0.388 OA
HETATM   46  H   UNK N   1      34.008  17.926   9.210  0.00  0.00     0.210 HD
ENDBRANCH  40  45
BRANCH  41  47
HETATM   47  O   UNK N   1      33.352  14.871  11.319  0.00  0.00    -0.390 OA
HETATM   48  H   UNK N   1      33.878  14.488  12.039  0.00  0.00     0.210 HD
ENDBRANCH  41  47
BRANCH  42  49
HETATM   49  O   UNK N   1      33.553  12.343  10.025  0.00  0.00    -0.390 OA
HETATM   50  H   UNK N   1      33.533  11.437   9.679  0.00  0.00     0.210 HD
ENDBRANCH  42  49
BRANCH  43  51
HETATM   51  C   UNK N   1      33.880  12.749   7.229  0.00  0.00     0.172 C 
HETATM   52  O   UNK N   1      34.224  11.985   6.346  0.00  0.00    -0.648 OA
BRANCH  51  53
HETATM   53  O   UNK N   1      32.588  13.128   7.306  0.00  0.00    -0.774 OA
HETATM   54  H   UNK N   1      32.266  13.967   7.038  0.00  0.00     0.167 HD
ENDBRANCH  51  53
ENDBRANCH  43  51
ENDBRANCH  38  39
ENDBRANCH  34  38
ENDBRANCH  33  34
ENDBRANCH  29  33
ENDBRANCH  28  29
ENDBRANCH   1  28
TORSDOF 18
ENDMDL
MODEL 8
REMARK VINA RESULT:      -7.5     11.279     16.140
REMARK  18 active torsions:
REMARK  status: ('A' for Active; 'I' for Inactive)
REMARK    1  A    between atoms: C_3  and  C_1 
REMARK    2  A    between atoms: O_37  and  C_1 
REMARK    3  A    between atoms: C_5  and  O_25 
REMARK    4  A    between atoms: C_6  and  O_26 
REMARK    5  A    between atoms: C_7  and  O_27 
REMARK    6  A    between atoms: C_8  and  O_28 
REMARK    7  A    between atoms: C_9  and  O_29 
REMARK    8  A    between atoms: C_10  and  C_14 
REMARK    9  A    between atoms: O_30  and  C_12 
REMARK   10  A    between atoms: C_13  and  N_24 
REMARK   11  A    between atoms: O_32  and  C_14 
REMARK   12  A    between atoms: C_15  and  O_40 
REMARK       I    between atoms: N_17  and  C_16 
REMARK   13  A    between atoms: P_42  and  O_33 
REMARK   14  A    between atoms: P_43  and  O_35 
REMARK   15  A    between atoms: P_42  and  O_37 
REMARK   16  A    between atoms: P_43  and  O_40 
REMARK   17  A    between atoms: P_42  and  O_41 
REMARK   18  A    between atoms: P_43  and  O_41 
ROOT
HETATM    1  C   UNK N   1      34.888  12.584  12.324  0.00  0.00     0.215 C 
ENDROOT
BRANCH   1   2
HETATM    2  C   UNK N   1      35.709  12.414  13.587  0.00  0.00     0.180 C 
HETATM    3  C   UNK N   1      36.794  13.484  13.670  0.00  0.00     0.182 C 
HETATM    4  C   UNK N   1      37.003  13.455  15.144  0.00  0.00     0.198 C 
HETATM    5  C   UNK N   1      35.548  13.417  15.613  0.00  0.00     0.262 C 
HETATM    6  O   UNK N   1      34.907  12.489  14.766  0.00  0.00    -0.353 OA
BRANCH   3   7
HETATM    7  O   UNK N   1      36.307  14.743  13.290  0.00  0.00    -0.390 OA
HETATM    8  H   UNK N   1      35.904  15.324  12.628  0.00  0.00     0.210 HD
ENDBRANCH   3   7
BRANCH   4   9
HETATM    9  O   UNK N   1      37.703  14.568  15.617  0.00  0.00    -0.388 OA
HETATM   10  H   UNK N   1      37.756  15.261  16.292  0.00  0.00     0.210 HD
ENDBRANCH   4   9
BRANCH   5  11
HETATM   11  N   UNK N   1      35.372  13.056  17.026  0.00  0.00    -0.297 N 
HETATM   12  C   UNK N   1      35.263  13.942  18.054  0.00  0.00     0.188 A 
HETATM   13  N   UNK N   1      35.139  13.305  19.253  0.00  0.00    -0.346 N 
HETATM   14  C   UNK N   1      35.174  11.996  18.938  0.00  0.00     0.130 A 
ATOM     15  HN  UNK N   1      35.044  13.724  20.177  1.00  0.00     0.167 HD
HETATM   16  C   UNK N   1      35.311  11.850  17.609  0.00  0.00     0.157 A 
HETATM   17  C   UNK N   1      35.094  10.880  19.756  0.00  0.00     0.186 A 
HETATM   18  N   UNK N   1      35.372  10.632  17.018  0.00  0.00    -0.174 N 
HETATM   19  C   UNK N   1      35.287   9.523  17.805  0.00  0.00     0.679 A 
HETATM   20  H   UNK N   1      35.477  10.551  16.042  0.00  0.00     0.186 HD
HETATM   21  N   UNK N   1      35.332   8.362  17.270  0.00  0.00    -0.234 N 
HETATM   22  N   UNK N   1      35.152   9.646  19.166  0.00  0.00    -0.168 N 
HETATM   23  H   UNK N   1      35.297   8.262  16.291  0.00  0.00     0.174 HD
ATOM     24  HN  UNK N   1      35.403   7.534  17.861  1.00  0.00     0.174 HD
ATOM     25  HN  UNK N   1      35.092   8.808  19.744  1.00  0.00     0.186 HD
BRANCH  17  26
HETATM   26  O   UNK N   1      34.967  10.995  21.087  0.00  0.00    -0.344 OA
HETATM   27  H   UNK N   1      34.760  11.826  21.469  0.00  0.00     0.219 HD
ENDBRANCH  17  26
ENDBRANCH   5  11
ENDBRANCH   1   2
BRANCH   1  28
HETATM   28  O   UNK N   1      35.743  12.493  11.236  0.00  0.00    -0.294 OA
BRANCH  28  29
HETATM   29  P   UNK N   1      35.305  13.703  10.060  0.00  0.00     0.401 P 
HETATM   30  O   UNK N   1      35.072  15.069  10.763  0.00  0.00    -0.631 OA
BRANCH  29  31
HETATM   31  O   UNK N   1      33.889  13.297   9.140  0.00  0.00    -0.307 OA
HETATM   32  H   UNK N   1      32.962  13.029   9.245  0.00  0.00     0.222 HD
ENDBRANCH  29  31
BRANCH  29  33
HETATM   33  O   UNK N   1      36.627  13.936   8.974  0.00  0.00    -0.195 OA
BRANCH  33  34
HETATM   34  P   UNK N   1      35.952  14.069   7.373  0.00  0.00     0.404 P 
HETATM   35  O   UNK N   1      37.071  14.556   6.411  0.00  0.00    -0.631 OA
BRANCH  34  36
HETATM   36  O   UNK N   1      35.228  12.603   6.780  0.00  0.00    -0.307 OA
HETATM   37  H   UNK N   1      34.315  12.561   6.455  0.00  0.00     0.222 HD
ENDBRANCH  34  36
BRANCH  34  38
HETATM   38  O   UNK N   1      34.768  15.303   7.527  0.00  0.00    -0.263 OA
BRANCH  38  39
HETATM   39  C   UNK N   1      34.356  15.801   6.285  0.00  0.00     0.304 C 
HETATM   40  C   UNK N   1      32.891  15.392   6.158  0.00  0.00     0.205 C 
HETATM   41  C   UNK N   1      32.143  16.008   7.353  0.00  0.00     0.183 C 
HETATM   42  C   UNK N   1      32.285  17.528   7.245  0.00  0.00     0.189 C 
HETATM   43  C   UNK N   1      33.764  17.986   7.115  0.00  0.00     0.253 C 
HETATM   44  O   UNK N   1      34.523  17.215   6.181  0.00  0.00    -0.340 OA
BRANCH  40  45
HETATM   45  O   UNK N   1      32.790  13.997   6.196  0.00  0.00    -0.388 OA
HETATM   46  H   UNK N   1      32.331  13.430   6.835  0.00  0.00     0.210 HD
ENDBRANCH  40  45
BRANCH  41  47
HETATM   47  O   UNK N   1      30.796  15.643   7.315  0.00  0.00    -0.390 OA
HETATM   48  H   UNK N   1      30.413  14.889   7.791  0.00  0.00     0.210 HD
ENDBRANCH  41  47
BRANCH  42  49
HETATM   49  O   UNK N   1      31.662  18.161   8.324  0.00  0.00    -0.390 OA
HETATM   50  H   UNK N   1      30.766  18.524   8.412  0.00  0.00     0.210 HD
ENDBRANCH  42  49
BRANCH  43  51
HETATM   51  C   UNK N   1      34.504  18.200   8.422  0.00  0.00     0.172 C 
HETATM   52  O   UNK N   1      35.349  19.069   8.539  0.00  0.00    -0.648 OA
BRANCH  51  53
HETATM   53  O   UNK N   1      34.238  17.395   9.471  0.00  0.00    -0.774 OA
HETATM   54  H   UNK N   1      33.755  17.656  10.230  0.00  0.00     0.167 HD
ENDBRANCH  51  53
ENDBRANCH  43  51
ENDBRANCH  38  39
ENDBRANCH  34  38
ENDBRANCH  33  34
ENDBRANCH  29  33
ENDBRANCH  28  29
ENDBRANCH   1  28
TORSDOF 18
ENDMDL
MODEL 9
REMARK VINA RESULT:      -7.5      9.050     13.822
REMARK  18 active torsions:
REMARK  status: ('A' for Active; 'I' for Inactive)
REMARK    1  A    between atoms: C_3  and  C_1 
REMARK    2  A    between atoms: O_37  and  C_1 
REMARK    3  A    between atoms: C_5  and  O_25 
REMARK    4  A    between atoms: C_6  and  O_26 
REMARK    5  A    between atoms: C_7  and  O_27 
REMARK    6  A    between atoms: C_8  and  O_28 
REMARK    7  A    between atoms: C_9  and  O_29 
REMARK    8  A    between atoms: C_10  and  C_14 
REMARK    9  A    between atoms: O_30  and  C_12 
REMARK   10  A    between atoms: C_13  and  N_24 
REMARK   11  A    between atoms: O_32  and  C_14 
REMARK   12  A    between atoms: C_15  and  O_40 
REMARK       I    between atoms: N_17  and  C_16 
REMARK   13  A    between atoms: P_42  and  O_33 
REMARK   14  A    between atoms: P_43  and  O_35 
REMARK   15  A    between atoms: P_42  and  O_37 
REMARK   16  A    between atoms: P_43  and  O_40 
REMARK   17  A    between atoms: P_42  and  O_41 
REMARK   18  A    between atoms: P_43  and  O_41 
ROOT
HETATM    1  C   UNK N   1      34.620  16.471  10.051  0.00  0.00     0.215 C 
ENDROOT
BRANCH   1   2
HETATM    2  C   UNK N   1      35.010  15.097  10.561  0.00  0.00     0.180 C 
HETATM    3  C   UNK N   1      36.481  14.814  10.267  0.00  0.00     0.182 C 
HETATM    4  C   UNK N   1      36.709  13.785  11.318  0.00  0.00     0.198 C 
HETATM    5  C   UNK N   1      35.998  14.453  12.495  0.00  0.00     0.262 C 
HETATM    6  O   UNK N   1      34.794  14.961  11.965  0.00  0.00    -0.353 OA
BRANCH   3   7
HETATM    7  O   UNK N   1      37.283  15.934  10.525  0.00  0.00    -0.390 OA
HETATM    8  H   UNK N   1      37.819  16.464  11.135  0.00  0.00     0.210 HD
ENDBRANCH   3   7
BRANCH   4   9
HETATM    9  O   UNK N   1      38.064  13.544  11.560  0.00  0.00    -0.388 OA
HETATM   10  H   UNK N   1      38.811  12.939  11.436  0.00  0.00     0.210 HD
ENDBRANCH   4   9
BRANCH   5  11
HETATM   11  N   UNK N   1      35.742  13.564  13.637  0.00  0.00    -0.297 N 
HETATM   12  C   UNK N   1      36.168  13.783  14.912  0.00  0.00     0.188 A 
HETATM   13  N   UNK N   1      35.801  12.767  15.743  0.00  0.00    -0.346 N 
HETATM   14  C   UNK N   1      35.133  11.910  14.946  0.00  0.00     0.130 A 
ATOM     15  HN  UNK N   1      35.990  12.675  16.741  1.00  0.00     0.167 HD
HETATM   16  C   UNK N   1      35.098  12.390  13.691  0.00  0.00     0.157 A 
HETATM   17  C   UNK N   1      34.534  10.698  15.245  0.00  0.00     0.186 A 
HETATM   18  N   UNK N   1      34.485  11.726  12.681  0.00  0.00    -0.174 N 
HETATM   19  C   UNK N   1      33.882  10.535  12.957  0.00  0.00     0.679 A 
HETATM   20  H   UNK N   1      34.476  12.096  11.767  0.00  0.00     0.186 HD
HETATM   21  N   UNK N   1      33.288   9.895  12.023  0.00  0.00    -0.234 N 
HETATM   22  N   UNK N   1      33.909  10.023  14.231  0.00  0.00    -0.168 N 
HETATM   23  H   UNK N   1      33.150  10.312  11.142  0.00  0.00     0.174 HD
ATOM     24  HN  UNK N   1      32.953   8.946  12.193  1.00  0.00     0.174 HD
ATOM     25  HN  UNK N   1      33.457   9.130  14.424  1.00  0.00     0.186 HD
BRANCH  17  26
HETATM   26  O   UNK N   1      34.562  10.190  16.487  0.00  0.00    -0.344 OA
HETATM   27  H   UNK N   1      34.981   9.368  16.649  0.00  0.00     0.219 HD
ENDBRANCH  17  26
ENDBRANCH   5  11
ENDBRANCH   1   2
BRANCH   1  28
HETATM   28  O   UNK N   1      34.882  16.520   8.690  0.00  0.00    -0.294 OA
BRANCH  28  29
HETATM   29  P   UNK N   1      34.188  17.973   8.024  0.00  0.00     0.401 P 
HETATM   30  O   UNK N   1      35.060  19.202   8.404  0.00  0.00    -0.631 OA
BRANCH  29  31
HETATM   31  O   UNK N   1      32.555  18.263   8.542  0.00  0.00    -0.307 OA
HETATM   32  H   UNK N   1      31.642  18.268   8.215  0.00  0.00     0.222 HD
ENDBRANCH  29  31
BRANCH  29  33
HETATM   33  O   UNK N   1      34.217  17.872   6.302  0.00  0.00    -0.195 OA
BRANCH  33  34
HETATM   34  P   UNK N   1      33.258  16.487   5.857  0.00  0.00     0.404 P 
HETATM   35  O   UNK N   1      33.633  16.080   4.404  0.00  0.00    -0.631 OA
BRANCH  34  36
HETATM   36  O   UNK N   1      33.418  15.132   6.936  0.00  0.00    -0.307 OA
HETATM   37  H   UNK N   1      33.604  15.233   7.882  0.00  0.00     0.222 HD
ENDBRANCH  34  36
BRANCH  34  38
HETATM   38  O   UNK N   1      31.647  17.081   5.874  0.00  0.00    -0.263 OA
BRANCH  38  39
HETATM   39  C   UNK N   1      30.772  16.223   6.550  0.00  0.00     0.304 C 
HETATM   40  C   UNK N   1      29.568  17.086   6.915  0.00  0.00     0.205 C 
HETATM   41  C   UNK N   1      28.996  17.646   5.602  0.00  0.00     0.183 C 
HETATM   42  C   UNK N   1      28.559  16.454   4.750  0.00  0.00     0.189 C 
HETATM   43  C   UNK N   1      29.689  15.405   4.556  0.00  0.00     0.253 C 
HETATM   44  O   UNK N   1      30.395  15.095   5.759  0.00  0.00    -0.340 OA
BRANCH  40  45
HETATM   45  O   UNK N   1      29.980  18.134   7.745  0.00  0.00    -0.388 OA
HETATM   46  H   UNK N   1      29.444  18.772   8.244  0.00  0.00     0.210 HD
ENDBRANCH  40  45
BRANCH  41  47
HETATM   47  O   UNK N   1      27.907  18.477   5.869  0.00  0.00    -0.390 OA
HETATM   48  H   UNK N   1      27.019  18.365   5.493  0.00  0.00     0.210 HD
ENDBRANCH  41  47
BRANCH  42  49
HETATM   49  O   UNK N   1      28.062  16.882   3.516  0.00  0.00    -0.390 OA
HETATM   50  H   UNK N   1      27.299  17.442   3.302  0.00  0.00     0.210 HD
ENDBRANCH  42  49
BRANCH  43  51
HETATM   51  C   UNK N   1      30.624  15.655   3.387  0.00  0.00     0.172 C 
HETATM   52  O   UNK N   1      31.128  14.735   2.769  0.00  0.00    -0.648 OA
BRANCH  51  53
HETATM   53  O   UNK N   1      30.923  16.923   3.040  0.00  0.00    -0.774 OA
HETATM   54  H   UNK N   1      31.794  17.266   2.986  0.00  0.00     0.167 HD
ENDBRANCH  51  53
ENDBRANCH  43  51
ENDBRANCH  38  39
ENDBRANCH  34  38
ENDBRANCH  33  34
ENDBRANCH  29  33
ENDBRANCH  28  29
ENDBRANCH   1  28
TORSDOF 18
ENDMDL
