REMARK  11 active torsions:
REMARK  status: ('A' for Active; 'I' for Inactive)
REMARK    1  A    between atoms: C_5  and  C_1 
REMARK    2  A    between atoms: O_25  and  C_1 
REMARK    3  A    between atoms: C_6  and  C_2 
REMARK    4  A    between atoms: O_26  and  C_2 
REMARK    5  A    between atoms: C_12  and  C_5 
REMARK    6  A    between atoms: C_5  and  N_14 
REMARK    7  A    between atoms: C_7  and  N_22 
REMARK    8  A    between atoms: C_9  and  O_27 
REMARK    9  A    between atoms: N_15  and  C_10 
REMARK   10  A    between atoms: C_12  and  O_28 
REMARK   11  A    between atoms: C_13  and  N_24 
ROOT
HETATM    1  C   UNK N   1      -0.621  -1.337  -0.630  0.00  0.00     0.173 C 
HETATM    2  C   UNK N   1       0.416  -1.779   0.405  0.00  0.00     0.147 C 
HETATM    3  C   UNK N   1       1.529  -0.776   0.153  0.00  0.00     0.192 C 
HETATM    4  C   UNK N   1       0.818   0.336  -0.637  0.00  0.00     0.261 C 
HETATM    5  O   UNK N   1      -0.568   0.076  -0.578  0.00  0.00    -0.354 OA
ENDROOT
BRANCH   4   6
HETATM    6  N   UNK N   1       1.177   1.693  -0.214  0.00  0.00    -0.297 N 
HETATM    7  C   UNK N   1       0.356   2.694   0.201  0.00  0.00     0.188 A 
HETATM    8  N   UNK N   1       1.057   3.842   0.439  0.00  0.00    -0.346 N 
HETATM    9  C   UNK N   1       2.333   3.518   0.158  0.00  0.00     0.122 A 
ATOM     10  HN  UNK N   1       0.695   4.741   0.757  1.00  0.00     0.167 HD
HETATM   11  C   UNK N   1       3.485   4.292   0.196  0.00  0.00     0.131 A 
HETATM   12  C   UNK N   1       2.403   2.230  -0.226  0.00  0.00     0.142 A 
HETATM   13  N   UNK N   1       4.667   3.700  -0.150  0.00  0.00    -0.337 N 
HETATM   14  C   UNK N   1       4.712   2.379  -0.528  0.00  0.00     0.183 A 
ATOM     15  HN  UNK N   1       5.528   4.246  -0.127  1.00  0.00     0.168 HD
HETATM   16  N   UNK N   1       3.567   1.632  -0.576  0.00  0.00    -0.336 N 
ATOM     17  HN  UNK N   1       3.588   0.655  -0.868  1.00  0.00     0.168 HD
BRANCH  11  18
HETATM   18  N   UNK N   1       3.444   5.653   0.562  0.00  0.00    -0.383 N 
HETATM   19  H   UNK N   1       4.253   6.152   0.819  0.00  0.00     0.157 HD
HETATM   20  H   UNK N   1       2.577   6.119   0.562  0.00  0.00     0.157 HD
ENDBRANCH  11  18
ENDBRANCH   4   6
BRANCH   3  21
HETATM   21  O   UNK N   1       2.066  -0.346   1.370  0.00  0.00    -0.389 OA
HETATM   22  H   UNK N   1       2.511  -0.519   2.214  0.00  0.00     0.210 HD
ENDBRANCH   3  21
BRANCH   2  23
HETATM   23  N   UNK N   1       0.953  -3.132   0.334  0.00  0.00    -0.363 N 
HETATM   24  C   UNK N   1       0.292  -4.241   0.385  0.00  0.00     0.136 C 
ATOM     25  HN  UNK N   1       1.965  -3.212   0.234  1.00  0.00     0.162 HD
BRANCH  24  26
HETATM   26  C   UNK N   1       1.061  -5.540   0.433  0.00  0.00     0.173 C 
BRANCH  26  27
HETATM   27  C   UNK N   1       0.163  -6.775   0.477  0.00  0.00     0.197 C 
BRANCH  27  28
HETATM   28  O   UNK N   1      -0.524  -6.936  -0.728  0.00  0.00    -0.398 OA
HETATM   29  H   UNK N   1      -0.860  -6.578  -1.566  0.00  0.00     0.209 HD
ENDBRANCH  27  28
ENDBRANCH  26  27
BRANCH  26  30
HETATM   30  N   UNK N   1       1.967  -5.637  -0.700  0.00  0.00    -0.418 N 
HETATM   31  H   UNK N   1       2.226  -6.222  -1.495  0.00  0.00     0.150 HD
HETATM   32  H   UNK N   1       2.569  -4.813  -0.700  0.00  0.00     0.150 HD
ENDBRANCH  26  30
ENDBRANCH  24  26
BRANCH  24  33
HETATM   33  O   UNK N   1      -1.055  -4.248   0.436  0.00  0.00    -0.348 OA
HETATM   34  H   UNK N   1      -1.528  -3.440   0.472  0.00  0.00     0.219 HD
ENDBRANCH  24  33
ENDBRANCH   2  23
BRANCH   1  35
HETATM   35  C   UNK N   1      -2.045  -1.819  -0.354  0.00  0.00     0.198 C 
BRANCH  35  36
HETATM   36  O   UNK N   1      -2.485  -1.407   0.907  0.00  0.00    -0.398 OA
HETATM   37  H   UNK N   1      -2.391  -1.000   1.782  0.00  0.00     0.209 HD
ENDBRANCH  35  36
ENDBRANCH   1  35
TORSDOF 11
