MODEL 1
REMARK VINA RESULT:      -8.3      0.000      0.000
REMARK  31 active torsions:
REMARK  status: ('A' for Active; 'I' for Inactive)
REMARK    1  A    between atoms: C_8  and  C_7 
REMARK    2  A    between atoms: C_19  and  C_7 
REMARK    3  A    between atoms: N_32  and  C_8 
REMARK    4  A    between atoms: C_10  and  C_9 
REMARK    5  A    between atoms: N_30  and  C_9 
REMARK    6  A    between atoms: S_61  and  C_10 
REMARK    7  A    between atoms: C_18  and  C_11 
REMARK    8  A    between atoms: O_53  and  C_11 
REMARK    9  A    between atoms: C_16  and  C_12 
REMARK   10  A    between atoms: S_61  and  C_12 
REMARK   11  A    between atoms: C_28  and  C_13 
REMARK   12  A    between atoms: O_54  and  C_13 
REMARK   13  A    between atoms: O_41  and  C_17 
REMARK   14  A    between atoms: O_42  and  C_19 
REMARK   15  A    between atoms: C_21  and  O_43 
REMARK   16  A    between atoms: C_22  and  O_56 
REMARK   17  A    between atoms: C_26  and  C_23 
REMARK   18  A    between atoms: C_28  and  C_23 
REMARK   19  A    between atoms: C_23  and  O_44 
REMARK   20  A    between atoms: N_29  and  C_24 
REMARK   21  A    between atoms: O_45  and  C_26 
REMARK   22  A    between atoms: C_27  and  N_40 
REMARK   23  A    between atoms: P_58  and  O_46 
REMARK   24  A    between atoms: P_58  and  O_47 
REMARK   25  A    between atoms: P_59  and  O_49 
REMARK   26  A    between atoms: P_60  and  O_51 
REMARK   27  A    between atoms: P_59  and  O_53 
REMARK   28  A    between atoms: P_60  and  O_54 
REMARK   29  A    between atoms: P_58  and  O_56 
REMARK   30  A    between atoms: P_59  and  O_57 
REMARK   31  A    between atoms: P_60  and  O_57 
ROOT
HETATM    1  O   UNK N   1      27.921  16.372   4.442  0.00  0.00    -0.195 OA
ENDROOT
BRANCH   1   2
HETATM    2  P   UNK N   1      26.378  16.862   5.104  0.00  0.00     0.401 P 
HETATM    3  O   UNK N   1      26.221  18.398   4.962  0.00  0.00    -0.631 OA
BRANCH   2   4
HETATM    4  O   UNK N   1      26.416  16.571   6.815  0.00  0.00    -0.307 OA
HETATM    5  H   UNK N   1      27.029  16.446   7.557  0.00  0.00     0.222 HD
ENDBRANCH   2   4
BRANCH   2   6
HETATM    6  O   UNK N   1      24.975  16.043   4.461  0.00  0.00    -0.294 OA
BRANCH   6   7
HETATM    7  C   UNK N   1      23.854  16.394   5.229  0.00  0.00     0.215 C 
BRANCH   7   8
HETATM    8  C   UNK N   1      23.043  15.155   5.620  0.00  0.00     0.180 C 
HETATM    9  C   UNK N   1      21.545  15.323   5.298  0.00  0.00     0.197 C 
HETATM   10  C   UNK N   1      20.977  14.486   6.413  0.00  0.00     0.199 C 
HETATM   11  C   UNK N   1      21.880  14.952   7.544  0.00  0.00     0.262 C 
HETATM   12  O   UNK N   1      23.181  14.905   7.010  0.00  0.00    -0.353 OA
BRANCH   9  13
HETATM   13  O   UNK N   1      21.132  14.806   4.047  0.00  0.00    -0.286 OA
BRANCH  13  14
HETATM   14  P   UNK N   1      20.091  15.935   3.200  0.00  0.00     0.391 P 
HETATM   15  O   UNK N   1      20.923  17.169   2.762  0.00  0.00    -0.632 OA
BRANCH  14  16
HETATM   16  O   UNK N   1      19.364  15.237   1.785  0.00  0.00    -0.307 OA
HETATM   17  H   UNK N   1      18.847  14.464   1.510  0.00  0.00     0.222 HD
ENDBRANCH  14  16
BRANCH  14  18
HETATM   18  O   UNK N   1      18.856  16.538   4.260  0.00  0.00    -0.307 OA
HETATM   19  H   UNK N   1      18.538  17.450   4.181  0.00  0.00     0.222 HD
ENDBRANCH  14  18
ENDBRANCH  13  14
ENDBRANCH   9  13
BRANCH  10  20
HETATM   20  O   UNK N   1      19.623  14.749   6.636  0.00  0.00    -0.388 OA
HETATM   21  H   UNK N   1      18.995  14.810   7.372  0.00  0.00     0.210 HD
ENDBRANCH  10  20
BRANCH  11  22
HETATM   22  N   UNK N   1      21.814  14.166   8.784  0.00  0.00    -0.297 N 
HETATM   23  C   UNK N   1      20.654  13.897   9.441  0.00  0.00     0.188 A 
HETATM   24  N   UNK N   1      20.868  13.129  10.544  0.00  0.00    -0.346 N 
HETATM   25  C   UNK N   1      22.194  12.917  10.549  0.00  0.00     0.122 A 
ATOM     26  HN  UNK N   1      20.177  12.791  11.214  1.00  0.00     0.167 HD
HETATM   27  C   UNK N   1      22.966  12.173  11.426  0.00  0.00     0.131 A 
HETATM   28  C   UNK N   1      22.766  13.541   9.498  0.00  0.00     0.142 A 
HETATM   29  N   UNK N   1      24.308  12.095  11.188  0.00  0.00    -0.337 N 
HETATM   30  C   UNK N   1      24.873  12.738  10.112  0.00  0.00     0.183 A 
ATOM     31  HN  UNK N   1      24.900  11.552  11.816  1.00  0.00     0.168 HD
HETATM   32  N   UNK N   1      24.097  13.471   9.254  0.00  0.00    -0.336 N 
ATOM     33  HN  UNK N   1      24.508  13.950   8.453  1.00  0.00     0.168 HD
BRANCH  27  34
HETATM   34  N   UNK N   1      22.388  11.503  12.523  0.00  0.00    -0.383 N 
HETATM   35  H   UNK N   1      21.832  12.000  13.166  0.00  0.00     0.157 HD
HETATM   36  H   UNK N   1      22.539  10.539  12.646  0.00  0.00     0.157 HD
ENDBRANCH  27  34
ENDBRANCH  11  22
ENDBRANCH   7   8
ENDBRANCH   6   7
ENDBRANCH   2   6
ENDBRANCH   1   2
BRANCH   1  37
HETATM   37  P   UNK N   1      29.136  17.529   4.932  0.00  0.00     0.401 P 
HETATM   38  O   UNK N   1      29.002  17.656   6.473  0.00  0.00    -0.631 OA
BRANCH  37  39
HETATM   39  O   UNK N   1      28.815  19.112   4.303  0.00  0.00    -0.307 OA
HETATM   40  H   UNK N   1      28.710  19.250   3.348  0.00  0.00     0.222 HD
ENDBRANCH  37  39
BRANCH  37  41
HETATM   41  O   UNK N   1      30.774  17.009   4.633  0.00  0.00    -0.296 OA
BRANCH  41  42
HETATM   42  C   UNK N   1      31.488  17.521   5.715  0.00  0.00     0.192 C 
BRANCH  42  43
HETATM   43  C   UNK N   1      32.669  16.652   6.145  0.00  0.00     0.008 C 
HETATM   44  C   UNK N   1      33.190  15.922   4.916  0.00  0.00     0.020 C 
HETATM   45  C   UNK N   1      33.809  17.493   6.712  0.00  0.00     0.020 C 
BRANCH  43  46
HETATM   46  C   UNK N   1      32.172  15.636   7.204  0.00  0.00     0.202 C 
BRANCH  46  47
HETATM   47  C   UNK N   1      32.198  16.220   8.621  0.00  0.00     0.141 C 
HETATM   48  N   UNK N   1      33.027  15.816   9.522  0.00  0.00    -0.372 N 
ATOM     49  HN  UNK N   1      33.030  16.294  10.424  1.00  0.00     0.161 HD
BRANCH  48  50
HETATM   50  C   UNK N   1      33.947  14.729   9.324  0.00  0.00     0.129 C 
BRANCH  50  51
HETATM   51  C   UNK N   1      35.385  15.205   9.357  0.00  0.00     0.103 C 
BRANCH  51  52
HETATM   52  C   UNK N   1      35.699  16.122  10.506  0.00  0.00     0.112 C 
HETATM   53  N   UNK N   1      36.139  15.701  11.650  0.00  0.00    -0.374 N 
ATOM     54  HN  UNK N   1      36.392  16.417  12.331  1.00  0.00     0.161 HD
BRANCH  53  55
HETATM   55  C   UNK N   1      36.310  14.317  12.067  0.00  0.00     0.131 C 
BRANCH  55  56
HETATM   56  C   UNK N   1      36.030  14.012  13.545  0.00  0.00     0.093 C 
BRANCH  56  57
HETATM   57  S   UNK N   1      36.917  12.570  14.211  0.00  0.00    -0.163 SA
BRANCH  57  58
HETATM   58  C   UNK N   1      35.425  11.893  14.999  0.00  0.00     0.112 C 
BRANCH  58  59
HETATM   59  C   UNK N   1      35.370  12.141  16.477  0.00  0.00    -0.049 A 
HETATM   60  C   UNK N   1      35.231  13.455  16.931  0.00  0.00     0.011 A 
HETATM   61  C   UNK N   1      35.172  13.724  18.302  0.00  0.00     0.037 A 
HETATM   62  C   UNK N   1      35.256  12.677  19.224  0.00  0.00     0.065 A 
HETATM   63  C   UNK N   1      35.398  11.362  18.778  0.00  0.00     0.037 A 
HETATM   64  C   UNK N   1      35.451  11.094  17.410  0.00  0.00     0.011 A 
BRANCH  62  65
HETATM   65  O   UNK N   1      35.201  12.936  20.540  0.00  0.00    -0.361 OA
HETATM   66  H   UNK N   1      34.525  13.479  20.896  0.00  0.00     0.217 HD
ENDBRANCH  62  65
ENDBRANCH  58  59
ENDBRANCH  57  58
ENDBRANCH  56  57
ENDBRANCH  55  56
ENDBRANCH  53  55
BRANCH  52  67
HETATM   67  O   UNK N   1      35.553  17.445  10.314  0.00  0.00    -0.350 OA
HETATM   68  H   UNK N   1      34.761  17.893  10.089  0.00  0.00     0.219 HD
ENDBRANCH  52  67
ENDBRANCH  51  52
ENDBRANCH  50  51
ENDBRANCH  48  50
BRANCH  47  69
HETATM   69  O   UNK N   1      31.312  17.175   8.957  0.00  0.00    -0.348 OA
HETATM   70  H   UNK N   1      30.420  17.131   9.242  0.00  0.00     0.219 HD
ENDBRANCH  47  69
ENDBRANCH  46  47
BRANCH  46  71
HETATM   71  O   UNK N   1      30.864  15.243   6.909  0.00  0.00    -0.387 OA
HETATM   72  H   UNK N   1      30.300  15.634   6.225  0.00  0.00     0.210 HD
ENDBRANCH  46  71
ENDBRANCH  43  46
ENDBRANCH  42  43
ENDBRANCH  41  42
ENDBRANCH  37  41
ENDBRANCH   1  37
TORSDOF 31
ENDMDL
MODEL 2
REMARK VINA RESULT:      -8.1      2.010      3.175
REMARK  31 active torsions:
REMARK  status: ('A' for Active; 'I' for Inactive)
REMARK    1  A    between atoms: C_8  and  C_7 
REMARK    2  A    between atoms: C_19  and  C_7 
REMARK    3  A    between atoms: N_32  and  C_8 
REMARK    4  A    between atoms: C_10  and  C_9 
REMARK    5  A    between atoms: N_30  and  C_9 
REMARK    6  A    between atoms: S_61  and  C_10 
REMARK    7  A    between atoms: C_18  and  C_11 
REMARK    8  A    between atoms: O_53  and  C_11 
REMARK    9  A    between atoms: C_16  and  C_12 
REMARK   10  A    between atoms: S_61  and  C_12 
REMARK   11  A    between atoms: C_28  and  C_13 
REMARK   12  A    between atoms: O_54  and  C_13 
REMARK   13  A    between atoms: O_41  and  C_17 
REMARK   14  A    between atoms: O_42  and  C_19 
REMARK   15  A    between atoms: C_21  and  O_43 
REMARK   16  A    between atoms: C_22  and  O_56 
REMARK   17  A    between atoms: C_26  and  C_23 
REMARK   18  A    between atoms: C_28  and  C_23 
REMARK   19  A    between atoms: C_23  and  O_44 
REMARK   20  A    between atoms: N_29  and  C_24 
REMARK   21  A    between atoms: O_45  and  C_26 
REMARK   22  A    between atoms: C_27  and  N_40 
REMARK   23  A    between atoms: P_58  and  O_46 
REMARK   24  A    between atoms: P_58  and  O_47 
REMARK   25  A    between atoms: P_59  and  O_49 
REMARK   26  A    between atoms: P_60  and  O_51 
REMARK   27  A    between atoms: P_59  and  O_53 
REMARK   28  A    between atoms: P_60  and  O_54 
REMARK   29  A    between atoms: P_58  and  O_56 
REMARK   30  A    between atoms: P_59  and  O_57 
REMARK   31  A    between atoms: P_60  and  O_57 
ROOT
HETATM    1  O   UNK N   1      28.265  18.304   5.200  0.00  0.00    -0.195 OA
ENDROOT
BRANCH   1   2
HETATM    2  P   UNK N   1      27.138  19.531   5.732  0.00  0.00     0.401 P 
HETATM    3  O   UNK N   1      27.575  20.909   5.170  0.00  0.00    -0.631 OA
BRANCH   2   4
HETATM    4  O   UNK N   1      27.289  19.682   7.455  0.00  0.00    -0.307 OA
HETATM    5  H   UNK N   1      26.925  20.162   8.216  0.00  0.00     0.222 HD
ENDBRANCH   2   4
BRANCH   2   6
HETATM    6  O   UNK N   1      25.454  19.232   5.375  0.00  0.00    -0.294 OA
BRANCH   6   7
HETATM    7  C   UNK N   1      25.359  18.639   4.107  0.00  0.00     0.215 C 
BRANCH   7   8
HETATM    8  C   UNK N   1      24.241  17.593   4.070  0.00  0.00     0.180 C 
HETATM    9  C   UNK N   1      22.844  18.241   4.133  0.00  0.00     0.197 C 
HETATM   10  C   UNK N   1      22.116  17.146   4.865  0.00  0.00     0.199 C 
HETATM   11  C   UNK N   1      23.177  16.806   5.900  0.00  0.00     0.262 C 
HETATM   12  O   UNK N   1      24.375  16.704   5.168  0.00  0.00    -0.353 OA
BRANCH   9  13
HETATM   13  O   UNK N   1      22.228  18.478   2.880  0.00  0.00    -0.286 OA
BRANCH  13  14
HETATM   14  P   UNK N   1      21.477  20.061   2.824  0.00  0.00     0.391 P 
HETATM   15  O   UNK N   1      20.650  20.282   4.119  0.00  0.00    -0.632 OA
BRANCH  14  16
HETATM   16  O   UNK N   1      22.640  21.345   2.694  0.00  0.00    -0.307 OA
HETATM   17  H   UNK N   1      23.093  22.005   3.241  0.00  0.00     0.222 HD
ENDBRANCH  14  16
BRANCH  14  18
HETATM   18  O   UNK N   1      20.347  20.153   1.510  0.00  0.00    -0.307 OA
HETATM   19  H   UNK N   1      19.630  20.805   1.519  0.00  0.00     0.222 HD
ENDBRANCH  14  18
ENDBRANCH  13  14
ENDBRANCH   9  13
BRANCH  10  20
HETATM   20  O   UNK N   1      20.915  17.590   5.424  0.00  0.00    -0.388 OA
HETATM   21  H   UNK N   1      20.044  17.243   5.674  0.00  0.00     0.210 HD
ENDBRANCH  10  20
BRANCH  11  22
HETATM   22  N   UNK N   1      22.950  15.577   6.672  0.00  0.00    -0.297 N 
HETATM   23  C   UNK N   1      23.759  14.487   6.603  0.00  0.00     0.188 A 
HETATM   24  N   UNK N   1      23.341  13.497   7.438  0.00  0.00    -0.346 N 
HETATM   25  C   UNK N   1      22.255  14.007   8.040  0.00  0.00     0.122 A 
ATOM     26  HN  UNK N   1      23.760  12.576   7.576  1.00  0.00     0.167 HD
HETATM   27  C   UNK N   1      21.441  13.449   9.012  0.00  0.00     0.131 A 
HETATM   28  C   UNK N   1      22.013  15.252   7.581  0.00  0.00     0.142 A 
HETATM   29  N   UNK N   1      20.402  14.199   9.483  0.00  0.00    -0.337 N 
HETATM   30  C   UNK N   1      20.171  15.467   9.003  0.00  0.00     0.183 A 
ATOM     31  HN  UNK N   1      19.788  13.815  10.201  1.00  0.00     0.168 HD
HETATM   32  N   UNK N   1      20.984  16.004   8.040  0.00  0.00    -0.336 N 
ATOM     33  HN  UNK N   1      20.820  16.944   7.679  1.00  0.00     0.168 HD
BRANCH  27  34
HETATM   34  N   UNK N   1      21.683  12.155   9.515  0.00  0.00    -0.383 N 
HETATM   35  H   UNK N   1      21.878  11.415   8.896  0.00  0.00     0.157 HD
HETATM   36  H   UNK N   1      21.655  11.991  10.485  0.00  0.00     0.157 HD
ENDBRANCH  27  34
ENDBRANCH  11  22
ENDBRANCH   7   8
ENDBRANCH   6   7
ENDBRANCH   2   6
ENDBRANCH   1   2
BRANCH   1  37
HETATM   37  P   UNK N   1      28.199  16.959   6.314  0.00  0.00     0.401 P 
HETATM   38  O   UNK N   1      28.476  15.692   5.462  0.00  0.00    -0.631 OA
BRANCH  37  39
HETATM   39  O   UNK N   1      26.611  16.741   6.975  0.00  0.00    -0.307 OA
HETATM   40  H   UNK N   1      25.975  16.150   6.542  0.00  0.00     0.222 HD
ENDBRANCH  37  39
BRANCH  37  41
HETATM   41  O   UNK N   1      29.436  16.993   7.543  0.00  0.00    -0.296 OA
BRANCH  41  42
HETATM   42  C   UNK N   1      30.611  16.733   6.839  0.00  0.00     0.192 C 
BRANCH  42  43
HETATM   43  C   UNK N   1      31.882  17.147   7.580  0.00  0.00     0.008 C 
HETATM   44  C   UNK N   1      32.950  17.464   6.543  0.00  0.00     0.020 C 
HETATM   45  C   UNK N   1      31.658  18.398   8.424  0.00  0.00     0.020 C 
BRANCH  43  46
HETATM   46  C   UNK N   1      32.335  15.968   8.476  0.00  0.00     0.202 C 
BRANCH  46  47
HETATM   47  C   UNK N   1      33.784  16.127   8.953  0.00  0.00     0.141 C 
HETATM   48  N   UNK N   1      34.738  15.365   8.540  0.00  0.00    -0.372 N 
ATOM     49  HN  UNK N   1      35.688  15.570   8.851  1.00  0.00     0.161 HD
BRANCH  48  50
HETATM   50  C   UNK N   1      34.534  14.242   7.665  0.00  0.00     0.129 C 
BRANCH  50  51
HETATM   51  C   UNK N   1      34.775  12.929   8.381  0.00  0.00     0.103 C 
BRANCH  51  52
HETATM   52  C   UNK N   1      33.804  12.653   9.495  0.00  0.00     0.112 C 
HETATM   53  N   UNK N   1      34.101  12.801  10.747  0.00  0.00    -0.374 N 
ATOM     54  HN  UNK N   1      33.343  12.659  11.415  1.00  0.00     0.161 HD
BRANCH  53  55
HETATM   55  C   UNK N   1      35.401  13.144  11.305  0.00  0.00     0.131 C 
BRANCH  55  56
HETATM   56  C   UNK N   1      35.896  12.273  12.468  0.00  0.00     0.093 C 
BRANCH  56  57
HETATM   57  S   UNK N   1      36.225  13.174  14.014  0.00  0.00    -0.163 SA
BRANCH  57  58
HETATM   58  C   UNK N   1      35.739  11.763  15.053  0.00  0.00     0.112 C 
BRANCH  58  59
HETATM   59  C   UNK N   1      35.550  12.125  16.496  0.00  0.00    -0.049 A 
HETATM   60  C   UNK N   1      35.493  11.098  17.442  0.00  0.00     0.011 A 
HETATM   61  C   UNK N   1      35.322  11.398  18.797  0.00  0.00     0.037 A 
HETATM   62  C   UNK N   1      35.205  12.728  19.210  0.00  0.00     0.065 A 
HETATM   63  C   UNK N   1      35.259  13.759  18.270  0.00  0.00     0.037 A 
HETATM   64  C   UNK N   1      35.434  13.460  16.919  0.00  0.00     0.011 A 
BRANCH  62  65
HETATM   65  O   UNK N   1      35.040  13.015  20.510  0.00  0.00    -0.361 OA
HETATM   66  H   UNK N   1      35.093  13.898  20.819  0.00  0.00     0.217 HD
ENDBRANCH  62  65
ENDBRANCH  58  59
ENDBRANCH  57  58
ENDBRANCH  56  57
ENDBRANCH  55  56
ENDBRANCH  53  55
BRANCH  52  67
HETATM   67  O   UNK N   1      32.557  12.276   9.164  0.00  0.00    -0.350 OA
HETATM   68  H   UNK N   1      32.241  12.079   8.304  0.00  0.00     0.219 HD
ENDBRANCH  52  67
ENDBRANCH  51  52
ENDBRANCH  50  51
ENDBRANCH  48  50
BRANCH  47  69
HETATM   69  O   UNK N   1      34.080  17.082   9.854  0.00  0.00    -0.348 OA
HETATM   70  H   UNK N   1      34.332  17.037  10.756  0.00  0.00     0.219 HD
ENDBRANCH  47  69
ENDBRANCH  46  47
BRANCH  46  71
HETATM   71  O   UNK N   1      31.506  15.877   9.597  0.00  0.00    -0.387 OA
HETATM   72  H   UNK N   1      31.160  15.054   9.976  0.00  0.00     0.210 HD
ENDBRANCH  46  71
ENDBRANCH  43  46
ENDBRANCH  42  43
ENDBRANCH  41  42
ENDBRANCH  37  41
ENDBRANCH   1  37
TORSDOF 31
ENDMDL
MODEL 3
REMARK VINA RESULT:      -8.1      1.791      2.309
REMARK  31 active torsions:
REMARK  status: ('A' for Active; 'I' for Inactive)
REMARK    1  A    between atoms: C_8  and  C_7 
REMARK    2  A    between atoms: C_19  and  C_7 
REMARK    3  A    between atoms: N_32  and  C_8 
REMARK    4  A    between atoms: C_10  and  C_9 
REMARK    5  A    between atoms: N_30  and  C_9 
REMARK    6  A    between atoms: S_61  and  C_10 
REMARK    7  A    between atoms: C_18  and  C_11 
REMARK    8  A    between atoms: O_53  and  C_11 
REMARK    9  A    between atoms: C_16  and  C_12 
REMARK   10  A    between atoms: S_61  and  C_12 
REMARK   11  A    between atoms: C_28  and  C_13 
REMARK   12  A    between atoms: O_54  and  C_13 
REMARK   13  A    between atoms: O_41  and  C_17 
REMARK   14  A    between atoms: O_42  and  C_19 
REMARK   15  A    between atoms: C_21  and  O_43 
REMARK   16  A    between atoms: C_22  and  O_56 
REMARK   17  A    between atoms: C_26  and  C_23 
REMARK   18  A    between atoms: C_28  and  C_23 
REMARK   19  A    between atoms: C_23  and  O_44 
REMARK   20  A    between atoms: N_29  and  C_24 
REMARK   21  A    between atoms: O_45  and  C_26 
REMARK   22  A    between atoms: C_27  and  N_40 
REMARK   23  A    between atoms: P_58  and  O_46 
REMARK   24  A    between atoms: P_58  and  O_47 
REMARK   25  A    between atoms: P_59  and  O_49 
REMARK   26  A    between atoms: P_60  and  O_51 
REMARK   27  A    between atoms: P_59  and  O_53 
REMARK   28  A    between atoms: P_60  and  O_54 
REMARK   29  A    between atoms: P_58  and  O_56 
REMARK   30  A    between atoms: P_59  and  O_57 
REMARK   31  A    between atoms: P_60  and  O_57 
ROOT
HETATM    1  O   UNK N   1      27.000  17.290   5.932  0.00  0.00    -0.195 OA
ENDROOT
BRANCH   1   2
HETATM    2  P   UNK N   1      26.312  18.486   4.857  0.00  0.00     0.401 P 
HETATM    3  O   UNK N   1      27.453  19.232   4.119  0.00  0.00    -0.631 OA
BRANCH   2   4
HETATM    4  O   UNK N   1      25.541  19.699   5.833  0.00  0.00    -0.307 OA
HETATM    5  H   UNK N   1      25.008  20.506   5.770  0.00  0.00     0.222 HD
ENDBRANCH   2   4
BRANCH   2   6
HETATM    6  O   UNK N   1      25.128  17.898   3.716  0.00  0.00    -0.294 OA
BRANCH   6   7
HETATM    7  C   UNK N   1      23.848  18.256   4.166  0.00  0.00     0.215 C 
BRANCH   7   8
HETATM    8  C   UNK N   1      22.974  17.016   4.382  0.00  0.00     0.180 C 
HETATM    9  C   UNK N   1      21.522  17.249   3.920  0.00  0.00     0.197 C 
HETATM   10  C   UNK N   1      20.822  16.354   4.908  0.00  0.00     0.199 C 
HETATM   11  C   UNK N   1      21.611  16.715   6.157  0.00  0.00     0.262 C 
HETATM   12  O   UNK N   1      22.960  16.667   5.758  0.00  0.00    -0.353 OA
BRANCH   9  13
HETATM   13  O   UNK N   1      21.231  16.831   2.599  0.00  0.00    -0.286 OA
BRANCH  13  14
HETATM   14  P   UNK N   1      20.329  18.055   1.725  0.00  0.00     0.391 P 
HETATM   15  O   UNK N   1      20.991  19.440   1.954  0.00  0.00    -0.632 OA
BRANCH  14  16
HETATM   16  O   UNK N   1      20.281  17.751   0.015  0.00  0.00    -0.307 OA
HETATM   17  H   UNK N   1      19.973  18.155  -0.811  0.00  0.00     0.222 HD
ENDBRANCH  14  16
BRANCH  14  18
HETATM   18  O   UNK N   1      18.715  18.183   2.347  0.00  0.00    -0.307 OA
HETATM   19  H   UNK N   1      18.148  17.400   2.417  0.00  0.00     0.222 HD
ENDBRANCH  14  18
ENDBRANCH  13  14
ENDBRANCH   9  13
BRANCH  10  20
HETATM   20  O   UNK N   1      19.458  16.640   5.008  0.00  0.00    -0.388 OA
HETATM   21  H   UNK N   1      18.719  16.504   5.621  0.00  0.00     0.210 HD
ENDBRANCH  10  20
BRANCH  11  22
HETATM   22  N   UNK N   1      21.398  15.848   7.324  0.00  0.00    -0.297 N 
HETATM   23  C   UNK N   1      20.508  16.126   8.313  0.00  0.00     0.188 A 
HETATM   24  N   UNK N   1      20.488  15.149   9.260  0.00  0.00    -0.346 N 
HETATM   25  C   UNK N   1      21.383  14.248   8.826  0.00  0.00     0.122 A 
ATOM     26  HN  UNK N   1      19.921  15.111  10.108  1.00  0.00     0.167 HD
HETATM   27  C   UNK N   1      21.751  13.033   9.380  0.00  0.00     0.131 A 
HETATM   28  C   UNK N   1      21.936  14.664   7.668  0.00  0.00     0.142 A 
HETATM   29  N   UNK N   1      22.678  12.282   8.715  0.00  0.00    -0.337 N 
HETATM   30  C   UNK N   1      23.230  12.724   7.536  0.00  0.00     0.183 A 
ATOM     31  HN  UNK N   1      22.966  11.382   9.099  1.00  0.00     0.168 HD
HETATM   32  N   UNK N   1      22.857  13.928   7.002  0.00  0.00    -0.336 N 
ATOM     33  HN  UNK N   1      23.261  14.262   6.127  1.00  0.00     0.168 HD
BRANCH  27  34
HETATM   34  N   UNK N   1      21.178  12.572  10.582  0.00  0.00    -0.383 N 
HETATM   35  H   UNK N   1      20.281  12.878  10.849  0.00  0.00     0.157 HD
HETATM   36  H   UNK N   1      21.674  11.944  11.155  0.00  0.00     0.157 HD
ENDBRANCH  27  34
ENDBRANCH  11  22
ENDBRANCH   7   8
ENDBRANCH   6   7
ENDBRANCH   2   6
ENDBRANCH   1   2
BRANCH   1  37
HETATM   37  P   UNK N   1      28.281  18.037   6.857  0.00  0.00     0.401 P 
HETATM   38  O   UNK N   1      28.216  17.391   8.267  0.00  0.00    -0.631 OA
BRANCH  37  39
HETATM   39  O   UNK N   1      28.001  19.729   7.105  0.00  0.00    -0.307 OA
HETATM   40  H   UNK N   1      27.286  20.030   7.687  0.00  0.00     0.222 HD
ENDBRANCH  37  39
BRANCH  37  41
HETATM   41  O   UNK N   1      29.882  17.705   6.250  0.00  0.00    -0.296 OA
BRANCH  41  42
HETATM   42  C   UNK N   1      30.248  16.527   6.900  0.00  0.00     0.192 C 
BRANCH  42  43
HETATM   43  C   UNK N   1      31.757  16.353   7.067  0.00  0.00     0.008 C 
HETATM   44  C   UNK N   1      32.097  14.896   6.795  0.00  0.00     0.020 C 
HETATM   45  C   UNK N   1      32.535  17.213   6.075  0.00  0.00     0.020 C 
BRANCH  43  46
HETATM   46  C   UNK N   1      32.138  16.733   8.520  0.00  0.00     0.202 C 
BRANCH  46  47
HETATM   47  C   UNK N   1      33.544  17.338   8.610  0.00  0.00     0.141 C 
HETATM   48  N   UNK N   1      34.584  16.635   8.903  0.00  0.00    -0.372 N 
ATOM     49  HN  UNK N   1      35.496  17.092   8.882  1.00  0.00     0.161 HD
BRANCH  48  50
HETATM   50  C   UNK N   1      34.526  15.243   9.258  0.00  0.00     0.129 C 
BRANCH  50  51
HETATM   51  C   UNK N   1      35.907  14.622   9.297  0.00  0.00     0.103 C 
BRANCH  51  52
HETATM   52  C   UNK N   1      36.691  14.950  10.536  0.00  0.00     0.112 C 
HETATM   53  N   UNK N   1      37.204  14.048  11.312  0.00  0.00    -0.374 N 
ATOM     54  HN  UNK N   1      37.781  14.384  12.083  1.00  0.00     0.161 HD
BRANCH  53  55
HETATM   55  C   UNK N   1      37.043  12.605  11.202  0.00  0.00     0.131 C 
BRANCH  55  56
HETATM   56  C   UNK N   1      36.316  11.911  12.362  0.00  0.00     0.093 C 
BRANCH  56  57
HETATM   57  S   UNK N   1      37.359  11.534  13.804  0.00  0.00    -0.163 SA
BRANCH  57  58
HETATM   58  C   UNK N   1      35.956  11.599  14.959  0.00  0.00     0.112 C 
BRANCH  58  59
HETATM   59  C   UNK N   1      36.003  12.776  15.885  0.00  0.00    -0.049 A 
HETATM   60  C   UNK N   1      36.838  13.849  15.562  0.00  0.00     0.011 A 
HETATM   61  C   UNK N   1      36.905  14.966  16.401  0.00  0.00     0.037 A 
HETATM   62  C   UNK N   1      36.138  15.012  17.568  0.00  0.00     0.065 A 
HETATM   63  C   UNK N   1      35.304  13.943  17.899  0.00  0.00     0.037 A 
HETATM   64  C   UNK N   1      35.234  12.830  17.060  0.00  0.00     0.011 A 
BRANCH  62  65
HETATM   65  O   UNK N   1      36.204  16.083  18.373  0.00  0.00    -0.361 OA
HETATM   66  H   UNK N   1      35.916  16.925  18.079  0.00  0.00     0.217 HD
ENDBRANCH  62  65
ENDBRANCH  58  59
ENDBRANCH  57  58
ENDBRANCH  56  57
ENDBRANCH  55  56
ENDBRANCH  53  55
BRANCH  52  67
HETATM   67  O   UNK N   1      36.901  16.247  10.823  0.00  0.00    -0.350 OA
HETATM   68  H   UNK N   1      36.504  16.984  10.403  0.00  0.00     0.219 HD
ENDBRANCH  52  67
ENDBRANCH  51  52
ENDBRANCH  50  51
ENDBRANCH  48  50
BRANCH  47  69
HETATM   69  O   UNK N   1      33.709  18.656   8.398  0.00  0.00    -0.348 OA
HETATM   70  H   UNK N   1      33.157  19.394   8.571  0.00  0.00     0.219 HD
ENDBRANCH  47  69
ENDBRANCH  46  47
BRANCH  46  71
HETATM   71  O   UNK N   1      31.222  17.660   9.025  0.00  0.00    -0.387 OA
HETATM   72  H   UNK N   1      31.030  17.806   9.964  0.00  0.00     0.210 HD
ENDBRANCH  46  71
ENDBRANCH  43  46
ENDBRANCH  42  43
ENDBRANCH  41  42
ENDBRANCH  37  41
ENDBRANCH   1  37
TORSDOF 31
ENDMDL
MODEL 4
REMARK VINA RESULT:      -8.0      5.627      7.777
REMARK  31 active torsions:
REMARK  status: ('A' for Active; 'I' for Inactive)
REMARK    1  A    between atoms: C_8  and  C_7 
REMARK    2  A    between atoms: C_19  and  C_7 
REMARK    3  A    between atoms: N_32  and  C_8 
REMARK    4  A    between atoms: C_10  and  C_9 
REMARK    5  A    between atoms: N_30  and  C_9 
REMARK    6  A    between atoms: S_61  and  C_10 
REMARK    7  A    between atoms: C_18  and  C_11 
REMARK    8  A    between atoms: O_53  and  C_11 
REMARK    9  A    between atoms: C_16  and  C_12 
REMARK   10  A    between atoms: S_61  and  C_12 
REMARK   11  A    between atoms: C_28  and  C_13 
REMARK   12  A    between atoms: O_54  and  C_13 
REMARK   13  A    between atoms: O_41  and  C_17 
REMARK   14  A    between atoms: O_42  and  C_19 
REMARK   15  A    between atoms: C_21  and  O_43 
REMARK   16  A    between atoms: C_22  and  O_56 
REMARK   17  A    between atoms: C_26  and  C_23 
REMARK   18  A    between atoms: C_28  and  C_23 
REMARK   19  A    between atoms: C_23  and  O_44 
REMARK   20  A    between atoms: N_29  and  C_24 
REMARK   21  A    between atoms: O_45  and  C_26 
REMARK   22  A    between atoms: C_27  and  N_40 
REMARK   23  A    between atoms: P_58  and  O_46 
REMARK   24  A    between atoms: P_58  and  O_47 
REMARK   25  A    between atoms: P_59  and  O_49 
REMARK   26  A    between atoms: P_60  and  O_51 
REMARK   27  A    between atoms: P_59  and  O_53 
REMARK   28  A    between atoms: P_60  and  O_54 
REMARK   29  A    between atoms: P_58  and  O_56 
REMARK   30  A    between atoms: P_59  and  O_57 
REMARK   31  A    between atoms: P_60  and  O_57 
ROOT
HETATM    1  O   UNK N   1      20.944  14.656   2.991  0.00  0.00    -0.195 OA
ENDROOT
BRANCH   1   2
HETATM    2  P   UNK N   1      19.503  13.771   3.436  0.00  0.00     0.401 P 
HETATM    3  O   UNK N   1      19.845  12.264   3.566  0.00  0.00    -0.631 OA
BRANCH   2   4
HETATM    4  O   UNK N   1      18.389  13.865   2.107  0.00  0.00    -0.307 OA
HETATM    5  H   UNK N   1      17.565  14.294   1.829  0.00  0.00     0.222 HD
ENDBRANCH   2   4
BRANCH   2   6
HETATM    6  O   UNK N   1      18.669  14.333   4.864  0.00  0.00    -0.294 OA
BRANCH   6   7
HETATM    7  C   UNK N   1      18.814  15.726   4.954  0.00  0.00     0.215 C 
BRANCH   7   8
HETATM    8  C   UNK N   1      19.661  16.114   6.170  0.00  0.00     0.180 C 
HETATM    9  C   UNK N   1      21.091  16.526   5.768  0.00  0.00     0.197 C 
HETATM   10  C   UNK N   1      21.818  16.058   7.000  0.00  0.00     0.199 C 
HETATM   11  C   UNK N   1      21.114  14.726   7.202  0.00  0.00     0.262 C 
HETATM   12  O   UNK N   1      19.743  15.019   7.070  0.00  0.00    -0.353 OA
BRANCH   9  13
HETATM   13  O   UNK N   1      21.293  17.915   5.585  0.00  0.00    -0.286 OA
BRANCH  13  14
HETATM   14  P   UNK N   1      22.617  18.230   4.480  0.00  0.00     0.391 P 
HETATM   15  O   UNK N   1      22.250  19.431   3.570  0.00  0.00    -0.632 OA
BRANCH  14  16
HETATM   16  O   UNK N   1      24.099  18.604   5.306  0.00  0.00    -0.307 OA
HETATM   17  H   UNK N   1      24.817  19.256   5.302  0.00  0.00     0.222 HD
ENDBRANCH  14  16
BRANCH  14  18
HETATM   18  O   UNK N   1      22.859  16.878   3.419  0.00  0.00    -0.307 OA
HETATM   19  H   UNK N   1      23.052  15.997   3.776  0.00  0.00     0.222 HD
ENDBRANCH  14  18
ENDBRANCH  13  14
ENDBRANCH   9  13
BRANCH  10  20
HETATM   20  O   UNK N   1      23.194  15.934   6.788  0.00  0.00    -0.388 OA
HETATM   21  H   UNK N   1      23.978  15.569   7.226  0.00  0.00     0.210 HD
ENDBRANCH  10  20
BRANCH  11  22
HETATM   22  N   UNK N   1      21.366  14.053   8.482  0.00  0.00    -0.297 N 
HETATM   23  C   UNK N   1      20.406  13.845   9.423  0.00  0.00     0.188 A 
HETATM   24  N   UNK N   1      20.897  13.176  10.502  0.00  0.00    -0.346 N 
HETATM   25  C   UNK N   1      22.188  12.963  10.202  0.00  0.00     0.122 A 
ATOM     26  HN  UNK N   1      20.396  12.899  11.347  1.00  0.00     0.167 HD
HETATM   27  C   UNK N   1      23.164  12.299  10.926  0.00  0.00     0.131 A 
HETATM   28  C   UNK N   1      22.476  13.492   8.995  0.00  0.00     0.142 A 
HETATM   29  N   UNK N   1      24.410  12.198  10.376  0.00  0.00    -0.337 N 
HETATM   30  C   UNK N   1      24.684  12.743   9.144  0.00  0.00     0.183 A 
ATOM     31  HN  UNK N   1      25.148  11.712  10.885  1.00  0.00     0.168 HD
HETATM   32  N   UNK N   1      23.708  13.398   8.441  0.00  0.00    -0.336 N 
ATOM     33  HN  UNK N   1      23.903  13.804   7.525  1.00  0.00     0.168 HD
BRANCH  27  34
HETATM   34  N   UNK N   1      22.883  11.729  12.184  0.00  0.00    -0.383 N 
HETATM   35  H   UNK N   1      23.307  12.093  12.995  0.00  0.00     0.157 HD
HETATM   36  H   UNK N   1      22.264  10.968  12.252  0.00  0.00     0.157 HD
ENDBRANCH  27  34
ENDBRANCH  11  22
ENDBRANCH   7   8
ENDBRANCH   6   7
ENDBRANCH   2   6
ENDBRANCH   1   2
BRANCH   1  37
HETATM   37  P   UNK N   1      21.774  13.782   1.726  0.00  0.00     0.401 P 
HETATM   38  O   UNK N   1      22.501  14.857   0.876  0.00  0.00    -0.631 OA
BRANCH  37  39
HETATM   39  O   UNK N   1      20.667  13.000   0.645  0.00  0.00    -0.307 OA
HETATM   40  H   UNK N   1      20.994  12.522  -0.133  0.00  0.00     0.222 HD
ENDBRANCH  37  39
BRANCH  37  41
HETATM   41  O   UNK N   1      23.017  12.704   2.304  0.00  0.00    -0.296 OA
BRANCH  41  42
HETATM   42  C   UNK N   1      23.667  13.445   3.290  0.00  0.00     0.192 C 
BRANCH  42  43
HETATM   43  C   UNK N   1      25.191  13.352   3.232  0.00  0.00     0.008 C 
HETATM   44  C   UNK N   1      25.563  11.926   2.855  0.00  0.00     0.020 C 
HETATM   45  C   UNK N   1      25.771  14.287   2.175  0.00  0.00     0.020 C 
BRANCH  43  46
HETATM   46  C   UNK N   1      25.759  13.705   4.630  0.00  0.00     0.202 C 
BRANCH  46  47
HETATM   47  C   UNK N   1      26.299  15.139   4.690  0.00  0.00     0.141 C 
HETATM   48  N   UNK N   1      27.555  15.411   4.595  0.00  0.00    -0.372 N 
ATOM     49  HN  UNK N   1      27.837  16.392   4.578  1.00  0.00     0.161 HD
BRANCH  48  50
HETATM   50  C   UNK N   1      28.581  14.406   4.511  0.00  0.00     0.129 C 
BRANCH  50  51
HETATM   51  C   UNK N   1      29.494  14.642   3.325  0.00  0.00     0.103 C 
BRANCH  51  52
HETATM   52  C   UNK N   1      30.098  16.017   3.282  0.00  0.00     0.112 C 
HETATM   53  N   UNK N   1      31.351  16.250   3.514  0.00  0.00    -0.374 N 
ATOM     54  HN  UNK N   1      31.668  17.210   3.382  1.00  0.00     0.161 HD
BRANCH  53  55
HETATM   55  C   UNK N   1      32.355  15.288   3.944  0.00  0.00     0.131 C 
BRANCH  55  56
HETATM   56  C   UNK N   1      33.522  15.845   4.771  0.00  0.00     0.093 C 
BRANCH  56  57
HETATM   57  S   UNK N   1      33.172  17.409   5.632  0.00  0.00    -0.163 SA
BRANCH  57  58
HETATM   58  C   UNK N   1      32.455  16.567   7.076  0.00  0.00     0.112 C 
BRANCH  58  59
HETATM   59  C   UNK N   1      31.190  17.204   7.568  0.00  0.00    -0.049 A 
HETATM   60  C   UNK N   1      30.005  16.966   6.866  0.00  0.00     0.011 A 
HETATM   61  C   UNK N   1      28.805  17.541   7.298  0.00  0.00     0.037 A 
HETATM   62  C   UNK N   1      28.788  18.357   8.432  0.00  0.00     0.065 A 
HETATM   63  C   UNK N   1      29.969  18.601   9.136  0.00  0.00     0.037 A 
HETATM   64  C   UNK N   1      31.165  18.024   8.708  0.00  0.00     0.011 A 
BRANCH  62  65
HETATM   65  O   UNK N   1      27.637  18.909   8.845  0.00  0.00    -0.361 OA
HETATM   66  H   UNK N   1      27.120  19.435   8.267  0.00  0.00     0.217 HD
ENDBRANCH  62  65
ENDBRANCH  58  59
ENDBRANCH  57  58
ENDBRANCH  56  57
ENDBRANCH  55  56
ENDBRANCH  53  55
BRANCH  52  67
HETATM   67  O   UNK N   1      29.299  17.045   2.945  0.00  0.00    -0.350 OA
HETATM   68  H   UNK N   1      28.656  17.053   2.263  0.00  0.00     0.219 HD
ENDBRANCH  52  67
ENDBRANCH  51  52
ENDBRANCH  50  51
ENDBRANCH  48  50
BRANCH  47  69
HETATM   69  O   UNK N   1      25.441  16.160   4.870  0.00  0.00    -0.348 OA
HETATM   70  H   UNK N   1      24.508  16.188   4.948  0.00  0.00     0.219 HD
ENDBRANCH  47  69
ENDBRANCH  46  47
BRANCH  46  71
HETATM   71  O   UNK N   1      24.760  13.566   5.598  0.00  0.00    -0.387 OA
HETATM   72  H   UNK N   1      24.011  12.953   5.550  0.00  0.00     0.210 HD
ENDBRANCH  46  71
ENDBRANCH  43  46
ENDBRANCH  42  43
ENDBRANCH  41  42
ENDBRANCH  37  41
ENDBRANCH   1  37
TORSDOF 31
ENDMDL
MODEL 5
REMARK VINA RESULT:      -8.0      1.491      2.079
REMARK  31 active torsions:
REMARK  status: ('A' for Active; 'I' for Inactive)
REMARK    1  A    between atoms: C_8  and  C_7 
REMARK    2  A    between atoms: C_19  and  C_7 
REMARK    3  A    between atoms: N_32  and  C_8 
REMARK    4  A    between atoms: C_10  and  C_9 
REMARK    5  A    between atoms: N_30  and  C_9 
REMARK    6  A    between atoms: S_61  and  C_10 
REMARK    7  A    between atoms: C_18  and  C_11 
REMARK    8  A    between atoms: O_53  and  C_11 
REMARK    9  A    between atoms: C_16  and  C_12 
REMARK   10  A    between atoms: S_61  and  C_12 
REMARK   11  A    between atoms: C_28  and  C_13 
REMARK   12  A    between atoms: O_54  and  C_13 
REMARK   13  A    between atoms: O_41  and  C_17 
REMARK   14  A    between atoms: O_42  and  C_19 
REMARK   15  A    between atoms: C_21  and  O_43 
REMARK   16  A    between atoms: C_22  and  O_56 
REMARK   17  A    between atoms: C_26  and  C_23 
REMARK   18  A    between atoms: C_28  and  C_23 
REMARK   19  A    between atoms: C_23  and  O_44 
REMARK   20  A    between atoms: N_29  and  C_24 
REMARK   21  A    between atoms: O_45  and  C_26 
REMARK   22  A    between atoms: C_27  and  N_40 
REMARK   23  A    between atoms: P_58  and  O_46 
REMARK   24  A    between atoms: P_58  and  O_47 
REMARK   25  A    between atoms: P_59  and  O_49 
REMARK   26  A    between atoms: P_60  and  O_51 
REMARK   27  A    between atoms: P_59  and  O_53 
REMARK   28  A    between atoms: P_60  and  O_54 
REMARK   29  A    between atoms: P_58  and  O_56 
REMARK   30  A    between atoms: P_59  and  O_57 
REMARK   31  A    between atoms: P_60  and  O_57 
ROOT
HETATM    1  O   UNK N   1      27.634  16.481   5.826  0.00  0.00    -0.195 OA
ENDROOT
BRANCH   1   2
HETATM    2  P   UNK N   1      26.447  16.559   4.544  0.00  0.00     0.401 P 
HETATM    3  O   UNK N   1      26.753  15.461   3.492  0.00  0.00    -0.631 OA
BRANCH   2   4
HETATM    4  O   UNK N   1      26.670  18.061   3.701  0.00  0.00    -0.307 OA
HETATM    5  H   UNK N   1      27.286  18.523   3.112  0.00  0.00     0.222 HD
ENDBRANCH   2   4
BRANCH   2   6
HETATM    6  O   UNK N   1      24.775  16.478   5.043  0.00  0.00    -0.294 OA
BRANCH   6   7
HETATM    7  C   UNK N   1      24.306  15.170   4.846  0.00  0.00     0.215 C 
BRANCH   7   8
HETATM    8  C   UNK N   1      22.853  15.030   5.309  0.00  0.00     0.180 C 
HETATM    9  C   UNK N   1      22.155  16.399   5.434  0.00  0.00     0.197 C 
HETATM   10  C   UNK N   1      21.216  16.074   6.566  0.00  0.00     0.199 C 
HETATM   11  C   UNK N   1      22.170  15.284   7.447  0.00  0.00     0.262 C 
HETATM   12  O   UNK N   1      22.808  14.384   6.572  0.00  0.00    -0.353 OA
BRANCH   9  13
HETATM   13  O   UNK N   1      21.418  16.810   4.297  0.00  0.00    -0.286 OA
BRANCH  13  14
HETATM   14  P   UNK N   1      21.714  18.496   3.918  0.00  0.00     0.391 P 
HETATM   15  O   UNK N   1      21.104  18.824   2.529  0.00  0.00    -0.632 OA
BRANCH  14  16
HETATM   16  O   UNK N   1      21.017  19.574   5.088  0.00  0.00    -0.307 OA
HETATM   17  H   UNK N   1      20.178  20.016   5.296  0.00  0.00     0.222 HD
ENDBRANCH  14  16
BRANCH  14  18
HETATM   18  O   UNK N   1      23.417  18.799   3.779  0.00  0.00    -0.307 OA
HETATM   19  H   UNK N   1      23.799  19.104   2.942  0.00  0.00     0.222 HD
ENDBRANCH  14  18
ENDBRANCH  13  14
ENDBRANCH   9  13
BRANCH  10  20
HETATM   20  O   UNK N   1      20.711  17.223   7.181  0.00  0.00    -0.388 OA
HETATM   21  H   UNK N   1      20.700  17.650   8.051  0.00  0.00     0.210 HD
ENDBRANCH  10  20
BRANCH  11  22
HETATM   22  N   UNK N   1      21.556  14.554   8.564  0.00  0.00    -0.297 N 
HETATM   23  C   UNK N   1      20.274  14.746   8.972  0.00  0.00     0.188 A 
HETATM   24  N   UNK N   1      19.947  13.925  10.007  0.00  0.00    -0.346 N 
HETATM   25  C   UNK N   1      21.060  13.207  10.225  0.00  0.00     0.122 A 
ATOM     26  HN  UNK N   1      19.057  13.869  10.504  1.00  0.00     0.167 HD
HETATM   27  C   UNK N   1      21.292  12.194  11.141  0.00  0.00     0.131 A 
HETATM   28  C   UNK N   1      22.030  13.583   9.366  0.00  0.00     0.142 A 
HETATM   29  N   UNK N   1      22.520  11.599  11.139  0.00  0.00    -0.337 N 
HETATM   30  C   UNK N   1      23.496  11.997  10.255  0.00  0.00     0.183 A 
ATOM     31  HN  UNK N   1      22.718  10.849  11.801  1.00  0.00     0.168 HD
HETATM   32  N   UNK N   1      23.252  13.000   9.356  0.00  0.00    -0.336 N 
ATOM     33  HN  UNK N   1      23.970  13.300   8.696  1.00  0.00     0.168 HD
BRANCH  27  34
HETATM   34  N   UNK N   1      20.290  11.776  12.040  0.00  0.00    -0.383 N 
HETATM   35  H   UNK N   1      20.173  10.818  12.236  0.00  0.00     0.157 HD
HETATM   36  H   UNK N   1      19.707  12.441  12.471  0.00  0.00     0.157 HD
ENDBRANCH  27  34
ENDBRANCH  11  22
ENDBRANCH   7   8
ENDBRANCH   6   7
ENDBRANCH   2   6
ENDBRANCH   1   2
BRANCH   1  37
HETATM   37  P   UNK N   1      28.738  17.824   5.652  0.00  0.00     0.401 P 
HETATM   38  O   UNK N   1      27.886  19.103   5.868  0.00  0.00    -0.631 OA
BRANCH  37  39
HETATM   39  O   UNK N   1      29.365  17.946   4.040  0.00  0.00    -0.307 OA
HETATM   40  H   UNK N   1      28.864  17.588   3.290  0.00  0.00     0.222 HD
ENDBRANCH  37  39
BRANCH  37  41
HETATM   41  O   UNK N   1      29.994  17.873   6.863  0.00  0.00    -0.296 OA
BRANCH  41  42
HETATM   42  C   UNK N   1      30.424  16.549   6.948  0.00  0.00     0.192 C 
BRANCH  42  43
HETATM   43  C   UNK N   1      31.940  16.383   6.845  0.00  0.00     0.008 C 
HETATM   44  C   UNK N   1      32.233  14.924   6.528  0.00  0.00     0.020 C 
HETATM   45  C   UNK N   1      32.524  17.236   5.723  0.00  0.00     0.020 C 
BRANCH  43  46
HETATM   46  C   UNK N   1      32.572  16.775   8.204  0.00  0.00     0.202 C 
BRANCH  46  47
HETATM   47  C   UNK N   1      34.087  16.983   8.098  0.00  0.00     0.141 C 
HETATM   48  N   UNK N   1      34.937  16.161   8.611  0.00  0.00    -0.372 N 
ATOM     49  HN  UNK N   1      35.930  16.328   8.447  1.00  0.00     0.161 HD
BRANCH  48  50
HETATM   50  C   UNK N   1      34.560  15.021   9.403  0.00  0.00     0.129 C 
BRANCH  50  51
HETATM   51  C   UNK N   1      34.698  15.303  10.885  0.00  0.00     0.103 C 
BRANCH  51  52
HETATM   52  C   UNK N   1      36.114  15.257  11.386  0.00  0.00     0.112 C 
HETATM   53  N   UNK N   1      36.551  14.345  12.196  0.00  0.00    -0.374 N 
ATOM     54  HN  UNK N   1      37.548  14.365  12.410  1.00  0.00     0.161 HD
BRANCH  53  55
HETATM   55  C   UNK N   1      35.771  13.295  12.835  0.00  0.00     0.131 C 
BRANCH  55  56
HETATM   56  C   UNK N   1      36.329  11.869  12.725  0.00  0.00     0.093 C 
BRANCH  56  57
HETATM   57  S   UNK N   1      36.396  10.950  14.294  0.00  0.00    -0.163 SA
BRANCH  57  58
HETATM   58  C   UNK N   1      34.971  11.840  14.989  0.00  0.00     0.112 C 
BRANCH  58  59
HETATM   59  C   UNK N   1      35.108  12.130  16.453  0.00  0.00    -0.049 A 
HETATM   60  C   UNK N   1      35.292  11.060  17.333  0.00  0.00     0.011 A 
HETATM   61  C   UNK N   1      35.428  11.292  18.705  0.00  0.00     0.037 A 
HETATM   62  C   UNK N   1      35.377  12.597  19.202  0.00  0.00     0.065 A 
HETATM   63  C   UNK N   1      35.191  13.671  18.330  0.00  0.00     0.037 A 
HETATM   64  C   UNK N   1      35.061  13.439  16.960  0.00  0.00     0.011 A 
BRANCH  62  65
HETATM   65  O   UNK N   1      35.507  12.819  20.519  0.00  0.00    -0.361 OA
HETATM   66  H   UNK N   1      35.671  13.681  20.849  0.00  0.00     0.217 HD
ENDBRANCH  62  65
ENDBRANCH  58  59
ENDBRANCH  57  58
ENDBRANCH  56  57
ENDBRANCH  55  56
ENDBRANCH  53  55
BRANCH  52  67
HETATM   67  O   UNK N   1      36.973  16.187  10.934  0.00  0.00    -0.350 OA
HETATM   68  H   UNK N   1      37.907  16.166  11.001  0.00  0.00     0.219 HD
ENDBRANCH  52  67
ENDBRANCH  51  52
ENDBRANCH  50  51
ENDBRANCH  48  50
BRANCH  47  69
HETATM   69  O   UNK N   1      34.561  18.072   7.467  0.00  0.00    -0.348 OA
HETATM   70  H   UNK N   1      34.398  18.424   6.613  0.00  0.00     0.219 HD
ENDBRANCH  47  69
ENDBRANCH  46  47
BRANCH  46  71
HETATM   71  O   UNK N   1      31.994  17.958   8.673  0.00  0.00    -0.387 OA
HETATM   72  H   UNK N   1      31.559  18.628   8.124  0.00  0.00     0.210 HD
ENDBRANCH  46  71
ENDBRANCH  43  46
ENDBRANCH  42  43
ENDBRANCH  41  42
ENDBRANCH  37  41
ENDBRANCH   1  37
TORSDOF 31
ENDMDL
MODEL 6
REMARK VINA RESULT:      -7.9      4.469     12.498
REMARK  31 active torsions:
REMARK  status: ('A' for Active; 'I' for Inactive)
REMARK    1  A    between atoms: C_8  and  C_7 
REMARK    2  A    between atoms: C_19  and  C_7 
REMARK    3  A    between atoms: N_32  and  C_8 
REMARK    4  A    between atoms: C_10  and  C_9 
REMARK    5  A    between atoms: N_30  and  C_9 
REMARK    6  A    between atoms: S_61  and  C_10 
REMARK    7  A    between atoms: C_18  and  C_11 
REMARK    8  A    between atoms: O_53  and  C_11 
REMARK    9  A    between atoms: C_16  and  C_12 
REMARK   10  A    between atoms: S_61  and  C_12 
REMARK   11  A    between atoms: C_28  and  C_13 
REMARK   12  A    between atoms: O_54  and  C_13 
REMARK   13  A    between atoms: O_41  and  C_17 
REMARK   14  A    between atoms: O_42  and  C_19 
REMARK   15  A    between atoms: C_21  and  O_43 
REMARK   16  A    between atoms: C_22  and  O_56 
REMARK   17  A    between atoms: C_26  and  C_23 
REMARK   18  A    between atoms: C_28  and  C_23 
REMARK   19  A    between atoms: C_23  and  O_44 
REMARK   20  A    between atoms: N_29  and  C_24 
REMARK   21  A    between atoms: O_45  and  C_26 
REMARK   22  A    between atoms: C_27  and  N_40 
REMARK   23  A    between atoms: P_58  and  O_46 
REMARK   24  A    between atoms: P_58  and  O_47 
REMARK   25  A    between atoms: P_59  and  O_49 
REMARK   26  A    between atoms: P_60  and  O_51 
REMARK   27  A    between atoms: P_59  and  O_53 
REMARK   28  A    between atoms: P_60  and  O_54 
REMARK   29  A    between atoms: P_58  and  O_56 
REMARK   30  A    between atoms: P_59  and  O_57 
REMARK   31  A    between atoms: P_60  and  O_57 
ROOT
HETATM    1  O   UNK N   1      30.079  14.939   5.771  0.00  0.00    -0.195 OA
ENDROOT
BRANCH   1   2
HETATM    2  P   UNK N   1      31.744  15.146   6.266  0.00  0.00     0.401 P 
HETATM    3  O   UNK N   1      32.316  16.435   5.620  0.00  0.00    -0.631 OA
BRANCH   2   4
HETATM    4  O   UNK N   1      32.670  13.849   5.576  0.00  0.00    -0.307 OA
HETATM    5  H   UNK N   1      33.579  13.521   5.487  0.00  0.00     0.222 HD
ENDBRANCH   2   4
BRANCH   2   6
HETATM    6  O   UNK N   1      32.037  15.144   7.989  0.00  0.00    -0.294 OA
BRANCH   6   7
HETATM    7  C   UNK N   1      33.185  14.382   8.252  0.00  0.00     0.215 C 
BRANCH   7   8
HETATM    8  C   UNK N   1      33.753  14.702   9.638  0.00  0.00     0.180 C 
HETATM    9  C   UNK N   1      34.888  15.743   9.568  0.00  0.00     0.197 C 
HETATM   10  C   UNK N   1      35.707  15.266  10.737  0.00  0.00     0.199 C 
HETATM   11  C   UNK N   1      35.623  13.768  10.492  0.00  0.00     0.262 C 
HETATM   12  O   UNK N   1      34.261  13.520  10.237  0.00  0.00    -0.353 OA
BRANCH   9  13
HETATM   13  O   UNK N   1      34.492  17.087   9.771  0.00  0.00    -0.286 OA
BRANCH  13  14
HETATM   14  P   UNK N   1      34.280  17.929   8.247  0.00  0.00     0.391 P 
HETATM   15  O   UNK N   1      35.026  19.289   8.306  0.00  0.00    -0.632 OA
BRANCH  14  16
HETATM   16  O   UNK N   1      34.898  17.027   6.897  0.00  0.00    -0.307 OA
HETATM   17  H   UNK N   1      35.052  17.115   5.944  0.00  0.00     0.222 HD
ENDBRANCH  14  16
BRANCH  14  18
HETATM   18  O   UNK N   1      32.607  18.308   7.988  0.00  0.00    -0.307 OA
HETATM   19  H   UNK N   1      31.980  18.315   8.728  0.00  0.00     0.222 HD
ENDBRANCH  14  18
ENDBRANCH  13  14
ENDBRANCH   9  13
BRANCH  10  20
HETATM   20  O   UNK N   1      37.013  15.763  10.707  0.00  0.00    -0.388 OA
HETATM   21  H   UNK N   1      37.656  16.109  10.069  0.00  0.00     0.210 HD
ENDBRANCH  10  20
BRANCH  11  22
HETATM   22  N   UNK N   1      36.097  12.910  11.586  0.00  0.00    -0.297 N 
HETATM   23  C   UNK N   1      37.300  13.071  12.199  0.00  0.00     0.188 A 
HETATM   24  N   UNK N   1      37.481  12.164  13.197  0.00  0.00    -0.346 N 
HETATM   25  C   UNK N   1      36.351  11.440  13.196  0.00  0.00     0.122 A 
ATOM     26  HN  UNK N   1      38.292  12.059  13.807  1.00  0.00     0.167 HD
HETATM   27  C   UNK N   1      35.971  10.396  14.023  0.00  0.00     0.131 A 
HETATM   28  C   UNK N   1      35.519  11.880  12.229  0.00  0.00     0.142 A 
HETATM   29  N   UNK N   1      34.739   9.841  13.827  0.00  0.00    -0.337 N 
HETATM   30  C   UNK N   1      33.906  10.303  12.836  0.00  0.00     0.183 A 
ATOM     31  HN  UNK N   1      34.432   9.072  14.423  1.00  0.00     0.168 HD
HETATM   32  N   UNK N   1      34.296  11.335  12.025  0.00  0.00    -0.336 N 
ATOM     33  HN  UNK N   1      33.683  11.684  11.288  1.00  0.00     0.168 HD
BRANCH  27  34
HETATM   34  N   UNK N   1      36.818   9.928  15.048  0.00  0.00    -0.383 N 
HETATM   35  H   UNK N   1      36.456   9.764  15.949  0.00  0.00     0.157 HD
HETATM   36  H   UNK N   1      37.771   9.765  14.863  0.00  0.00     0.157 HD
ENDBRANCH  27  34
ENDBRANCH  11  22
ENDBRANCH   7   8
ENDBRANCH   6   7
ENDBRANCH   2   6
ENDBRANCH   1   2
BRANCH   1  37
HETATM   37  P   UNK N   1      29.211  16.424   6.082  0.00  0.00     0.401 P 
HETATM   38  O   UNK N   1      29.332  17.263   4.783  0.00  0.00    -0.631 OA
BRANCH  37  39
HETATM   39  O   UNK N   1      29.966  17.369   7.323  0.00  0.00    -0.307 OA
HETATM   40  H   UNK N   1      29.675  17.292   8.245  0.00  0.00     0.222 HD
ENDBRANCH  37  39
BRANCH  37  41
HETATM   41  O   UNK N   1      27.502  16.203   6.356  0.00  0.00    -0.296 OA
BRANCH  41  42
HETATM   42  C   UNK N   1      27.098  15.391   5.297  0.00  0.00     0.192 C 
BRANCH  42  43
HETATM   43  C   UNK N   1      25.628  15.556   4.915  0.00  0.00     0.008 C 
HETATM   44  C   UNK N   1      25.212  14.338   4.103  0.00  0.00     0.020 C 
HETATM   45  C   UNK N   1      24.732  15.630   6.148  0.00  0.00     0.020 C 
BRANCH  43  46
HETATM   46  C   UNK N   1      25.481  16.844   4.067  0.00  0.00     0.202 C 
BRANCH  46  47
HETATM   47  C   UNK N   1      24.988  18.032   4.901  0.00  0.00     0.141 C 
HETATM   48  N   UNK N   1      23.783  18.483   4.820  0.00  0.00    -0.372 N 
ATOM     49  HN  UNK N   1      23.506  19.236   5.451  1.00  0.00     0.161 HD
BRANCH  48  50
HETATM   50  C   UNK N   1      22.810  17.983   3.887  0.00  0.00     0.129 C 
BRANCH  50  51
HETATM   51  C   UNK N   1      21.399  18.141   4.418  0.00  0.00     0.103 C 
BRANCH  51  52
HETATM   52  C   UNK N   1      21.219  17.655   5.828  0.00  0.00     0.112 C 
HETATM   53  N   UNK N   1      20.974  16.419   6.127  0.00  0.00    -0.374 N 
ATOM     54  HN  UNK N   1      20.947  16.187   7.120  1.00  0.00     0.161 HD
BRANCH  53  55
HETATM   55  C   UNK N   1      20.733  15.324   5.198  0.00  0.00     0.131 C 
BRANCH  55  56
HETATM   56  C   UNK N   1      21.464  14.007   5.492  0.00  0.00     0.093 C 
BRANCH  56  57
HETATM   57  S   UNK N   1      21.014  13.216   7.067  0.00  0.00    -0.163 SA
BRANCH  57  58
HETATM   58  C   UNK N   1      22.721  12.685   7.400  0.00  0.00     0.112 C 
BRANCH  58  59
HETATM   59  C   UNK N   1      23.016  12.511   8.859  0.00  0.00    -0.049 A 
HETATM   60  C   UNK N   1      24.350  12.456   9.271  0.00  0.00     0.011 A 
HETATM   61  C   UNK N   1      24.663  12.299  10.625  0.00  0.00     0.037 A 
HETATM   62  C   UNK N   1      23.640  12.193  11.572  0.00  0.00     0.065 A 
HETATM   63  C   UNK N   1      22.305  12.245  11.168  0.00  0.00     0.037 A 
HETATM   64  C   UNK N   1      21.993  12.407   9.817  0.00  0.00     0.011 A 
BRANCH  62  65
HETATM   65  O   UNK N   1      23.941  12.041  12.870  0.00  0.00    -0.361 OA
HETATM   66  H   UNK N   1      24.132  12.782  13.410  0.00  0.00     0.217 HD
ENDBRANCH  62  65
ENDBRANCH  58  59
ENDBRANCH  57  58
ENDBRANCH  56  57
ENDBRANCH  55  56
ENDBRANCH  53  55
BRANCH  52  67
HETATM   67  O   UNK N   1      21.361  18.547   6.825  0.00  0.00    -0.350 OA
HETATM   68  H   UNK N   1      20.841  19.313   6.968  0.00  0.00     0.219 HD
ENDBRANCH  52  67
ENDBRANCH  51  52
ENDBRANCH  50  51
ENDBRANCH  48  50
BRANCH  47  69
HETATM   69  O   UNK N   1      25.841  18.651   5.737  0.00  0.00    -0.348 OA
HETATM   70  H   UNK N   1      26.612  18.354   6.180  0.00  0.00     0.219 HD
ENDBRANCH  47  69
ENDBRANCH  46  47
BRANCH  46  71
HETATM   71  O   UNK N   1      26.713  17.182   3.499  0.00  0.00    -0.387 OA
HETATM   72  H   UNK N   1      27.407  17.703   3.930  0.00  0.00     0.210 HD
ENDBRANCH  46  71
ENDBRANCH  43  46
ENDBRANCH  42  43
ENDBRANCH  41  42
ENDBRANCH  37  41
ENDBRANCH   1  37
TORSDOF 31
ENDMDL
MODEL 7
REMARK VINA RESULT:      -7.9      5.209      9.098
REMARK  31 active torsions:
REMARK  status: ('A' for Active; 'I' for Inactive)
REMARK    1  A    between atoms: C_8  and  C_7 
REMARK    2  A    between atoms: C_19  and  C_7 
REMARK    3  A    between atoms: N_32  and  C_8 
REMARK    4  A    between atoms: C_10  and  C_9 
REMARK    5  A    between atoms: N_30  and  C_9 
REMARK    6  A    between atoms: S_61  and  C_10 
REMARK    7  A    between atoms: C_18  and  C_11 
REMARK    8  A    between atoms: O_53  and  C_11 
REMARK    9  A    between atoms: C_16  and  C_12 
REMARK   10  A    between atoms: S_61  and  C_12 
REMARK   11  A    between atoms: C_28  and  C_13 
REMARK   12  A    between atoms: O_54  and  C_13 
REMARK   13  A    between atoms: O_41  and  C_17 
REMARK   14  A    between atoms: O_42  and  C_19 
REMARK   15  A    between atoms: C_21  and  O_43 
REMARK   16  A    between atoms: C_22  and  O_56 
REMARK   17  A    between atoms: C_26  and  C_23 
REMARK   18  A    between atoms: C_28  and  C_23 
REMARK   19  A    between atoms: C_23  and  O_44 
REMARK   20  A    between atoms: N_29  and  C_24 
REMARK   21  A    between atoms: O_45  and  C_26 
REMARK   22  A    between atoms: C_27  and  N_40 
REMARK   23  A    between atoms: P_58  and  O_46 
REMARK   24  A    between atoms: P_58  and  O_47 
REMARK   25  A    between atoms: P_59  and  O_49 
REMARK   26  A    between atoms: P_60  and  O_51 
REMARK   27  A    between atoms: P_59  and  O_53 
REMARK   28  A    between atoms: P_60  and  O_54 
REMARK   29  A    between atoms: P_58  and  O_56 
REMARK   30  A    between atoms: P_59  and  O_57 
REMARK   31  A    between atoms: P_60  and  O_57 
ROOT
HETATM    1  O   UNK N   1      29.862  15.355   4.771  0.00  0.00    -0.195 OA
ENDROOT
BRANCH   1   2
HETATM    2  P   UNK N   1      28.859  14.690   3.502  0.00  0.00     0.401 P 
HETATM    3  O   UNK N   1      29.756  14.243   2.318  0.00  0.00    -0.631 OA
BRANCH   2   4
HETATM    4  O   UNK N   1      27.884  15.977   2.864  0.00  0.00    -0.307 OA
HETATM    5  H   UNK N   1      27.546  16.861   3.080  0.00  0.00     0.222 HD
ENDBRANCH   2   4
BRANCH   2   6
HETATM    6  O   UNK N   1      27.782  13.398   3.974  0.00  0.00    -0.294 OA
BRANCH   6   7
HETATM    7  C   UNK N   1      27.078  13.792   5.123  0.00  0.00     0.215 C 
BRANCH   7   8
HETATM    8  C   UNK N   1      25.790  12.980   5.285  0.00  0.00     0.180 C 
HETATM    9  C   UNK N   1      24.606  13.623   4.536  0.00  0.00     0.197 C 
HETATM   10  C   UNK N   1      23.494  13.191   5.454  0.00  0.00     0.199 C 
HETATM   11  C   UNK N   1      24.173  13.450   6.789  0.00  0.00     0.262 C 
HETATM   12  O   UNK N   1      25.453  12.879   6.660  0.00  0.00    -0.353 OA
BRANCH   9  13
HETATM   13  O   UNK N   1      24.375  13.129   3.230  0.00  0.00    -0.286 OA
BRANCH  13  14
HETATM   14  P   UNK N   1      24.092  14.434   2.093  0.00  0.00     0.391 P 
HETATM   15  O   UNK N   1      25.310  15.395   2.103  0.00  0.00    -0.632 OA
BRANCH  14  16
HETATM   16  O   UNK N   1      23.863  13.862   0.468  0.00  0.00    -0.307 OA
HETATM   17  H   UNK N   1      23.341  13.217  -0.034  0.00  0.00     0.222 HD
ENDBRANCH  14  16
BRANCH  14  18
HETATM   18  O   UNK N   1      22.725  15.383   2.582  0.00  0.00    -0.307 OA
HETATM   19  H   UNK N   1      22.036  15.003   3.149  0.00  0.00     0.222 HD
ENDBRANCH  14  18
ENDBRANCH  13  14
ENDBRANCH   9  13
BRANCH  10  20
HETATM   20  O   UNK N   1      22.330  13.941   5.265  0.00  0.00    -0.388 OA
HETATM   21  H   UNK N   1      21.852  14.677   5.677  0.00  0.00     0.210 HD
ENDBRANCH  10  20
BRANCH  11  22
HETATM   22  N   UNK N   1      23.493  12.904   7.972  0.00  0.00    -0.297 N 
HETATM   23  C   UNK N   1      23.969  11.855   8.694  0.00  0.00     0.188 A 
HETATM   24  N   UNK N   1      23.164  11.568   9.753  0.00  0.00    -0.346 N 
HETATM   25  C   UNK N   1      22.179  12.476   9.678  0.00  0.00     0.122 A 
ATOM     26  HN  UNK N   1      23.284  10.829  10.448  1.00  0.00     0.167 HD
HETATM   27  C   UNK N   1      21.097  12.676  10.518  0.00  0.00     0.131 A 
HETATM   28  C   UNK N   1      22.368  13.277   8.608  0.00  0.00     0.142 A 
HETATM   29  N   UNK N   1      20.244  13.702  10.229  0.00  0.00    -0.337 N 
HETATM   30  C   UNK N   1      20.453  14.507   9.134  0.00  0.00     0.183 A 
ATOM     31  HN  UNK N   1      19.439  13.874  10.832  1.00  0.00     0.168 HD
HETATM   32  N   UNK N   1      21.527  14.296   8.311  0.00  0.00    -0.336 N 
ATOM     33  HN  UNK N   1      21.690  14.890   7.498  1.00  0.00     0.168 HD
BRANCH  27  34
HETATM   34  N   UNK N   1      20.886  11.860  11.648  0.00  0.00    -0.383 N 
HETATM   35  H   UNK N   1      20.354  12.197  12.406  0.00  0.00     0.157 HD
HETATM   36  H   UNK N   1      21.269  10.954  11.679  0.00  0.00     0.157 HD
ENDBRANCH  27  34
ENDBRANCH  11  22
ENDBRANCH   7   8
ENDBRANCH   6   7
ENDBRANCH   2   6
ENDBRANCH   1   2
BRANCH   1  37
HETATM   37  P   UNK N   1      30.727  16.735   4.140  0.00  0.00     0.401 P 
HETATM   38  O   UNK N   1      30.124  17.974   4.853  0.00  0.00    -0.631 OA
BRANCH  37  39
HETATM   39  O   UNK N   1      30.423  16.974   2.450  0.00  0.00    -0.307 OA
HETATM   40  H   UNK N   1      30.196  17.854   2.110  0.00  0.00     0.222 HD
ENDBRANCH  37  39
BRANCH  37  41
HETATM   41  O   UNK N   1      32.429  16.742   4.520  0.00  0.00    -0.296 OA
BRANCH  41  42
HETATM   42  C   UNK N   1      32.601  15.595   5.295  0.00  0.00     0.192 C 
BRANCH  42  43
HETATM   43  C   UNK N   1      33.351  15.838   6.604  0.00  0.00     0.008 C 
HETATM   44  C   UNK N   1      32.832  14.848   7.636  0.00  0.00     0.020 C 
HETATM   45  C   UNK N   1      34.851  15.608   6.443  0.00  0.00     0.020 C 
BRANCH  43  46
HETATM   46  C   UNK N   1      33.076  17.291   7.066  0.00  0.00     0.202 C 
BRANCH  46  47
HETATM   47  C   UNK N   1      32.835  17.380   8.578  0.00  0.00     0.141 C 
HETATM   48  N   UNK N   1      31.653  17.458   9.088  0.00  0.00    -0.372 N 
ATOM     49  HN  UNK N   1      31.565  17.449  10.104  1.00  0.00     0.161 HD
BRANCH  48  50
HETATM   50  C   UNK N   1      30.454  17.555   8.300  0.00  0.00     0.129 C 
BRANCH  50  51
HETATM   51  C   UNK N   1      29.674  18.811   8.628  0.00  0.00     0.103 C 
BRANCH  51  52
HETATM   52  C   UNK N   1      28.183  18.639   8.563  0.00  0.00     0.112 C 
HETATM   53  N   UNK N   1      27.440  19.210   7.668  0.00  0.00    -0.374 N 
ATOM     54  HN  UNK N   1      26.451  18.962   7.672  1.00  0.00     0.161 HD
BRANCH  53  55
HETATM   55  C   UNK N   1      27.865  20.169   6.660  0.00  0.00     0.131 C 
BRANCH  55  56
HETATM   56  C   UNK N   1      26.776  20.690   5.712  0.00  0.00     0.093 C 
BRANCH  56  57
HETATM   57  S   UNK N   1      26.814  19.981   4.037  0.00  0.00    -0.163 SA
BRANCH  57  58
HETATM   58  C   UNK N   1      25.561  18.725   4.436  0.00  0.00     0.112 C 
BRANCH  58  59
HETATM   59  C   UNK N   1      24.180  19.103   3.994  0.00  0.00    -0.049 A 
HETATM   60  C   UNK N   1      24.023  20.224   3.174  0.00  0.00     0.011 A 
HETATM   61  C   UNK N   1      22.749  20.605   2.739  0.00  0.00     0.037 A 
HETATM   62  C   UNK N   1      21.628  19.866   3.125  0.00  0.00     0.065 A 
HETATM   63  C   UNK N   1      21.777  18.746   3.946  0.00  0.00     0.037 A 
HETATM   64  C   UNK N   1      23.048  18.364   4.376  0.00  0.00     0.011 A 
BRANCH  62  65
HETATM   65  O   UNK N   1      20.406  20.232   2.708  0.00  0.00    -0.361 OA
HETATM   66  H   UNK N   1      20.048  19.895   1.911  0.00  0.00     0.217 HD
ENDBRANCH  62  65
ENDBRANCH  58  59
ENDBRANCH  57  58
ENDBRANCH  56  57
ENDBRANCH  55  56
ENDBRANCH  53  55
BRANCH  52  67
HETATM   67  O   UNK N   1      27.605  17.817   9.457  0.00  0.00    -0.350 OA
HETATM   68  H   UNK N   1      27.994  17.478  10.239  0.00  0.00     0.219 HD
ENDBRANCH  52  67
ENDBRANCH  51  52
ENDBRANCH  50  51
ENDBRANCH  48  50
BRANCH  47  69
HETATM   69  O   UNK N   1      33.888  17.402   9.414  0.00  0.00    -0.348 OA
HETATM   70  H   UNK N   1      34.141  18.000  10.090  0.00  0.00     0.219 HD
ENDBRANCH  47  69
ENDBRANCH  46  47
BRANCH  46  71
HETATM   71  O   UNK N   1      34.163  18.107   6.742  0.00  0.00    -0.387 OA
HETATM   72  H   UNK N   1      34.440  18.345   5.844  0.00  0.00     0.210 HD
ENDBRANCH  46  71
ENDBRANCH  43  46
ENDBRANCH  42  43
ENDBRANCH  41  42
ENDBRANCH  37  41
ENDBRANCH   1  37
TORSDOF 31
ENDMDL
MODEL 8
REMARK VINA RESULT:      -7.8      6.127     12.820
REMARK  31 active torsions:
REMARK  status: ('A' for Active; 'I' for Inactive)
REMARK    1  A    between atoms: C_8  and  C_7 
REMARK    2  A    between atoms: C_19  and  C_7 
REMARK    3  A    between atoms: N_32  and  C_8 
REMARK    4  A    between atoms: C_10  and  C_9 
REMARK    5  A    between atoms: N_30  and  C_9 
REMARK    6  A    between atoms: S_61  and  C_10 
REMARK    7  A    between atoms: C_18  and  C_11 
REMARK    8  A    between atoms: O_53  and  C_11 
REMARK    9  A    between atoms: C_16  and  C_12 
REMARK   10  A    between atoms: S_61  and  C_12 
REMARK   11  A    between atoms: C_28  and  C_13 
REMARK   12  A    between atoms: O_54  and  C_13 
REMARK   13  A    between atoms: O_41  and  C_17 
REMARK   14  A    between atoms: O_42  and  C_19 
REMARK   15  A    between atoms: C_21  and  O_43 
REMARK   16  A    between atoms: C_22  and  O_56 
REMARK   17  A    between atoms: C_26  and  C_23 
REMARK   18  A    between atoms: C_28  and  C_23 
REMARK   19  A    between atoms: C_23  and  O_44 
REMARK   20  A    between atoms: N_29  and  C_24 
REMARK   21  A    between atoms: O_45  and  C_26 
REMARK   22  A    between atoms: C_27  and  N_40 
REMARK   23  A    between atoms: P_58  and  O_46 
REMARK   24  A    between atoms: P_58  and  O_47 
REMARK   25  A    between atoms: P_59  and  O_49 
REMARK   26  A    between atoms: P_60  and  O_51 
REMARK   27  A    between atoms: P_59  and  O_53 
REMARK   28  A    between atoms: P_60  and  O_54 
REMARK   29  A    between atoms: P_58  and  O_56 
REMARK   30  A    between atoms: P_59  and  O_57 
REMARK   31  A    between atoms: P_60  and  O_57 
ROOT
HETATM    1  O   UNK N   1      33.107  11.507   7.325  0.00  0.00    -0.195 OA
ENDROOT
BRANCH   1   2
HETATM    2  P   UNK N   1      33.382  11.926   9.001  0.00  0.00     0.401 P 
HETATM    3  O   UNK N   1      32.990  10.726   9.902  0.00  0.00    -0.631 OA
BRANCH   2   4
HETATM    4  O   UNK N   1      32.267  13.188   9.425  0.00  0.00    -0.307 OA
HETATM    5  H   UNK N   1      32.055  14.116   9.239  0.00  0.00     0.222 HD
ENDBRANCH   2   4
BRANCH   2   6
HETATM    6  O   UNK N   1      34.988  12.488   9.396  0.00  0.00    -0.294 OA
BRANCH   6   7
HETATM    7  C   UNK N   1      35.448  11.788  10.522  0.00  0.00     0.215 C 
BRANCH   7   8
HETATM    8  C   UNK N   1      35.012  12.480  11.817  0.00  0.00     0.180 C 
HETATM    9  C   UNK N   1      35.733  13.826  12.022  0.00  0.00     0.197 C 
HETATM   10  C   UNK N   1      35.780  13.834  13.526  0.00  0.00     0.199 C 
HETATM   11  C   UNK N   1      36.158  12.380  13.760  0.00  0.00     0.262 C 
HETATM   12  O   UNK N   1      35.291  11.644  12.929  0.00  0.00    -0.353 OA
BRANCH   9  13
HETATM   13  O   UNK N   1      35.036  14.966  11.554  0.00  0.00    -0.286 OA
BRANCH  13  14
HETATM   14  P   UNK N   1      35.959  15.828  10.338  0.00  0.00     0.391 P 
HETATM   15  O   UNK N   1      35.597  17.336  10.392  0.00  0.00    -0.632 OA
BRANCH  14  16
HETATM   16  O   UNK N   1      37.674  15.671  10.569  0.00  0.00    -0.307 OA
HETATM   17  H   UNK N   1      38.458  16.209  10.763  0.00  0.00     0.222 HD
ENDBRANCH  14  16
BRANCH  14  18
HETATM   18  O   UNK N   1      35.527  15.286   8.747  0.00  0.00    -0.307 OA
HETATM   19  H   UNK N   1      35.222  14.377   8.600  0.00  0.00     0.222 HD
ENDBRANCH  14  18
ENDBRANCH  13  14
ENDBRANCH   9  13
BRANCH  10  20
HETATM   20  O   UNK N   1      36.720  14.741  14.022  0.00  0.00    -0.388 OA
HETATM   21  H   UNK N   1      37.437  14.778  14.674  0.00  0.00     0.210 HD
ENDBRANCH  10  20
BRANCH  11  22
HETATM   22  N   UNK N   1      36.054  11.904  15.146  0.00  0.00    -0.297 N 
HETATM   23  C   UNK N   1      35.345  12.550  16.110  0.00  0.00     0.188 A 
HETATM   24  N   UNK N   1      35.390  11.885  17.297  0.00  0.00    -0.346 N 
HETATM   25  C   UNK N   1      36.137  10.800  17.042  0.00  0.00     0.122 A 
ATOM     26  HN  UNK N   1      34.953  12.152  18.180  1.00  0.00     0.167 HD
HETATM   27  C   UNK N   1      36.488   9.753  17.878  0.00  0.00     0.131 A 
HETATM   28  C   UNK N   1      36.543  10.809  15.755  0.00  0.00     0.142 A 
HETATM   29  N   UNK N   1      37.245   8.744  17.356  0.00  0.00    -0.337 N 
HETATM   30  C   UNK N   1      37.648   8.771  16.042  0.00  0.00     0.183 A 
ATOM     31  HN  UNK N   1      37.516   7.959  17.948  1.00  0.00     0.168 HD
HETATM   32  N   UNK N   1      37.295   9.814  15.228  0.00  0.00    -0.336 N 
ATOM     33  HN  UNK N   1      37.589   9.841  14.251  1.00  0.00     0.168 HD
BRANCH  27  34
HETATM   34  N   UNK N   1      36.066   9.717  19.222  0.00  0.00    -0.383 N 
HETATM   35  H   UNK N   1      35.104   9.711  19.436  0.00  0.00     0.157 HD
HETATM   36  H   UNK N   1      36.731   9.697  19.947  0.00  0.00     0.157 HD
ENDBRANCH  27  34
ENDBRANCH  11  22
ENDBRANCH   7   8
ENDBRANCH   6   7
ENDBRANCH   2   6
ENDBRANCH   1   2
BRANCH   1  37
HETATM   37  P   UNK N   1      33.163  12.965   6.364  0.00  0.00     0.401 P 
HETATM   38  O   UNK N   1      31.769  13.082   5.692  0.00  0.00    -0.631 OA
BRANCH  37  39
HETATM   39  O   UNK N   1      34.302  12.841   5.063  0.00  0.00    -0.307 OA
HETATM   40  H   UNK N   1      34.456  11.989   4.624  0.00  0.00     0.222 HD
ENDBRANCH  37  39
BRANCH  37  41
HETATM   41  O   UNK N   1      33.372  14.424   7.298  0.00  0.00    -0.296 OA
BRANCH  41  42
HETATM   42  C   UNK N   1      32.341  15.252   6.856  0.00  0.00     0.192 C 
BRANCH  42  43
HETATM   43  C   UNK N   1      32.815  16.609   6.337  0.00  0.00     0.008 C 
HETATM   44  C   UNK N   1      34.163  16.411   5.660  0.00  0.00     0.020 C 
HETATM   45  C   UNK N   1      31.849  17.185   5.306  0.00  0.00     0.020 C 
BRANCH  43  46
HETATM   46  C   UNK N   1      32.954  17.574   7.541  0.00  0.00     0.202 C 
BRANCH  46  47
HETATM   47  C   UNK N   1      32.306  17.011   8.811  0.00  0.00     0.141 C 
HETATM   48  N   UNK N   1      31.173  17.434   9.258  0.00  0.00    -0.372 N 
ATOM     49  HN  UNK N   1      30.771  16.969  10.072  1.00  0.00     0.161 HD
BRANCH  48  50
HETATM   50  C   UNK N   1      30.446  18.526   8.669  0.00  0.00     0.129 C 
BRANCH  50  51
HETATM   51  C   UNK N   1      29.254  18.035   7.873  0.00  0.00     0.103 C 
BRANCH  51  52
HETATM   52  C   UNK N   1      27.943  18.625   8.310  0.00  0.00     0.112 C 
HETATM   53  N   UNK N   1      27.302  19.517   7.624  0.00  0.00    -0.374 N 
ATOM     54  HN  UNK N   1      26.385  19.791   7.976  1.00  0.00     0.161 HD
BRANCH  53  55
HETATM   55  C   UNK N   1      27.752  20.174   6.405  0.00  0.00     0.131 C 
BRANCH  55  56
HETATM   56  C   UNK N   1      27.723  19.329   5.125  0.00  0.00     0.093 C 
BRANCH  56  57
HETATM   57  S   UNK N   1      26.065  19.051   4.428  0.00  0.00    -0.163 SA
BRANCH  57  58
HETATM   58  C   UNK N   1      25.986  17.342   5.043  0.00  0.00     0.112 C 
BRANCH  58  59
HETATM   59  C   UNK N   1      27.131  16.491   4.581  0.00  0.00    -0.049 A 
HETATM   60  C   UNK N   1      27.820  15.726   5.526  0.00  0.00     0.011 A 
HETATM   61  C   UNK N   1      28.891  14.918   5.131  0.00  0.00     0.037 A 
HETATM   62  C   UNK N   1      29.277  14.874   3.788  0.00  0.00     0.065 A 
HETATM   63  C   UNK N   1      28.594  15.638   2.839  0.00  0.00     0.037 A 
HETATM   64  C   UNK N   1      27.523  16.440   3.233  0.00  0.00     0.011 A 
BRANCH  62  65
HETATM   65  O   UNK N   1      30.305  14.099   3.410  0.00  0.00    -0.361 OA
HETATM   66  H   UNK N   1      30.162  13.323   2.906  0.00  0.00     0.217 HD
ENDBRANCH  62  65
ENDBRANCH  58  59
ENDBRANCH  57  58
ENDBRANCH  56  57
ENDBRANCH  55  56
ENDBRANCH  53  55
BRANCH  52  67
HETATM   67  O   UNK N   1      27.395  18.166   9.449  0.00  0.00    -0.350 OA
HETATM   68  H   UNK N   1      27.854  17.871  10.211  0.00  0.00     0.219 HD
ENDBRANCH  52  67
ENDBRANCH  51  52
ENDBRANCH  50  51
ENDBRANCH  48  50
BRANCH  47  69
HETATM   69  O   UNK N   1      32.944  16.053   9.508  0.00  0.00    -0.348 OA
HETATM   70  H   UNK N   1      32.746  15.632  10.322  0.00  0.00     0.219 HD
ENDBRANCH  47  69
ENDBRANCH  46  47
BRANCH  46  71
HETATM   71  O   UNK N   1      34.306  17.816   7.802  0.00  0.00    -0.387 OA
HETATM   72  H   UNK N   1      34.850  17.334   8.444  0.00  0.00     0.210 HD
ENDBRANCH  46  71
ENDBRANCH  43  46
ENDBRANCH  42  43
ENDBRANCH  41  42
ENDBRANCH  37  41
ENDBRANCH   1  37
TORSDOF 31
ENDMDL
MODEL 9
REMARK VINA RESULT:      -7.8      5.746     11.443
REMARK  31 active torsions:
REMARK  status: ('A' for Active; 'I' for Inactive)
REMARK    1  A    between atoms: C_8  and  C_7 
REMARK    2  A    between atoms: C_19  and  C_7 
REMARK    3  A    between atoms: N_32  and  C_8 
REMARK    4  A    between atoms: C_10  and  C_9 
REMARK    5  A    between atoms: N_30  and  C_9 
REMARK    6  A    between atoms: S_61  and  C_10 
REMARK    7  A    between atoms: C_18  and  C_11 
REMARK    8  A    between atoms: O_53  and  C_11 
REMARK    9  A    between atoms: C_16  and  C_12 
REMARK   10  A    between atoms: S_61  and  C_12 
REMARK   11  A    between atoms: C_28  and  C_13 
REMARK   12  A    between atoms: O_54  and  C_13 
REMARK   13  A    between atoms: O_41  and  C_17 
REMARK   14  A    between atoms: O_42  and  C_19 
REMARK   15  A    between atoms: C_21  and  O_43 
REMARK   16  A    between atoms: C_22  and  O_56 
REMARK   17  A    between atoms: C_26  and  C_23 
REMARK   18  A    between atoms: C_28  and  C_23 
REMARK   19  A    between atoms: C_23  and  O_44 
REMARK   20  A    between atoms: N_29  and  C_24 
REMARK   21  A    between atoms: O_45  and  C_26 
REMARK   22  A    between atoms: C_27  and  N_40 
REMARK   23  A    between atoms: P_58  and  O_46 
REMARK   24  A    between atoms: P_58  and  O_47 
REMARK   25  A    between atoms: P_59  and  O_49 
REMARK   26  A    between atoms: P_60  and  O_51 
REMARK   27  A    between atoms: P_59  and  O_53 
REMARK   28  A    between atoms: P_60  and  O_54 
REMARK   29  A    between atoms: P_58  and  O_56 
REMARK   30  A    between atoms: P_59  and  O_57 
REMARK   31  A    between atoms: P_60  and  O_57 
ROOT
HETATM    1  O   UNK N   1      31.003  14.309   2.722  0.00  0.00    -0.195 OA
ENDROOT
BRANCH   1   2
HETATM    2  P   UNK N   1      32.552  14.767   3.394  0.00  0.00     0.401 P 
HETATM    3  O   UNK N   1      33.595  14.881   2.251  0.00  0.00    -0.631 OA
BRANCH   2   4
HETATM    4  O   UNK N   1      33.112  13.455   4.383  0.00  0.00    -0.307 OA
HETATM    5  H   UNK N   1      33.754  13.241   5.078  0.00  0.00     0.222 HD
ENDBRANCH   2   4
BRANCH   2   6
HETATM    6  O   UNK N   1      32.563  16.211   4.377  0.00  0.00    -0.294 OA
BRANCH   6   7
HETATM    7  C   UNK N   1      33.236  15.935   5.578  0.00  0.00     0.215 C 
BRANCH   7   8
HETATM    8  C   UNK N   1      32.764  16.865   6.699  0.00  0.00     0.180 C 
HETATM    9  C   UNK N   1      32.719  16.147   8.062  0.00  0.00     0.197 C 
HETATM   10  C   UNK N   1      31.570  16.899   8.679  0.00  0.00     0.199 C 
HETATM   11  C   UNK N   1      30.644  16.950   7.473  0.00  0.00     0.262 C 
HETATM   12  O   UNK N   1      31.466  17.358   6.405  0.00  0.00    -0.353 OA
BRANCH   9  13
HETATM   13  O   UNK N   1      33.877  16.292   8.863  0.00  0.00    -0.286 OA
BRANCH  13  14
HETATM   14  P   UNK N   1      34.223  14.825   9.761  0.00  0.00     0.391 P 
HETATM   15  O   UNK N   1      33.702  13.601   8.962  0.00  0.00    -0.632 OA
BRANCH  14  16
HETATM   16  O   UNK N   1      35.922  14.606  10.048  0.00  0.00    -0.307 OA
HETATM   17  H   UNK N   1      36.783  14.812   9.652  0.00  0.00     0.222 HD
ENDBRANCH  14  16
BRANCH  14  18
HETATM   18  O   UNK N   1      33.364  14.818  11.269  0.00  0.00    -0.307 OA
HETATM   19  H   UNK N   1      32.664  15.466  11.443  0.00  0.00     0.222 HD
ENDBRANCH  14  18
ENDBRANCH  13  14
ENDBRANCH   9  13
BRANCH  10  20
HETATM   20  O   UNK N   1      31.022  16.225   9.773  0.00  0.00    -0.388 OA
HETATM   21  H   UNK N   1      30.548  16.417  10.597  0.00  0.00     0.210 HD
ENDBRANCH  10  20
BRANCH  11  22
HETATM   22  N   UNK N   1      29.486  17.845   7.591  0.00  0.00    -0.297 N 
HETATM   23  C   UNK N   1      28.937  18.210   8.780  0.00  0.00     0.188 A 
HETATM   24  N   UNK N   1      27.893  19.067   8.609  0.00  0.00    -0.346 N 
HETATM   25  C   UNK N   1      27.815  19.236   7.280  0.00  0.00     0.122 A 
ATOM     26  HN  UNK N   1      27.304  19.487   9.330  1.00  0.00     0.167 HD
HETATM   27  C   UNK N   1      26.955  20.029   6.540  0.00  0.00     0.131 A 
HETATM   28  C   UNK N   1      28.765  18.501   6.664  0.00  0.00     0.142 A 
HETATM   29  N   UNK N   1      27.106  20.042   5.183  0.00  0.00    -0.337 N 
HETATM   30  C   UNK N   1      28.080  19.287   4.573  0.00  0.00     0.183 A 
ATOM     31  HN  UNK N   1      26.488  20.620   4.612  1.00  0.00     0.168 HD
HETATM   32  N   UNK N   1      28.922  18.506   5.319  0.00  0.00    -0.336 N 
ATOM     33  HN  UNK N   1      29.648  17.943   4.874  1.00  0.00     0.168 HD
BRANCH  27  34
HETATM   34  N   UNK N   1      25.964  20.814   7.162  0.00  0.00    -0.383 N 
HETATM   35  H   UNK N   1      26.174  21.308   7.988  0.00  0.00     0.157 HD
HETATM   36  H   UNK N   1      25.062  20.868   6.773  0.00  0.00     0.157 HD
ENDBRANCH  27  34
ENDBRANCH  11  22
ENDBRANCH   7   8
ENDBRANCH   6   7
ENDBRANCH   2   6
ENDBRANCH   1   2
BRANCH   1  37
HETATM   37  P   UNK N   1      29.811  14.319   3.999  0.00  0.00     0.401 P 
HETATM   38  O   UNK N   1      29.368  15.798   4.153  0.00  0.00    -0.631 OA
BRANCH  37  39
HETATM   39  O   UNK N   1      30.494  13.873   5.528  0.00  0.00    -0.307 OA
HETATM   40  H   UNK N   1      30.643  14.542   6.214  0.00  0.00     0.222 HD
ENDBRANCH  37  39
BRANCH  37  41
HETATM   41  O   UNK N   1      28.363  13.419   3.625  0.00  0.00    -0.296 OA
BRANCH  41  42
HETATM   42  C   UNK N   1      27.450  13.843   4.590  0.00  0.00     0.192 C 
BRANCH  42  43
HETATM   43  C   UNK N   1      26.038  14.069   4.051  0.00  0.00     0.008 C 
HETATM   44  C   UNK N   1      25.918  13.337   2.722  0.00  0.00     0.020 C 
HETATM   45  C   UNK N   1      24.980  13.507   4.996  0.00  0.00     0.020 C 
BRANCH  43  46
HETATM   46  C   UNK N   1      25.826  15.590   3.849  0.00  0.00     0.202 C 
BRANCH  46  47
HETATM   47  C   UNK N   1      25.786  16.349   5.181  0.00  0.00     0.141 C 
HETATM   48  N   UNK N   1      24.785  17.082   5.531  0.00  0.00    -0.372 N 
ATOM     49  HN  UNK N   1      24.799  17.507   6.459  1.00  0.00     0.161 HD
BRANCH  48  50
HETATM   50  C   UNK N   1      23.650  17.333   4.684  0.00  0.00     0.129 C 
BRANCH  50  51
HETATM   51  C   UNK N   1      22.585  18.133   5.405  0.00  0.00     0.103 C 
BRANCH  51  52
HETATM   52  C   UNK N   1      21.187  17.624   5.189  0.00  0.00     0.112 C 
HETATM   53  N   UNK N   1      20.479  17.075   6.124  0.00  0.00    -0.374 N 
ATOM     54  HN  UNK N   1      19.517  16.836   5.886  1.00  0.00     0.161 HD
BRANCH  53  55
HETATM   55  C   UNK N   1      20.911  16.760   7.478  0.00  0.00     0.131 C 
BRANCH  55  56
HETATM   56  C   UNK N   1      20.899  15.276   7.870  0.00  0.00     0.093 C 
BRANCH  56  57
HETATM   57  S   UNK N   1      21.556  14.145   6.604  0.00  0.00    -0.163 SA
BRANCH  57  58
HETATM   58  C   UNK N   1      21.350  12.683   7.665  0.00  0.00     0.112 C 
BRANCH  58  59
HETATM   59  C   UNK N   1      22.382  12.585   8.748  0.00  0.00    -0.049 A 
HETATM   60  C   UNK N   1      21.985  12.138  10.012  0.00  0.00     0.011 A 
HETATM   61  C   UNK N   1      22.921  12.030  11.045  0.00  0.00     0.037 A 
HETATM   62  C   UNK N   1      24.257  12.372  10.819  0.00  0.00     0.065 A 
HETATM   63  C   UNK N   1      24.660  12.822   9.560  0.00  0.00     0.037 A 
HETATM   64  C   UNK N   1      23.727  12.925   8.527  0.00  0.00     0.011 A 
BRANCH  62  65
HETATM   65  O   UNK N   1      25.154  12.270  11.812  0.00  0.00    -0.361 OA
HETATM   66  H   UNK N   1      24.877  12.172  12.701  0.00  0.00     0.217 HD
ENDBRANCH  62  65
ENDBRANCH  58  59
ENDBRANCH  57  58
ENDBRANCH  56  57
ENDBRANCH  55  56
ENDBRANCH  53  55
BRANCH  52  67
HETATM   67  O   UNK N   1      20.638  17.789   3.972  0.00  0.00    -0.350 OA
HETATM   68  H   UNK N   1      19.725  17.863   3.776  0.00  0.00     0.219 HD
ENDBRANCH  52  67
ENDBRANCH  51  52
ENDBRANCH  50  51
ENDBRANCH  48  50
BRANCH  47  69
HETATM   69  O   UNK N   1      26.839  16.274   6.015  0.00  0.00    -0.348 OA
HETATM   70  H   UNK N   1      27.576  15.696   6.044  0.00  0.00     0.219 HD
ENDBRANCH  47  69
ENDBRANCH  46  47
BRANCH  46  71
HETATM   71  O   UNK N   1      26.861  16.115   3.070  0.00  0.00    -0.387 OA
HETATM   72  H   UNK N   1      26.747  16.624   2.253  0.00  0.00     0.210 HD
ENDBRANCH  46  71
ENDBRANCH  43  46
ENDBRANCH  42  43
ENDBRANCH  41  42
ENDBRANCH  37  41
ENDBRANCH   1  37
TORSDOF 31
ENDMDL
