MODEL 1
REMARK VINA RESULT:      -7.0      0.000      0.000
REMARK  18 active torsions:
REMARK  status: ('A' for Active; 'I' for Inactive)
REMARK    1  A    between atoms: C_4  and  C_1 
REMARK    2  A    between atoms: O_19  and  C_1 
REMARK    3  A    between atoms: C_5  and  C_2 
REMARK    4  A    between atoms: O_20  and  C_2 
REMARK    5  A    between atoms: C_6  and  C_3 
REMARK    6  A    between atoms: O_21  and  C_3 
REMARK    7  A    between atoms: C_7  and  O_22 
REMARK    8  A    between atoms: C_8  and  O_23 
REMARK    9  A    between atoms: C_9  and  O_24 
REMARK   10  A    between atoms: C_10  and  O_25 
REMARK   11  A    between atoms: C_11  and  O_26 
REMARK   12  A    between atoms: C_12  and  O_27 
REMARK   13  A    between atoms: C_13  and  O_28 
REMARK   14  A    between atoms: C_14  and  O_33 
REMARK   15  A    between atoms: C_15  and  O_34 
REMARK   16  A    between atoms: C_16  and  O_29 
REMARK   17  A    between atoms: C_17  and  O_34 
REMARK   18  A    between atoms: C_18  and  O_33 
ROOT
HETATM    1  C   UNK N   1      33.219  15.121   8.655  0.00  0.00     0.180 C 
HETATM    2  C   UNK N   1      34.430  17.110   9.430  0.00  0.00     0.183 C 
HETATM    3  C   UNK N   1      34.336  17.638   7.984  0.00  0.00     0.204 C 
HETATM    4  C   UNK N   1      34.461  15.556   9.458  0.00  0.00     0.187 C 
HETATM    5  C   UNK N   1      33.164  16.978   7.196  0.00  0.00     0.292 C 
HETATM    6  O   UNK N   1      33.289  15.571   7.314  0.00  0.00    -0.348 OA
ENDROOT
BRANCH   4   7
HETATM    7  O   UNK N   1      35.686  15.047   8.920  0.00  0.00    -0.348 OA
BRANCH   7   8
HETATM    8  C   UNK N   1      36.513  14.483   9.941  0.00  0.00     0.292 C 
HETATM    9  C   UNK N   1      37.110  13.137   9.483  0.00  0.00     0.204 C 
HETATM   10  C   UNK N   1      37.963  12.546  10.631  0.00  0.00     0.183 C 
HETATM   11  C   UNK N   1      37.110  12.462  11.908  0.00  0.00     0.180 C 
HETATM   12  C   UNK N   1      36.503  13.846  12.194  0.00  0.00     0.179 C 
HETATM   13  O   UNK N   1      35.720  14.246  11.087  0.00  0.00    -0.348 OA
BRANCH   9  14
HETATM   14  O   UNK N   1      37.897  13.309   8.342  0.00  0.00    -0.388 OA
HETATM   15  H   UNK N   1      38.377  14.141   8.205  0.00  0.00     0.210 HD
ENDBRANCH   9  14
BRANCH  10  16
HETATM   16  O   UNK N   1      39.078  13.360  10.863  0.00  0.00    -0.390 OA
HETATM   17  H   UNK N   1      39.615  14.160  10.748  0.00  0.00     0.210 HD
ENDBRANCH  10  16
BRANCH  11  18
HETATM   18  O   UNK N   1      37.890  12.036  12.988  0.00  0.00    -0.390 OA
HETATM   19  H   UNK N   1      38.834  12.217  13.122  0.00  0.00     0.210 HD
ENDBRANCH  11  18
BRANCH  12  20
HETATM   20  C   UNK N   1      35.614  13.823  13.437  0.00  0.00     0.198 C 
BRANCH  20  21
HETATM   21  O   UNK N   1      34.486  13.025  13.236  0.00  0.00    -0.398 OA
HETATM   22  H   UNK N   1      33.939  12.240  13.398  0.00  0.00     0.209 HD
ENDBRANCH  20  21
ENDBRANCH  12  20
ENDBRANCH   7   8
ENDBRANCH   4   7
BRANCH   1  23
HETATM   23  C   UNK N   1      32.845  13.641   8.660  0.00  0.00     0.198 C 
BRANCH  23  24
HETATM   24  O   UNK N   1      33.448  12.967   9.728  0.00  0.00    -0.398 OA
HETATM   25  H   UNK N   1      33.423  12.793  10.682  0.00  0.00     0.209 HD
ENDBRANCH  23  24
ENDBRANCH   1  23
BRANCH   2  26
HETATM   26  O   UNK N   1      35.554  17.630  10.076  0.00  0.00    -0.390 OA
HETATM   27  H   UNK N   1      35.714  17.429  11.012  0.00  0.00     0.210 HD
ENDBRANCH   2  26
BRANCH   3  28
HETATM   28  O   UNK N   1      34.207  19.032   7.973  0.00  0.00    -0.388 OA
HETATM   29  H   UNK N   1      34.331  19.528   7.148  0.00  0.00     0.210 HD
ENDBRANCH   3  28
BRANCH   5  30
HETATM   30  O   UNK N   1      31.870  17.514   7.502  0.00  0.00    -0.348 OA
BRANCH  30  31
HETATM   31  C   UNK N   1      30.677  16.723   7.315  0.00  0.00     0.187 C 
HETATM   32  C   UNK N   1      29.884  16.872   5.961  0.00  0.00     0.180 C 
HETATM   33  O   UNK N   1      29.294  18.158   5.810  0.00  0.00    -0.349 OA
HETATM   34  C   UNK N   1      28.389  18.480   6.856  0.00  0.00     0.288 C 
HETATM   35  C   UNK N   1      29.073  18.430   8.231  0.00  0.00     0.204 C 
HETATM   36  C   UNK N   1      29.689  17.045   8.452  0.00  0.00     0.183 C 
BRANCH  32  37
HETATM   37  C   UNK N   1      28.854  15.744   5.777  0.00  0.00     0.198 C 
BRANCH  37  38
HETATM   38  O   UNK N   1      28.188  15.873   4.555  0.00  0.00    -0.398 OA
HETATM   39  H   UNK N   1      27.493  15.407   4.066  0.00  0.00     0.209 HD
ENDBRANCH  37  38
ENDBRANCH  32  37
BRANCH  34  40
HETATM   40  O   UNK N   1      27.254  17.659   6.816  0.00  0.00    -0.369 OA
HETATM   41  H   UNK N   1      27.077  16.814   6.373  0.00  0.00     0.212 HD
ENDBRANCH  34  40
BRANCH  35  42
HETATM   42  O   UNK N   1      28.142  18.713   9.234  0.00  0.00    -0.388 OA
HETATM   43  H   UNK N   1      28.369  19.215  10.032  0.00  0.00     0.210 HD
ENDBRANCH  35  42
BRANCH  36  44
HETATM   44  O   UNK N   1      30.336  16.992   9.690  0.00  0.00    -0.390 OA
HETATM   45  H   UNK N   1      30.939  16.296   9.994  0.00  0.00     0.210 HD
ENDBRANCH  36  44
ENDBRANCH  30  31
ENDBRANCH   5  30
TORSDOF 18
ENDMDL
MODEL 2
REMARK VINA RESULT:      -6.5      1.744      8.575
REMARK  18 active torsions:
REMARK  status: ('A' for Active; 'I' for Inactive)
REMARK    1  A    between atoms: C_4  and  C_1 
REMARK    2  A    between atoms: O_19  and  C_1 
REMARK    3  A    between atoms: C_5  and  C_2 
REMARK    4  A    between atoms: O_20  and  C_2 
REMARK    5  A    between atoms: C_6  and  C_3 
REMARK    6  A    between atoms: O_21  and  C_3 
REMARK    7  A    between atoms: C_7  and  O_22 
REMARK    8  A    between atoms: C_8  and  O_23 
REMARK    9  A    between atoms: C_9  and  O_24 
REMARK   10  A    between atoms: C_10  and  O_25 
REMARK   11  A    between atoms: C_11  and  O_26 
REMARK   12  A    between atoms: C_12  and  O_27 
REMARK   13  A    between atoms: C_13  and  O_28 
REMARK   14  A    between atoms: C_14  and  O_33 
REMARK   15  A    between atoms: C_15  and  O_34 
REMARK   16  A    between atoms: C_16  and  O_29 
REMARK   17  A    between atoms: C_17  and  O_34 
REMARK   18  A    between atoms: C_18  and  O_33 
ROOT
HETATM    1  C   UNK N   1      33.295  16.108   6.847  0.00  0.00     0.180 C 
HETATM    2  C   UNK N   1      31.975  16.321   8.905  0.00  0.00     0.183 C 
HETATM    3  C   UNK N   1      32.530  14.941   9.314  0.00  0.00     0.204 C 
HETATM    4  C   UNK N   1      31.883  16.451   7.359  0.00  0.00     0.187 C 
HETATM    5  C   UNK N   1      33.863  14.607   8.580  0.00  0.00     0.292 C 
HETATM    6  O   UNK N   1      33.659  14.783   7.188  0.00  0.00    -0.348 OA
ENDROOT
BRANCH   4   7
HETATM    7  O   UNK N   1      30.866  15.598   6.821  0.00  0.00    -0.348 OA
BRANCH   7   8
HETATM    8  C   UNK N   1      29.748  16.350   6.345  0.00  0.00     0.292 C 
HETATM    9  C   UNK N   1      30.050  16.968   4.964  0.00  0.00     0.204 C 
HETATM   10  C   UNK N   1      28.831  17.804   4.507  0.00  0.00     0.183 C 
HETATM   11  C   UNK N   1      28.477  18.829   5.599  0.00  0.00     0.180 C 
HETATM   12  C   UNK N   1      28.296  18.090   6.936  0.00  0.00     0.179 C 
HETATM   13  O   UNK N   1      29.491  17.404   7.251  0.00  0.00    -0.348 OA
BRANCH   9  14
HETATM   14  O   UNK N   1      30.323  15.970   4.027  0.00  0.00    -0.388 OA
HETATM   15  H   UNK N   1      29.747  15.192   3.964  0.00  0.00     0.210 HD
ENDBRANCH   9  14
BRANCH  10  16
HETATM   16  O   UNK N   1      27.734  16.963   4.280  0.00  0.00    -0.390 OA
HETATM   17  H   UNK N   1      27.307  16.103   4.143  0.00  0.00     0.210 HD
ENDBRANCH  10  16
BRANCH  11  18
HETATM   18  O   UNK N   1      27.310  19.521   5.259  0.00  0.00    -0.390 OA
HETATM   19  H   UNK N   1      26.935  20.281   5.731  0.00  0.00     0.210 HD
ENDBRANCH  11  18
BRANCH  12  20
HETATM   20  C   UNK N   1      27.975  19.059   8.073  0.00  0.00     0.198 C 
BRANCH  20  21
HETATM   21  O   UNK N   1      27.543  18.375   9.212  0.00  0.00    -0.398 OA
HETATM   22  H   UNK N   1      27.344  17.571   9.717  0.00  0.00     0.209 HD
ENDBRANCH  20  21
ENDBRANCH  12  20
ENDBRANCH   7   8
ENDBRANCH   4   7
BRANCH   1  23
HETATM   23  C   UNK N   1      33.597  16.337   5.369  0.00  0.00     0.198 C 
BRANCH  23  24
HETATM   24  O   UNK N   1      33.088  15.300   4.578  0.00  0.00    -0.398 OA
HETATM   25  H   UNK N   1      33.029  14.931   3.683  0.00  0.00     0.209 HD
ENDBRANCH  23  24
ENDBRANCH   1  23
BRANCH   2  26
HETATM   26  O   UNK N   1      30.725  16.546   9.488  0.00  0.00    -0.390 OA
HETATM   27  H   UNK N   1      30.665  16.852  10.407  0.00  0.00     0.210 HD
ENDBRANCH   2  26
BRANCH   3  28
HETATM   28  O   UNK N   1      32.705  14.869  10.701  0.00  0.00    -0.388 OA
HETATM   29  H   UNK N   1      32.789  15.681  11.227  0.00  0.00     0.210 HD
ENDBRANCH   3  28
BRANCH   5  30
HETATM   30  O   UNK N   1      35.018  15.259   9.126  0.00  0.00    -0.348 OA
BRANCH  30  31
HETATM   31  C   UNK N   1      36.220  14.515   9.417  0.00  0.00     0.187 C 
HETATM   32  C   UNK N   1      36.122  12.945   9.520  0.00  0.00     0.180 C 
HETATM   33  O   UNK N   1      35.348  12.515  10.634  0.00  0.00    -0.349 OA
HETATM   34  C   UNK N   1      35.858  12.980  11.876  0.00  0.00     0.288 C 
HETATM   35  C   UNK N   1      35.937  14.513  11.917  0.00  0.00     0.204 C 
HETATM   36  C   UNK N   1      36.798  15.017  10.754  0.00  0.00     0.183 C 
BRANCH  32  37
HETATM   37  C   UNK N   1      37.512  12.285   9.500  0.00  0.00     0.198 C 
BRANCH  37  38
HETATM   38  O   UNK N   1      37.401  10.892   9.507  0.00  0.00    -0.398 OA
HETATM   39  H   UNK N   1      36.798  10.223   9.866  0.00  0.00     0.209 HD
ENDBRANCH  37  38
ENDBRANCH  32  37
BRANCH  34  40
HETATM   40  O   UNK N   1      37.095  12.392  12.168  0.00  0.00    -0.369 OA
HETATM   41  H   UNK N   1      37.394  11.836  12.906  0.00  0.00     0.212 HD
ENDBRANCH  34  40
BRANCH  35  42
HETATM   42  O   UNK N   1      36.480  14.928  13.136  0.00  0.00    -0.388 OA
HETATM   43  H   UNK N   1      37.023  14.348  13.691  0.00  0.00     0.210 HD
ENDBRANCH  35  42
BRANCH  36  44
HETATM   44  O   UNK N   1      36.861  16.414  10.764  0.00  0.00    -0.390 OA
HETATM   45  H   UNK N   1      37.430  16.967  10.207  0.00  0.00     0.210 HD
ENDBRANCH  36  44
ENDBRANCH  30  31
ENDBRANCH   5  30
TORSDOF 18
ENDMDL
MODEL 3
REMARK VINA RESULT:      -6.4      2.349      9.699
REMARK  18 active torsions:
REMARK  status: ('A' for Active; 'I' for Inactive)
REMARK    1  A    between atoms: C_4  and  C_1 
REMARK    2  A    between atoms: O_19  and  C_1 
REMARK    3  A    between atoms: C_5  and  C_2 
REMARK    4  A    between atoms: O_20  and  C_2 
REMARK    5  A    between atoms: C_6  and  C_3 
REMARK    6  A    between atoms: O_21  and  C_3 
REMARK    7  A    between atoms: C_7  and  O_22 
REMARK    8  A    between atoms: C_8  and  O_23 
REMARK    9  A    between atoms: C_9  and  O_24 
REMARK   10  A    between atoms: C_10  and  O_25 
REMARK   11  A    between atoms: C_11  and  O_26 
REMARK   12  A    between atoms: C_12  and  O_27 
REMARK   13  A    between atoms: C_13  and  O_28 
REMARK   14  A    between atoms: C_14  and  O_33 
REMARK   15  A    between atoms: C_15  and  O_34 
REMARK   16  A    between atoms: C_16  and  O_29 
REMARK   17  A    between atoms: C_17  and  O_34 
REMARK   18  A    between atoms: C_18  and  O_33 
ROOT
HETATM    1  C   UNK N   1      29.312  17.177   8.417  0.00  0.00     0.180 C 
HETATM    2  C   UNK N   1      29.610  16.347   6.126  0.00  0.00     0.183 C 
HETATM    3  C   UNK N   1      31.095  16.741   6.257  0.00  0.00     0.204 C 
HETATM    4  C   UNK N   1      28.709  17.264   7.002  0.00  0.00     0.187 C 
HETATM    5  C   UNK N   1      31.549  16.822   7.746  0.00  0.00     0.292 C 
HETATM    6  O   UNK N   1      30.643  17.662   8.440  0.00  0.00    -0.348 OA
ENDROOT
BRANCH   4   7
HETATM    7  O   UNK N   1      28.665  18.599   6.489  0.00  0.00    -0.348 OA
BRANCH   7   8
HETATM    8  C   UNK N   1      27.594  18.769   5.557  0.00  0.00     0.292 C 
HETATM    9  C   UNK N   1      26.880  20.118   5.781  0.00  0.00     0.204 C 
HETATM   10  C   UNK N   1      25.706  20.241   4.780  0.00  0.00     0.183 C 
HETATM   11  C   UNK N   1      24.794  19.009   4.911  0.00  0.00     0.180 C 
HETATM   12  C   UNK N   1      25.648  17.737   4.761  0.00  0.00     0.179 C 
HETATM   13  O   UNK N   1      26.651  17.734   5.757  0.00  0.00    -0.348 OA
BRANCH   9  14
HETATM   14  O   UNK N   1      27.770  21.180   5.607  0.00  0.00    -0.388 OA
HETATM   15  H   UNK N   1      27.514  21.944   5.066  0.00  0.00     0.210 HD
ENDBRANCH   9  14
BRANCH  10  16
HETATM   16  O   UNK N   1      26.202  20.321   3.472  0.00  0.00    -0.390 OA
HETATM   17  H   UNK N   1      26.884  20.498   2.806  0.00  0.00     0.210 HD
ENDBRANCH  10  16
BRANCH  11  18
HETATM   18  O   UNK N   1      23.788  19.041   3.940  0.00  0.00    -0.390 OA
HETATM   19  H   UNK N   1      22.865  19.306   4.078  0.00  0.00     0.210 HD
ENDBRANCH  11  18
BRANCH  12  20
HETATM   20  C   UNK N   1      24.804  16.474   4.915  0.00  0.00     0.198 C 
BRANCH  20  21
HETATM   21  O   UNK N   1      23.810  16.644   5.882  0.00  0.00    -0.398 OA
HETATM   22  H   UNK N   1      23.445  17.041   6.689  0.00  0.00     0.209 HD
ENDBRANCH  20  21
ENDBRANCH  12  20
ENDBRANCH   7   8
ENDBRANCH   4   7
BRANCH   1  23
HETATM   23  C   UNK N   1      28.536  17.813   9.567  0.00  0.00     0.198 C 
BRANCH  23  24
HETATM   24  O   UNK N   1      27.360  18.421   9.113  0.00  0.00    -0.398 OA
HETATM   25  H   UNK N   1      26.809  18.621   8.341  0.00  0.00     0.209 HD
ENDBRANCH  23  24
ENDBRANCH   1  23
BRANCH   2  26
HETATM   26  O   UNK N   1      29.199  16.394   4.791  0.00  0.00    -0.390 OA
HETATM   27  H   UNK N   1      29.522  17.099   4.208  0.00  0.00     0.210 HD
ENDBRANCH   2  26
BRANCH   3  28
HETATM   28  O   UNK N   1      31.908  15.849   5.547  0.00  0.00    -0.388 OA
HETATM   29  H   UNK N   1      32.234  15.039   5.972  0.00  0.00     0.210 HD
ENDBRANCH   3  28
BRANCH   5  30
HETATM   30  O   UNK N   1      31.808  15.549   8.355  0.00  0.00    -0.348 OA
BRANCH  30  31
HETATM   31  C   UNK N   1      32.875  15.391   9.314  0.00  0.00     0.187 C 
HETATM   32  C   UNK N   1      34.114  16.362   9.222  0.00  0.00     0.180 C 
HETATM   33  O   UNK N   1      34.879  16.165   8.039  0.00  0.00    -0.349 OA
HETATM   34  C   UNK N   1      35.382  14.842   7.917  0.00  0.00     0.288 C 
HETATM   35  C   UNK N   1      34.250  13.803   7.928  0.00  0.00     0.204 C 
HETATM   36  C   UNK N   1      33.423  13.955   9.208  0.00  0.00     0.183 C 
BRANCH  32  37
HETATM   37  C   UNK N   1      34.986  16.292  10.488  0.00  0.00     0.198 C 
BRANCH  37  38
HETATM   38  O   UNK N   1      35.956  17.299  10.480  0.00  0.00    -0.398 OA
HETATM   39  H   UNK N   1      36.208  18.046   9.914  0.00  0.00     0.209 HD
ENDBRANCH  37  38
ENDBRANCH  32  37
BRANCH  34  40
HETATM   40  O   UNK N   1      36.339  14.570   8.903  0.00  0.00    -0.369 OA
HETATM   41  H   UNK N   1      37.225  14.176   8.860  0.00  0.00     0.212 HD
ENDBRANCH  34  40
BRANCH  35  42
HETATM   42  O   UNK N   1      34.786  12.516   7.847  0.00  0.00    -0.388 OA
HETATM   43  H   UNK N   1      34.492  11.867   7.190  0.00  0.00     0.210 HD
ENDBRANCH  35  42
BRANCH  36  44
HETATM   44  O   UNK N   1      32.373  13.031   9.222  0.00  0.00    -0.390 OA
HETATM   45  H   UNK N   1      32.112  12.447   8.492  0.00  0.00     0.210 HD
ENDBRANCH  36  44
ENDBRANCH  30  31
ENDBRANCH   5  30
TORSDOF 18
ENDMDL
MODEL 4
REMARK VINA RESULT:      -6.4      1.353      1.929
REMARK  18 active torsions:
REMARK  status: ('A' for Active; 'I' for Inactive)
REMARK    1  A    between atoms: C_4  and  C_1 
REMARK    2  A    between atoms: O_19  and  C_1 
REMARK    3  A    between atoms: C_5  and  C_2 
REMARK    4  A    between atoms: O_20  and  C_2 
REMARK    5  A    between atoms: C_6  and  C_3 
REMARK    6  A    between atoms: O_21  and  C_3 
REMARK    7  A    between atoms: C_7  and  O_22 
REMARK    8  A    between atoms: C_8  and  O_23 
REMARK    9  A    between atoms: C_9  and  O_24 
REMARK   10  A    between atoms: C_10  and  O_25 
REMARK   11  A    between atoms: C_11  and  O_26 
REMARK   12  A    between atoms: C_12  and  O_27 
REMARK   13  A    between atoms: C_13  and  O_28 
REMARK   14  A    between atoms: C_14  and  O_33 
REMARK   15  A    between atoms: C_15  and  O_34 
REMARK   16  A    between atoms: C_16  and  O_29 
REMARK   17  A    between atoms: C_17  and  O_34 
REMARK   18  A    between atoms: C_18  and  O_33 
ROOT
HETATM    1  C   UNK N   1      33.167  15.128   8.228  0.00  0.00     0.180 C 
HETATM    2  C   UNK N   1      34.340  16.963   9.360  0.00  0.00     0.183 C 
HETATM    3  C   UNK N   1      34.360  17.689   8.000  0.00  0.00     0.204 C 
HETATM    4  C   UNK N   1      34.351  15.419   9.171  0.00  0.00     0.187 C 
HETATM    5  C   UNK N   1      33.242  17.171   7.045  0.00  0.00     0.292 C 
HETATM    6  O   UNK N   1      33.342  15.759   6.973  0.00  0.00    -0.348 OA
ENDROOT
BRANCH   4   7
HETATM    7  O   UNK N   1      35.606  14.964   8.656  0.00  0.00    -0.348 OA
BRANCH   7   8
HETATM    8  C   UNK N   1      36.184  13.960   9.495  0.00  0.00     0.292 C 
HETATM    9  C   UNK N   1      37.681  14.241   9.737  0.00  0.00     0.204 C 
HETATM   10  C   UNK N   1      38.272  13.111  10.613  0.00  0.00     0.183 C 
HETATM   11  C   UNK N   1      37.978  11.751   9.957  0.00  0.00     0.180 C 
HETATM   12  C   UNK N   1      36.467  11.643   9.688  0.00  0.00     0.179 C 
HETATM   13  O   UNK N   1      36.071  12.708   8.847  0.00  0.00    -0.348 OA
BRANCH   9  14
HETATM   14  O   UNK N   1      37.854  15.475  10.367  0.00  0.00    -0.388 OA
HETATM   15  H   UNK N   1      37.086  15.957  10.711  0.00  0.00     0.210 HD
ENDBRANCH   9  14
BRANCH  10  16
HETATM   16  O   UNK N   1      37.699  13.150  11.891  0.00  0.00    -0.390 OA
HETATM   17  H   UNK N   1      37.705  13.319  12.846  0.00  0.00     0.210 HD
ENDBRANCH  10  16
BRANCH  11  18
HETATM   18  O   UNK N   1      38.404  10.707  10.786  0.00  0.00    -0.390 OA
HETATM   19  H   UNK N   1      37.835  10.072  11.248  0.00  0.00     0.210 HD
ENDBRANCH  11  18
BRANCH  12  20
HETATM   20  C   UNK N   1      36.112  10.324   9.004  0.00  0.00     0.198 C 
BRANCH  20  21
HETATM   21  O   UNK N   1      37.189   9.834   8.262  0.00  0.00    -0.398 OA
HETATM   22  H   UNK N   1      38.135   9.702   8.090  0.00  0.00     0.209 HD
ENDBRANCH  20  21
ENDBRANCH  12  20
ENDBRANCH   7   8
ENDBRANCH   4   7
BRANCH   1  23
HETATM   23  C   UNK N   1      32.777  13.671   7.998  0.00  0.00     0.198 C 
BRANCH  23  24
HETATM   24  O   UNK N   1      32.497  13.021   9.205  0.00  0.00    -0.398 OA
HETATM   25  H   UNK N   1      31.801  12.723   9.811  0.00  0.00     0.209 HD
ENDBRANCH  23  24
ENDBRANCH   1  23
BRANCH   2  26
HETATM   26  O   UNK N   1      35.420  17.363  10.153  0.00  0.00    -0.390 OA
HETATM   27  H   UNK N   1      35.316  18.093  10.782  0.00  0.00     0.210 HD
ENDBRANCH   2  26
BRANCH   3  28
HETATM   28  O   UNK N   1      34.248  19.074   8.176  0.00  0.00    -0.388 OA
HETATM   29  H   UNK N   1      34.411  19.676   7.433  0.00  0.00     0.210 HD
ENDBRANCH   3  28
BRANCH   5  30
HETATM   30  O   UNK N   1      31.935  17.688   7.330  0.00  0.00    -0.348 OA
BRANCH  30  31
HETATM   31  C   UNK N   1      30.763  16.857   7.187  0.00  0.00     0.187 C 
HETATM   32  C   UNK N   1      29.882  17.022   5.891  0.00  0.00     0.180 C 
HETATM   33  O   UNK N   1      29.236  18.288   5.823  0.00  0.00    -0.349 OA
HETATM   34  C   UNK N   1      28.387  18.538   6.935  0.00  0.00     0.288 C 
HETATM   35  C   UNK N   1      29.157  18.469   8.262  0.00  0.00     0.204 C 
HETATM   36  C   UNK N   1      29.837  17.102   8.394  0.00  0.00     0.183 C 
BRANCH  32  37
HETATM   37  C   UNK N   1      28.885  15.861   5.729  0.00  0.00     0.198 C 
BRANCH  37  38
HETATM   38  O   UNK N   1      29.557  14.646   5.575  0.00  0.00    -0.398 OA
HETATM   39  H   UNK N   1      29.381  13.705   5.732  0.00  0.00     0.209 HD
ENDBRANCH  37  38
ENDBRANCH  32  37
BRANCH  34  40
HETATM   40  O   UNK N   1      27.284  17.675   6.934  0.00  0.00    -0.369 OA
HETATM   41  H   UNK N   1      26.668  17.405   7.634  0.00  0.00     0.212 HD
ENDBRANCH  34  40
BRANCH  35  42
HETATM   42  O   UNK N   1      28.282  18.679   9.330  0.00  0.00    -0.388 OA
HETATM   43  H   UNK N   1      28.262  19.507   9.835  0.00  0.00     0.210 HD
ENDBRANCH  35  42
BRANCH  36  44
HETATM   44  O   UNK N   1      30.562  17.032   9.587  0.00  0.00    -0.390 OA
HETATM   45  H   UNK N   1      31.211  17.680   9.904  0.00  0.00     0.210 HD
ENDBRANCH  36  44
ENDBRANCH  30  31
ENDBRANCH   5  30
TORSDOF 18
ENDMDL
MODEL 5
REMARK VINA RESULT:      -6.4      5.420     12.675
REMARK  18 active torsions:
REMARK  status: ('A' for Active; 'I' for Inactive)
REMARK    1  A    between atoms: C_4  and  C_1 
REMARK    2  A    between atoms: O_19  and  C_1 
REMARK    3  A    between atoms: C_5  and  C_2 
REMARK    4  A    between atoms: O_20  and  C_2 
REMARK    5  A    between atoms: C_6  and  C_3 
REMARK    6  A    between atoms: O_21  and  C_3 
REMARK    7  A    between atoms: C_7  and  O_22 
REMARK    8  A    between atoms: C_8  and  O_23 
REMARK    9  A    between atoms: C_9  and  O_24 
REMARK   10  A    between atoms: C_10  and  O_25 
REMARK   11  A    between atoms: C_11  and  O_26 
REMARK   12  A    between atoms: C_12  and  O_27 
REMARK   13  A    between atoms: C_13  and  O_28 
REMARK   14  A    between atoms: C_14  and  O_33 
REMARK   15  A    between atoms: C_15  and  O_34 
REMARK   16  A    between atoms: C_16  and  O_29 
REMARK   17  A    between atoms: C_17  and  O_34 
REMARK   18  A    between atoms: C_18  and  O_33 
ROOT
HETATM    1  C   UNK N   1      25.254  18.204   4.912  0.00  0.00     0.180 C 
HETATM    2  C   UNK N   1      24.413  16.033   5.691  0.00  0.00     0.183 C 
HETATM    3  C   UNK N   1      25.603  15.391   4.949  0.00  0.00     0.204 C 
HETATM    4  C   UNK N   1      23.971  17.355   5.002  0.00  0.00     0.187 C 
HETATM    5  C   UNK N   1      26.769  16.401   4.732  0.00  0.00     0.292 C 
HETATM    6  O   UNK N   1      26.240  17.565   4.121  0.00  0.00    -0.348 OA
ENDROOT
BRANCH   4   7
HETATM    7  O   UNK N   1      23.371  17.105   3.726  0.00  0.00    -0.348 OA
BRANCH   7   8
HETATM    8  C   UNK N   1      21.993  17.486   3.711  0.00  0.00     0.292 C 
HETATM    9  C   UNK N   1      21.160  16.498   2.867  0.00  0.00     0.204 C 
HETATM   10  C   UNK N   1      19.687  16.971   2.845  0.00  0.00     0.183 C 
HETATM   11  C   UNK N   1      19.627  18.430   2.361  0.00  0.00     0.180 C 
HETATM   12  C   UNK N   1      20.571  19.282   3.226  0.00  0.00     0.179 C 
HETATM   13  O   UNK N   1      21.884  18.767   3.124  0.00  0.00    -0.348 OA
BRANCH   9  14
HETATM   14  O   UNK N   1      21.240  15.209   3.396  0.00  0.00    -0.388 OA
HETATM   15  H   UNK N   1      21.828  15.027   4.146  0.00  0.00     0.210 HD
ENDBRANCH   9  14
BRANCH  10  16
HETATM   16  O   UNK N   1      19.138  16.880   4.131  0.00  0.00    -0.390 OA
HETATM   17  H   UNK N   1      18.461  17.047   4.805  0.00  0.00     0.210 HD
ENDBRANCH  10  16
BRANCH  11  18
HETATM   18  O   UNK N   1      18.318  18.917   2.439  0.00  0.00    -0.390 OA
HETATM   19  H   UNK N   1      17.520  18.394   2.619  0.00  0.00     0.210 HD
ENDBRANCH  11  18
BRANCH  12  20
HETATM   20  C   UNK N   1      20.583  20.741   2.774  0.00  0.00     0.198 C 
BRANCH  20  21
HETATM   21  O   UNK N   1      21.872  21.277   2.831  0.00  0.00    -0.398 OA
HETATM   22  H   UNK N   1      22.750  21.465   2.462  0.00  0.00     0.209 HD
ENDBRANCH  20  21
ENDBRANCH  12  20
ENDBRANCH   7   8
ENDBRANCH   4   7
BRANCH   1  23
HETATM   23  C   UNK N   1      25.123  19.655   4.460  0.00  0.00     0.198 C 
BRANCH  23  24
HETATM   24  O   UNK N   1      24.542  19.742   3.189  0.00  0.00    -0.398 OA
HETATM   25  H   UNK N   1      24.351  19.273   2.362  0.00  0.00     0.209 HD
ENDBRANCH  23  24
ENDBRANCH   1  23
BRANCH   2  26
HETATM   26  O   UNK N   1      23.339  15.143   5.771  0.00  0.00    -0.390 OA
HETATM   27  H   UNK N   1      22.489  15.439   6.134  0.00  0.00     0.210 HD
ENDBRANCH   2  26
BRANCH   3  28
HETATM   28  O   UNK N   1      26.059  14.258   5.633  0.00  0.00    -0.388 OA
HETATM   29  H   UNK N   1      25.650  13.996   6.474  0.00  0.00     0.210 HD
ENDBRANCH   3  28
BRANCH   5  30
HETATM   30  O   UNK N   1      27.583  16.624   5.892  0.00  0.00    -0.348 OA
BRANCH  30  31
HETATM   31  C   UNK N   1      28.795  17.403   5.808  0.00  0.00     0.187 C 
HETATM   32  C   UNK N   1      30.173  16.639   5.751  0.00  0.00     0.180 C 
HETATM   33  O   UNK N   1      30.466  15.947   6.959  0.00  0.00    -0.349 OA
HETATM   34  C   UNK N   1      30.514  16.802   8.092  0.00  0.00     0.288 C 
HETATM   35  C   UNK N   1      29.190  17.556   8.288  0.00  0.00     0.204 C 
HETATM   36  C   UNK N   1      28.857  18.350   7.021  0.00  0.00     0.183 C 
BRANCH  32  37
HETATM   37  C   UNK N   1      31.323  17.572   5.332  0.00  0.00     0.198 C 
BRANCH  37  38
HETATM   38  O   UNK N   1      31.176  17.976   4.002  0.00  0.00    -0.398 OA
HETATM   39  H   UNK N   1      31.698  17.956   3.186  0.00  0.00     0.209 HD
ENDBRANCH  37  38
ENDBRANCH  32  37
BRANCH  34  40
HETATM   40  O   UNK N   1      31.602  17.682   8.018  0.00  0.00    -0.369 OA
HETATM   41  H   UNK N   1      32.478  17.671   8.437  0.00  0.00     0.212 HD
ENDBRANCH  34  40
BRANCH  35  42
HETATM   42  O   UNK N   1      29.291  18.415   9.386  0.00  0.00    -0.388 OA
HETATM   43  H   UNK N   1      29.263  18.098  10.302  0.00  0.00     0.210 HD
ENDBRANCH  35  42
BRANCH  36  44
HETATM   44  O   UNK N   1      27.641  19.024   7.175  0.00  0.00    -0.390 OA
HETATM   45  H   UNK N   1      26.780  18.620   7.366  0.00  0.00     0.210 HD
ENDBRANCH  36  44
ENDBRANCH  30  31
ENDBRANCH   5  30
TORSDOF 18
ENDMDL
MODEL 6
REMARK VINA RESULT:      -6.4      5.445     12.684
REMARK  18 active torsions:
REMARK  status: ('A' for Active; 'I' for Inactive)
REMARK    1  A    between atoms: C_4  and  C_1 
REMARK    2  A    between atoms: O_19  and  C_1 
REMARK    3  A    between atoms: C_5  and  C_2 
REMARK    4  A    between atoms: O_20  and  C_2 
REMARK    5  A    between atoms: C_6  and  C_3 
REMARK    6  A    between atoms: O_21  and  C_3 
REMARK    7  A    between atoms: C_7  and  O_22 
REMARK    8  A    between atoms: C_8  and  O_23 
REMARK    9  A    between atoms: C_9  and  O_24 
REMARK   10  A    between atoms: C_10  and  O_25 
REMARK   11  A    between atoms: C_11  and  O_26 
REMARK   12  A    between atoms: C_12  and  O_27 
REMARK   13  A    between atoms: C_13  and  O_28 
REMARK   14  A    between atoms: C_14  and  O_33 
REMARK   15  A    between atoms: C_15  and  O_34 
REMARK   16  A    between atoms: C_16  and  O_29 
REMARK   17  A    between atoms: C_17  and  O_34 
REMARK   18  A    between atoms: C_18  and  O_33 
ROOT
HETATM    1  C   UNK N   1      25.440  17.231   3.972  0.00  0.00     0.180 C 
HETATM    2  C   UNK N   1      26.039  19.556   3.459  0.00  0.00     0.183 C 
HETATM    3  C   UNK N   1      26.572  19.657   4.903  0.00  0.00     0.204 C 
HETATM    4  C   UNK N   1      24.874  18.530   3.364  0.00  0.00     0.187 C 
HETATM    5  C   UNK N   1      26.924  18.259   5.495  0.00  0.00     0.292 C 
HETATM    6  O   UNK N   1      25.800  17.412   5.330  0.00  0.00    -0.348 OA
ENDROOT
BRANCH   4   7
HETATM    7  O   UNK N   1      23.703  19.003   4.037  0.00  0.00    -0.348 OA
BRANCH   7   8
HETATM    8  C   UNK N   1      22.537  18.860   3.222  0.00  0.00     0.292 C 
HETATM    9  C   UNK N   1      21.728  20.174   3.187  0.00  0.00     0.204 C 
HETATM   10  C   UNK N   1      20.458  19.962   2.329  0.00  0.00     0.183 C 
HETATM   11  C   UNK N   1      19.678  18.749   2.865  0.00  0.00     0.180 C 
HETATM   12  C   UNK N   1      20.625  17.539   2.935  0.00  0.00     0.179 C 
HETATM   13  O   UNK N   1      21.715  17.853   3.779  0.00  0.00    -0.348 OA
BRANCH   9  14
HETATM   14  O   UNK N   1      22.497  21.211   2.655  0.00  0.00    -0.388 OA
HETATM   15  H   UNK N   1      22.064  21.998   2.290  0.00  0.00     0.210 HD
ENDBRANCH   9  14
BRANCH  10  16
HETATM   16  O   UNK N   1      20.816  19.738   0.994  0.00  0.00    -0.390 OA
HETATM   17  H   UNK N   1      20.726  19.850   0.035  0.00  0.00     0.210 HD
ENDBRANCH  10  16
BRANCH  11  18
HETATM   18  O   UNK N   1      18.585  18.468   2.038  0.00  0.00    -0.390 OA
HETATM   19  H   UNK N   1      17.936  19.109   1.707  0.00  0.00     0.210 HD
ENDBRANCH  11  18
BRANCH  12  20
HETATM   20  C   UNK N   1      19.918  16.305   3.493  0.00  0.00     0.198 C 
BRANCH  20  21
HETATM   21  O   UNK N   1      18.801  16.662   4.251  0.00  0.00    -0.398 OA
HETATM   22  H   UNK N   1      18.149  17.297   4.589  0.00  0.00     0.209 HD
ENDBRANCH  20  21
ENDBRANCH  12  20
ENDBRANCH   7   8
ENDBRANCH   4   7
BRANCH   1  23
HETATM   23  C   UNK N   1      24.606  15.960   3.849  0.00  0.00     0.198 C 
BRANCH  23  24
HETATM   24  O   UNK N   1      23.565  15.940   4.784  0.00  0.00    -0.398 OA
HETATM   25  H   UNK N   1      22.842  16.445   5.188  0.00  0.00     0.209 HD
ENDBRANCH  23  24
ENDBRANCH   1  23
BRANCH   2  26
HETATM   26  O   UNK N   1      25.624  20.806   2.994  0.00  0.00    -0.390 OA
HETATM   27  H   UNK N   1      25.635  20.999   2.044  0.00  0.00     0.210 HD
ENDBRANCH   2  26
BRANCH   3  28
HETATM   28  O   UNK N   1      27.685  20.506   4.961  0.00  0.00    -0.388 OA
HETATM   29  H   UNK N   1      28.530  20.181   5.310  0.00  0.00     0.210 HD
ENDBRANCH   3  28
BRANCH   5  30
HETATM   30  O   UNK N   1      28.176  17.724   5.044  0.00  0.00    -0.348 OA
BRANCH  30  31
HETATM   31  C   UNK N   1      29.014  16.952   5.931  0.00  0.00     0.187 C 
HETATM   32  C   UNK N   1      30.490  17.445   6.185  0.00  0.00     0.180 C 
HETATM   33  O   UNK N   1      31.304  17.361   5.021  0.00  0.00    -0.349 OA
HETATM   34  C   UNK N   1      31.392  16.043   4.499  0.00  0.00     0.288 C 
HETATM   35  C   UNK N   1      30.007  15.478   4.151  0.00  0.00     0.204 C 
HETATM   36  C   UNK N   1      29.108  15.513   5.391  0.00  0.00     0.183 C 
BRANCH  32  37
HETATM   37  C   UNK N   1      31.131  16.728   7.385  0.00  0.00     0.198 C 
BRANCH  37  38
HETATM   38  O   UNK N   1      32.419  17.215   7.626  0.00  0.00    -0.398 OA
HETATM   39  H   UNK N   1      32.848  18.077   7.742  0.00  0.00     0.209 HD
ENDBRANCH  37  38
ENDBRANCH  32  37
BRANCH  34  40
HETATM   40  O   UNK N   1      32.088  15.197   5.373  0.00  0.00    -0.369 OA
HETATM   41  H   UNK N   1      32.522  15.357   6.226  0.00  0.00     0.212 HD
ENDBRANCH  34  40
BRANCH  35  42
HETATM   42  O   UNK N   1      30.133  14.169   3.680  0.00  0.00    -0.388 OA
HETATM   43  H   UNK N   1      30.770  13.918   2.994  0.00  0.00     0.210 HD
ENDBRANCH  35  42
BRANCH  36  44
HETATM   44  O   UNK N   1      27.835  15.023   5.083  0.00  0.00    -0.390 OA
HETATM   45  H   UNK N   1      26.999  15.306   5.486  0.00  0.00     0.210 HD
ENDBRANCH  36  44
ENDBRANCH  30  31
ENDBRANCH   5  30
TORSDOF 18
ENDMDL
MODEL 7
REMARK VINA RESULT:      -6.3      2.248      9.467
REMARK  18 active torsions:
REMARK  status: ('A' for Active; 'I' for Inactive)
REMARK    1  A    between atoms: C_4  and  C_1 
REMARK    2  A    between atoms: O_19  and  C_1 
REMARK    3  A    between atoms: C_5  and  C_2 
REMARK    4  A    between atoms: O_20  and  C_2 
REMARK    5  A    between atoms: C_6  and  C_3 
REMARK    6  A    between atoms: O_21  and  C_3 
REMARK    7  A    between atoms: C_7  and  O_22 
REMARK    8  A    between atoms: C_8  and  O_23 
REMARK    9  A    between atoms: C_9  and  O_24 
REMARK   10  A    between atoms: C_10  and  O_25 
REMARK   11  A    between atoms: C_11  and  O_26 
REMARK   12  A    between atoms: C_12  and  O_27 
REMARK   13  A    between atoms: C_13  and  O_28 
REMARK   14  A    between atoms: C_14  and  O_33 
REMARK   15  A    between atoms: C_15  and  O_34 
REMARK   16  A    between atoms: C_16  and  O_29 
REMARK   17  A    between atoms: C_17  and  O_34 
REMARK   18  A    between atoms: C_18  and  O_33 
ROOT
HETATM    1  C   UNK N   1      29.742  17.114   8.476  0.00  0.00     0.180 C 
HETATM    2  C   UNK N   1      29.916  15.768   6.431  0.00  0.00     0.183 C 
HETATM    3  C   UNK N   1      31.443  15.962   6.524  0.00  0.00     0.204 C 
HETATM    4  C   UNK N   1      29.160  16.974   7.056  0.00  0.00     0.187 C 
HETATM    5  C   UNK N   1      31.902  16.301   7.974  0.00  0.00     0.292 C 
HETATM    6  O   UNK N   1      31.130  17.395   8.438  0.00  0.00    -0.348 OA
ENDROOT
BRANCH   4   7
HETATM    7  O   UNK N   1      29.316  18.157   6.264  0.00  0.00    -0.348 OA
BRANCH   7   8
HETATM    8  C   UNK N   1      28.068  18.589   5.715  0.00  0.00     0.292 C 
HETATM    9  C   UNK N   1      28.198  18.856   4.201  0.00  0.00     0.204 C 
HETATM   10  C   UNK N   1      26.839  19.358   3.659  0.00  0.00     0.183 C 
HETATM   11  C   UNK N   1      26.379  20.573   4.483  0.00  0.00     0.180 C 
HETATM   12  C   UNK N   1      26.385  20.196   5.974  0.00  0.00     0.179 C 
HETATM   13  O   UNK N   1      27.690  19.797   6.344  0.00  0.00    -0.348 OA
BRANCH   9  14
HETATM   14  O   UNK N   1      28.582  17.695   3.527  0.00  0.00    -0.388 OA
HETATM   15  H   UNK N   1      28.483  16.830   3.954  0.00  0.00     0.210 HD
ENDBRANCH   9  14
BRANCH  10  16
HETATM   16  O   UNK N   1      25.883  18.339   3.752  0.00  0.00    -0.390 OA
HETATM   17  H   UNK N   1      25.558  17.433   3.634  0.00  0.00     0.210 HD
ENDBRANCH  10  16
BRANCH  11  18
HETATM   18  O   UNK N   1      25.100  20.977   4.085  0.00  0.00    -0.390 OA
HETATM   19  H   UNK N   1      24.891  21.607   3.377  0.00  0.00     0.210 HD
ENDBRANCH  11  18
BRANCH  12  20
HETATM   20  C   UNK N   1      25.969  21.375   6.853  0.00  0.00     0.198 C 
BRANCH  20  21
HETATM   21  O   UNK N   1      25.930  21.011   8.201  0.00  0.00    -0.398 OA
HETATM   22  H   UNK N   1      25.483  20.888   9.053  0.00  0.00     0.209 HD
ENDBRANCH  20  21
ENDBRANCH  12  20
ENDBRANCH   7   8
ENDBRANCH   4   7
BRANCH   1  23
HETATM   23  C   UNK N   1      29.068  18.092   9.434  0.00  0.00     0.198 C 
BRANCH  23  24
HETATM   24  O   UNK N   1      27.781  18.427   8.998  0.00  0.00    -0.398 OA
HETATM   25  H   UNK N   1      26.890  18.097   8.804  0.00  0.00     0.209 HD
ENDBRANCH  23  24
ENDBRANCH   1  23
BRANCH   2  26
HETATM   26  O   UNK N   1      29.518  15.579   5.105  0.00  0.00    -0.390 OA
HETATM   27  H   UNK N   1      29.488  14.685   4.729  0.00  0.00     0.210 HD
ENDBRANCH   2  26
BRANCH   3  28
HETATM   28  O   UNK N   1      32.116  14.827   6.051  0.00  0.00    -0.388 OA
HETATM   29  H   UNK N   1      32.964  14.563   6.443  0.00  0.00     0.210 HD
ENDBRANCH   3  28
BRANCH   5  30
HETATM   30  O   UNK N   1      31.968  15.169   8.853  0.00  0.00    -0.348 OA
BRANCH  30  31
HETATM   31  C   UNK N   1      33.119  14.955   9.699  0.00  0.00     0.187 C 
HETATM   32  C   UNK N   1      34.322  15.969   9.597  0.00  0.00     0.180 C 
HETATM   33  O   UNK N   1      34.986  15.907   8.341  0.00  0.00    -0.349 OA
HETATM   34  C   UNK N   1      35.507  14.617   8.051  0.00  0.00     0.288 C 
HETATM   35  C   UNK N   1      34.404  13.547   8.058  0.00  0.00     0.204 C 
HETATM   36  C   UNK N   1      33.687  13.553   9.412  0.00  0.00     0.183 C 
BRANCH  32  37
HETATM   37  C   UNK N   1      35.302  15.809  10.772  0.00  0.00     0.198 C 
BRANCH  37  38
HETATM   38  O   UNK N   1      36.369  16.704  10.655  0.00  0.00    -0.398 OA
HETATM   39  H   UNK N   1      37.268  16.703  10.292  0.00  0.00     0.209 HD
ENDBRANCH  37  38
ENDBRANCH  32  37
BRANCH  34  40
HETATM   40  O   UNK N   1      36.552  14.284   8.923  0.00  0.00    -0.369 OA
HETATM   41  H   UNK N   1      37.319  14.786   9.241  0.00  0.00     0.212 HD
ENDBRANCH  34  40
BRANCH  35  42
HETATM   42  O   UNK N   1      34.961  12.290   7.810  0.00  0.00    -0.388 OA
HETATM   43  H   UNK N   1      35.917  12.145   7.746  0.00  0.00     0.210 HD
ENDBRANCH  35  42
BRANCH  36  44
HETATM   44  O   UNK N   1      32.664  12.600   9.425  0.00  0.00    -0.390 OA
HETATM   45  H   UNK N   1      31.946  12.519   8.778  0.00  0.00     0.210 HD
ENDBRANCH  36  44
ENDBRANCH  30  31
ENDBRANCH   5  30
TORSDOF 18
ENDMDL
MODEL 8
REMARK VINA RESULT:      -6.3      2.577      8.524
REMARK  18 active torsions:
REMARK  status: ('A' for Active; 'I' for Inactive)
REMARK    1  A    between atoms: C_4  and  C_1 
REMARK    2  A    between atoms: O_19  and  C_1 
REMARK    3  A    between atoms: C_5  and  C_2 
REMARK    4  A    between atoms: O_20  and  C_2 
REMARK    5  A    between atoms: C_6  and  C_3 
REMARK    6  A    between atoms: O_21  and  C_3 
REMARK    7  A    between atoms: C_7  and  O_22 
REMARK    8  A    between atoms: C_8  and  O_23 
REMARK    9  A    between atoms: C_9  and  O_24 
REMARK   10  A    between atoms: C_10  and  O_25 
REMARK   11  A    between atoms: C_11  and  O_26 
REMARK   12  A    between atoms: C_12  and  O_27 
REMARK   13  A    between atoms: C_13  and  O_28 
REMARK   14  A    between atoms: C_14  and  O_33 
REMARK   15  A    between atoms: C_15  and  O_34 
REMARK   16  A    between atoms: C_16  and  O_29 
REMARK   17  A    between atoms: C_17  and  O_34 
REMARK   18  A    between atoms: C_18  and  O_33 
ROOT
HETATM    1  C   UNK N   1      35.338  13.045  10.014  0.00  0.00     0.180 C 
HETATM    2  C   UNK N   1      36.495  15.005  10.932  0.00  0.00     0.183 C 
HETATM    3  C   UNK N   1      35.945  14.589  12.312  0.00  0.00     0.204 C 
HETATM    4  C   UNK N   1      35.540  14.556   9.790  0.00  0.00     0.187 C 
HETATM    5  C   UNK N   1      35.582  13.075  12.363  0.00  0.00     0.292 C 
HETATM    6  O   UNK N   1      34.731  12.786  11.266  0.00  0.00    -0.348 OA
ENDROOT
BRANCH   4   7
HETATM    7  O   UNK N   1      34.315  15.297   9.811  0.00  0.00    -0.348 OA
BRANCH   7   8
HETATM    8  C   UNK N   1      34.012  15.845   8.526  0.00  0.00     0.292 C 
HETATM    9  C   UNK N   1      33.809  17.372   8.615  0.00  0.00     0.204 C 
HETATM   10  C   UNK N   1      33.444  17.916   7.212  0.00  0.00     0.183 C 
HETATM   11  C   UNK N   1      32.232  17.142   6.666  0.00  0.00     0.180 C 
HETATM   12  C   UNK N   1      32.535  15.635   6.721  0.00  0.00     0.179 C 
HETATM   13  O   UNK N   1      32.810  15.268   8.058  0.00  0.00    -0.348 OA
BRANCH   9  14
HETATM   14  O   UNK N   1      34.966  17.997   9.084  0.00  0.00    -0.388 OA
HETATM   15  H   UNK N   1      34.899  18.771   9.664  0.00  0.00     0.210 HD
ENDBRANCH   9  14
BRANCH  10  16
HETATM   16  O   UNK N   1      34.531  17.759   6.344  0.00  0.00    -0.390 OA
HETATM   17  H   UNK N   1      35.356  17.346   6.041  0.00  0.00     0.210 HD
ENDBRANCH  10  16
BRANCH  11  18
HETATM   18  O   UNK N   1      31.952  17.538   5.354  0.00  0.00    -0.390 OA
HETATM   19  H   UNK N   1      31.212  18.096   5.067  0.00  0.00     0.210 HD
ENDBRANCH  11  18
BRANCH  12  20
HETATM   20  C   UNK N   1      31.353  14.806   6.221  0.00  0.00     0.198 C 
BRANCH  20  21
HETATM   21  O   UNK N   1      31.632  13.439   6.283  0.00  0.00    -0.398 OA
HETATM   22  H   UNK N   1      31.709  12.552   5.899  0.00  0.00     0.209 HD
ENDBRANCH  20  21
ENDBRANCH  12  20
ENDBRANCH   7   8
ENDBRANCH   4   7
BRANCH   1  23
HETATM   23  C   UNK N   1      34.603  12.253   8.936  0.00  0.00     0.198 C 
BRANCH  23  24
HETATM   24  O   UNK N   1      33.238  12.562   8.919  0.00  0.00    -0.398 OA
HETATM   25  H   UNK N   1      32.399  12.458   8.443  0.00  0.00     0.209 HD
ENDBRANCH  23  24
ENDBRANCH   1  23
BRANCH   2  26
HETATM   26  O   UNK N   1      36.705  16.385  10.877  0.00  0.00    -0.390 OA
HETATM   27  H   UNK N   1      36.054  16.992  11.264  0.00  0.00     0.210 HD
ENDBRANCH   2  26
BRANCH   3  28
HETATM   28  O   UNK N   1      36.858  14.906  13.325  0.00  0.00    -0.388 OA
HETATM   29  H   UNK N   1      36.738  15.709  13.857  0.00  0.00     0.210 HD
ENDBRANCH   3  28
BRANCH   5  30
HETATM   30  O   UNK N   1      36.708  12.201  12.522  0.00  0.00    -0.348 OA
BRANCH  30  31
HETATM   31  C   UNK N   1      36.688  11.136  13.497  0.00  0.00     0.187 C 
HETATM   32  C   UNK N   1      35.431  10.187  13.542  0.00  0.00     0.180 C 
HETATM   33  O   UNK N   1      34.249  10.861  13.960  0.00  0.00    -0.349 OA
HETATM   34  C   UNK N   1      34.370  11.447  15.248  0.00  0.00     0.288 C 
HETATM   35  C   UNK N   1      35.533  12.449  15.306  0.00  0.00     0.204 C 
HETATM   36  C   UNK N   1      36.836  11.752  14.901  0.00  0.00     0.183 C 
BRANCH  32  37
HETATM   37  C   UNK N   1      35.699   8.927  14.383  0.00  0.00     0.198 C 
BRANCH  37  38
HETATM   38  O   UNK N   1      36.917   8.341  14.027  0.00  0.00    -0.398 OA
HETATM   39  H   UNK N   1      37.637   8.511  13.399  0.00  0.00     0.209 HD
ENDBRANCH  37  38
ENDBRANCH  32  37
BRANCH  34  40
HETATM   40  O   UNK N   1      34.485  10.467  16.243  0.00  0.00    -0.369 OA
HETATM   41  H   UNK N   1      34.481  10.519  17.212  0.00  0.00     0.212 HD
ENDBRANCH  34  40
BRANCH  35  42
HETATM   42  O   UNK N   1      35.645  12.972  16.597  0.00  0.00    -0.388 OA
HETATM   43  H   UNK N   1      35.321  12.503  17.381  0.00  0.00     0.210 HD
ENDBRANCH  35  42
BRANCH  36  44
HETATM   44  O   UNK N   1      37.901  12.658  14.927  0.00  0.00    -0.390 OA
HETATM   45  H   UNK N   1      37.832  13.626  14.927  0.00  0.00     0.210 HD
ENDBRANCH  36  44
ENDBRANCH  30  31
ENDBRANCH   5  30
TORSDOF 18
ENDMDL
MODEL 9
REMARK VINA RESULT:      -6.1      1.791      8.894
REMARK  18 active torsions:
REMARK  status: ('A' for Active; 'I' for Inactive)
REMARK    1  A    between atoms: C_4  and  C_1 
REMARK    2  A    between atoms: O_19  and  C_1 
REMARK    3  A    between atoms: C_5  and  C_2 
REMARK    4  A    between atoms: O_20  and  C_2 
REMARK    5  A    between atoms: C_6  and  C_3 
REMARK    6  A    between atoms: O_21  and  C_3 
REMARK    7  A    between atoms: C_7  and  O_22 
REMARK    8  A    between atoms: C_8  and  O_23 
REMARK    9  A    between atoms: C_9  and  O_24 
REMARK   10  A    between atoms: C_10  and  O_25 
REMARK   11  A    between atoms: C_11  and  O_26 
REMARK   12  A    between atoms: C_12  and  O_27 
REMARK   13  A    between atoms: C_13  and  O_28 
REMARK   14  A    between atoms: C_14  and  O_33 
REMARK   15  A    between atoms: C_15  and  O_34 
REMARK   16  A    between atoms: C_16  and  O_29 
REMARK   17  A    between atoms: C_17  and  O_34 
REMARK   18  A    between atoms: C_18  and  O_33 
ROOT
HETATM    1  C   UNK N   1      33.253  16.197   6.972  0.00  0.00     0.180 C 
HETATM    2  C   UNK N   1      32.009  16.512   9.065  0.00  0.00     0.183 C 
HETATM    3  C   UNK N   1      32.440  15.081   9.447  0.00  0.00     0.204 C 
HETATM    4  C   UNK N   1      31.892  16.667   7.522  0.00  0.00     0.187 C 
HETATM    5  C   UNK N   1      33.717  14.630   8.678  0.00  0.00     0.292 C 
HETATM    6  O   UNK N   1      33.497  14.840   7.293  0.00  0.00    -0.348 OA
ENDROOT
BRANCH   4   7
HETATM    7  O   UNK N   1      30.787  15.920   7.003  0.00  0.00    -0.348 OA
BRANCH   7   8
HETATM    8  C   UNK N   1      29.946  16.732   6.179  0.00  0.00     0.292 C 
HETATM    9  C   UNK N   1      28.549  16.893   6.813  0.00  0.00     0.204 C 
HETATM   10  C   UNK N   1      27.662  17.743   5.871  0.00  0.00     0.183 C 
HETATM   11  C   UNK N   1      27.656  17.110   4.468  0.00  0.00     0.180 C 
HETATM   12  C   UNK N   1      29.110  16.922   4.000  0.00  0.00     0.179 C 
HETATM   13  O   UNK N   1      29.790  16.098   4.926  0.00  0.00    -0.348 OA
BRANCH   9  14
HETATM   14  O   UNK N   1      28.642  17.507   8.063  0.00  0.00    -0.388 OA
HETATM   15  H   UNK N   1      27.885  17.494   8.669  0.00  0.00     0.210 HD
ENDBRANCH   9  14
BRANCH  10  16
HETATM   16  O   UNK N   1      28.163  19.049   5.795  0.00  0.00    -0.390 OA
HETATM   17  H   UNK N   1      28.153  20.000   5.984  0.00  0.00     0.210 HD
ENDBRANCH  10  16
BRANCH  11  18
HETATM   18  O   UNK N   1      26.953  17.920   3.571  0.00  0.00    -0.390 OA
HETATM   19  H   UNK N   1      26.044  18.241   3.677  0.00  0.00     0.210 HD
ENDBRANCH  11  18
BRANCH  12  20
HETATM   20  C   UNK N   1      29.174  16.265   2.623  0.00  0.00     0.198 C 
BRANCH  20  21
HETATM   21  O   UNK N   1      28.027  15.510   2.369  0.00  0.00    -0.398 OA
HETATM   22  H   UNK N   1      27.536  14.676   2.297  0.00  0.00     0.209 HD
ENDBRANCH  20  21
ENDBRANCH  12  20
ENDBRANCH   7   8
ENDBRANCH   4   7
BRANCH   1  23
HETATM   23  C   UNK N   1      33.540  16.413   5.489  0.00  0.00     0.198 C 
BRANCH  23  24
HETATM   24  O   UNK N   1      33.649  17.774   5.184  0.00  0.00    -0.398 OA
HETATM   25  H   UNK N   1      33.455  18.679   5.476  0.00  0.00     0.209 HD
ENDBRANCH  23  24
ENDBRANCH   1  23
BRANCH   2  26
HETATM   26  O   UNK N   1      30.801  16.848   9.680  0.00  0.00    -0.390 OA
HETATM   27  H   UNK N   1      30.070  16.210   9.697  0.00  0.00     0.210 HD
ENDBRANCH   2  26
BRANCH   3  28
HETATM   28  O   UNK N   1      32.641  14.977  10.830  0.00  0.00    -0.388 OA
HETATM   29  H   UNK N   1      32.782  15.775  11.364  0.00  0.00     0.210 HD
ENDBRANCH   3  28
BRANCH   5  30
HETATM   30  O   UNK N   1      34.942  15.164   9.200  0.00  0.00    -0.348 OA
BRANCH  30  31
HETATM   31  C   UNK N   1      36.015  14.290   9.612  0.00  0.00     0.187 C 
HETATM   32  C   UNK N   1      35.672  12.786   9.937  0.00  0.00     0.180 C 
HETATM   33  O   UNK N   1      34.851  12.649  11.092  0.00  0.00    -0.349 OA
HETATM   34  C   UNK N   1      35.440  13.201  12.261  0.00  0.00     0.288 C 
HETATM   35  C   UNK N   1      35.760  14.693  12.082  0.00  0.00     0.204 C 
HETATM   36  C   UNK N   1      36.677  14.882  10.870  0.00  0.00     0.183 C 
BRANCH  32  37
HETATM   37  C   UNK N   1      36.941  11.921  10.031  0.00  0.00     0.198 C 
BRANCH  37  38
HETATM   38  O   UNK N   1      36.686  10.617   9.596  0.00  0.00    -0.398 OA
HETATM   39  H   UNK N   1      36.206   9.837   9.914  0.00  0.00     0.209 HD
ENDBRANCH  37  38
ENDBRANCH  32  37
BRANCH  34  40
HETATM   40  O   UNK N   1      36.572  12.475  12.650  0.00  0.00    -0.369 OA
HETATM   41  H   UNK N   1      36.953  12.280  13.522  0.00  0.00     0.212 HD
ENDBRANCH  34  40
BRANCH  35  42
HETATM   42  O   UNK N   1      36.373  15.189  13.235  0.00  0.00    -0.388 OA
HETATM   43  H   UNK N   1      36.725  14.611  13.930  0.00  0.00     0.210 HD
ENDBRANCH  35  42
BRANCH  36  44
HETATM   44  O   UNK N   1      36.959  16.239  10.679  0.00  0.00    -0.390 OA
HETATM   45  H   UNK N   1      37.760  16.608  10.275  0.00  0.00     0.210 HD
ENDBRANCH  36  44
ENDBRANCH  30  31
ENDBRANCH   5  30
TORSDOF 18
ENDMDL
