REMARK  6 active torsions:
REMARK  status: ('A' for Active; 'I' for Inactive)
REMARK    1  A    between atoms: C_2  and  O_8 
REMARK    2  A    between atoms: C_3  and  O_9 
REMARK    3  A    between atoms: C_4  and  O_13 
REMARK    4  A    between atoms: C_5  and  C_6 
REMARK    5  A    between atoms: O_11  and  C_6 
REMARK    6  A    between atoms: C_7  and  O_12 
ROOT
HETATM    1  C   UNK N   1       1.789   1.316   0.195  0.00  0.00     0.183 C 
HETATM    2  C   UNK N   1       0.575   2.027  -0.409  0.00  0.00     0.204 C 
HETATM    3  C   UNK N   1       1.761  -0.183  -0.184  0.00  0.00     0.191 C 
HETATM    4  C   UNK N   1       0.379  -0.762   0.232  0.00  0.00     0.253 C 
HETATM    5  C   UNK N   1      -0.698   1.303   0.044  0.00  0.00     0.289 C 
HETATM    6  O   UNK N   1      -0.673  -0.042  -0.397  0.00  0.00    -0.340 OA
ENDROOT
BRANCH   4   7
HETATM    7  C   UNK N   1       0.261  -2.221  -0.143  0.00  0.00     0.172 C 
HETATM    8  O   UNK N   1      -0.634  -2.597  -0.888  0.00  0.00    -0.648 OA
BRANCH   7   9
HETATM    9  O   UNK N   1       1.123  -3.123   0.360  0.00  0.00    -0.774 OA
HETATM   10  H   UNK N   1       0.879  -3.957   0.711  0.00  0.00     0.167 HD
ENDBRANCH   7   9
ENDBRANCH   4   7
BRANCH   3  11
HETATM   11  O   UNK N   1       2.779  -0.885   0.504  0.00  0.00    -0.385 OA
HETATM   12  C   UNK N   1       3.998  -0.706  -0.167  0.00  0.00     0.202 C 
ENDBRANCH   3  11
BRANCH   1  13
HETATM   13  O   UNK N   1       2.960   1.926  -0.262  0.00  0.00    -0.390 OA
HETATM   14  H   UNK N   1       3.733   1.433  -0.579  0.00  0.00     0.210 HD
ENDBRANCH   1  13
BRANCH   5  15
HETATM   15  O   UNK N   1      -1.810   1.935  -0.516  0.00  0.00    -0.368 OA
HETATM   16  H   UNK N   1      -1.815   2.823  -0.906  0.00  0.00     0.212 HD
ENDBRANCH   5  15
BRANCH   2  17
HETATM   17  O   UNK N   1       0.547   3.360   0.011  0.00  0.00    -0.388 OA
HETATM   18  H   UNK N   1       1.339   3.839   0.303  0.00  0.00     0.210 HD
ENDBRANCH   2  17
TORSDOF 6
