REMARK  9 active torsions:
REMARK  status: ('A' for Active; 'I' for Inactive)
REMARK    1  A    between atoms: O_1  and  C_2 
REMARK    2  A    between atoms: C_5  and  C_6 
REMARK    3  A    between atoms: C_6  and  C_7 
REMARK    4  A    between atoms: C_7  and  N_8 
REMARK       I    between atoms: N_8  and  C_9 
REMARK    5  A    between atoms: C_12  and  S_13 
REMARK    6  A    between atoms: S_13  and  C_14 
REMARK    7  A    between atoms: C_14  and  C_15 
REMARK    8  A    between atoms: C_15  and  C_16 
REMARK    9  A    between atoms: C_16  and  C_17 
REMARK       I    between atoms: C_26  and  N_29 
ROOT
HETATM    1  N   UNK N   1       5.250  -5.066  -0.258  0.00  0.00    -0.225 N 
HETATM    2  C   UNK N   1       3.894  -5.456  -0.228  0.00  0.00     0.694 A 
HETATM    3  N   UNK N   1       3.604  -6.760  -0.375  0.00  0.00    -0.169 N 
ATOM      4  HN  UNK N   1       4.345  -7.415  -0.621  1.00  0.00     0.186 HD
HETATM    5  C   UNK N   1       2.347  -7.213  -0.202  0.00  0.00     0.174 A 
HETATM    6  N   UNK N   1       1.346  -6.346   0.087  0.00  0.00    -0.169 N 
ATOM      7  HN  UNK N   1       0.396  -6.689   0.222  1.00  0.00     0.186 HD
HETATM    8  C   UNK N   1       1.613  -5.014   0.195  0.00  0.00     0.697 A 
HETATM    9  N   UNK N   1       2.898  -4.572   0.062  0.00  0.00    -0.022 N 
ATOM     10  HN  UNK N   1       3.113  -3.582   0.179  1.00  0.00     0.203 HD
HETATM   11  N   UNK N   1       0.563  -4.104   0.506  0.00  0.00    -0.214 N 
HETATM   12  C   UNK N   1      -0.786  -4.579   0.722  0.00  0.00     0.160 C 
HETATM   13  C   UNK N   1      -1.739  -3.782  -0.166  0.00  0.00     0.134 C 
HETATM   14  N   UNK N   1      -1.569  -2.350   0.086  0.00  0.00    -0.418 N 
HETATM   15  C   UNK N   1      -0.209  -1.959  -0.295  0.00  0.00     0.134 C 
HETATM   16  C   UNK N   1       0.808  -2.682   0.588  0.00  0.00     0.160 C 
HETATM   17  H   UNK N   1       5.910  -5.660  -0.683  0.00  0.00     0.177 HD
HETATM   18  H   UNK N   1      -2.281  -1.726   0.466  0.00  0.00     0.153 HD
ENDROOT
BRANCH   1  19
HETATM   19  C   UNK N   1       5.691  -3.831   0.313  0.00  0.00     0.142 C 
BRANCH  19  20
HETATM   20  C   UNK N   1       6.401  -3.013  -0.737  0.00  0.00     0.058 C 
BRANCH  20  21
HETATM   21  C   UNK N   1       6.004  -1.599  -0.551  0.00  0.00    -0.057 A 
HETATM   22  C   UNK N   1       6.959  -0.646  -0.190  0.00  0.00     0.010 A 
HETATM   23  C   UNK N   1       6.573   0.681   0.014  0.00  0.00     0.037 A 
HETATM   24  C   UNK N   1       5.233   1.052  -0.143  0.00  0.00     0.065 A 
HETATM   25  C   UNK N   1       4.279   0.098  -0.507  0.00  0.00     0.037 A 
HETATM   26  C   UNK N   1       4.664  -1.226  -0.712  0.00  0.00     0.010 A 
BRANCH  24  27
HETATM   27  O   UNK N   1       4.861   2.325   0.057  0.00  0.00    -0.361 OA
HETATM   28  H   UNK N   1       5.501   2.995   0.196  0.00  0.00     0.217 HD
ENDBRANCH  24  27
ENDBRANCH  20  21
ENDBRANCH  19  20
ENDBRANCH   1  19
BRANCH   5  29
HETATM   29  S   UNK N   1       2.067  -8.971  -0.202  0.00  0.00    -0.093 SA
BRANCH  29  30
HETATM   30  C   UNK N   1       3.145  -9.235   1.266  0.00  0.00     0.082 C 
BRANCH  30  31
HETATM   31  C   UNK N   1       4.638  -8.935   1.022  0.00  0.00     0.015 C 
BRANCH  31  32
HETATM   32  C   UNK N   1       5.182  -9.564  -0.259  0.00  0.00     0.039 C 
BRANCH  32  33
HETATM   33  C   UNK N   1       5.052 -11.037  -0.168  0.00  0.00    -0.058 A 
HETATM   34  C   UNK N   1       5.813 -11.752   0.762  0.00  0.00     0.009 A 
HETATM   35  C   UNK N   1       5.600 -13.120   0.928  0.00  0.00     0.024 A 
HETATM   36  C   UNK N   1       4.619 -13.769   0.172  0.00  0.00     0.034 A 
HETATM   37 Cl   UNK N   1       4.312 -15.470   0.423  0.00  0.00    -0.084 Cl
HETATM   38  C   UNK N   1       3.869 -13.056  -0.768  0.00  0.00     0.024 A 
HETATM   39  C   UNK N   1       4.086 -11.689  -0.938  0.00  0.00     0.009 A 
ENDBRANCH  32  33
ENDBRANCH  31  32
ENDBRANCH  30  31
ENDBRANCH  29  30
ENDBRANCH   5  29
TORSDOF 9
