MODEL 1
REMARK VINA RESULT:      -5.6      0.000      0.000
REMARK  15 active torsions:
REMARK  status: ('A' for Active; 'I' for Inactive)
REMARK    1  A    between atoms: C_2  and  N_1 
REMARK    2  A    between atoms: C_2  and  C_3 
REMARK    3  A    between atoms: C_2  and  C_17 
REMARK    4  A    between atoms: C_3  and  C_4 
REMARK    5  A    between atoms: C_4  and  C_5 
REMARK    6  A    between atoms: C_5  and  C_6 
REMARK    7  A    between atoms: C_6  and  N_7 
REMARK    8  A    between atoms: C_8  and  N_7 
REMARK    9  A    between atoms: C_8  and  C_9 
REMARK   10  A    between atoms: C_8  and  C_14 
REMARK   11  A    between atoms: C_9  and  C_10 
REMARK   12  A    between atoms: C_10  and  C_11 
REMARK   13  A    between atoms: C_11  and  O_12 
REMARK   14  A    between atoms: C_14  and  O_15 
REMARK   15  A    between atoms: C_17  and  O_18 
ROOT
HETATM    1  N   UNK N   1      32.624  17.258   9.096  0.00  0.00    -0.408 N 
HETATM    2  H   UNK N   1      32.216  18.127   9.440  0.00  0.00     0.154 HD
ENDROOT
BRANCH   1   3
HETATM    3  C   UNK N   1      31.909  16.023   8.823  0.00  0.00     0.114 C 
BRANCH   3   4
HETATM    4  C   UNK N   1      31.592  15.943   7.340  0.00  0.00     0.019 C 
BRANCH   4   5
HETATM    5  C   UNK N   1      30.936  17.227   6.849  0.00  0.00     0.004 C 
BRANCH   5   6
HETATM    6  C   UNK N   1      29.440  17.191   7.118  0.00  0.00     0.035 C 
BRANCH   6   7
HETATM    7  C   UNK N   1      29.005  18.362   7.992  0.00  0.00     0.173 C 
BRANCH   7   8
HETATM    8  N   UNK N   1      27.739  18.871   7.492  0.00  0.00    -0.418 N 
HETATM    9  H   UNK N   1      26.910  19.179   8.001  0.00  0.00     0.150 HD
HETATM   10  H   UNK N   1      27.668  18.928   6.476  0.00  0.00     0.150 HD
ENDBRANCH   7   8
BRANCH   7  11
HETATM   11  C   UNK N   1      28.859  18.011   9.450  0.00  0.00     0.163 C 
HETATM   12  O   UNK N   1      27.948  17.291   9.838  0.00  0.00    -0.648 OA
BRANCH  11  13
HETATM   13  O   UNK N   1      29.744  18.492  10.341  0.00  0.00    -0.775 OA
HETATM   14  H   UNK N   1      30.371  19.139  10.087  0.00  0.00     0.167 HD
ENDBRANCH  11  13
ENDBRANCH   7  11
ENDBRANCH   6   7
ENDBRANCH   5   6
ENDBRANCH   4   5
ENDBRANCH   3   4
ENDBRANCH   1   3
BRANCH   1  15
HETATM   15  C   UNK N   1      34.025  17.030   8.792  0.00  0.00     0.176 C 
BRANCH  15  16
HETATM   16  C   UNK N   1      34.769  16.872  10.107  0.00  0.00     0.046 C 
BRANCH  16  17
HETATM   17  C   UNK N   1      35.530  15.563  10.158  0.00  0.00     0.112 C 
BRANCH  17  18
HETATM   18  C   UNK N   1      35.448  15.000  11.538  0.00  0.00     0.139 C 
HETATM   19  O   UNK N   1      34.430  14.444  11.915  0.00  0.00    -0.650 OA
BRANCH  18  20
HETATM   20  O   UNK N   1      36.501  15.110  12.368  0.00  0.00    -0.776 OA
HETATM   21  H   UNK N   1      36.439  14.939  13.287  0.00  0.00     0.167 HD
ENDBRANCH  18  20
ENDBRANCH  17  18
ENDBRANCH  16  17
ENDBRANCH  15  16
BRANCH  15  22
HETATM   22  C   UNK N   1      34.562  18.166   7.953  0.00  0.00     0.163 C 
HETATM   23  O   UNK N   1      34.382  18.166   6.747  0.00  0.00    -0.648 OA
BRANCH  22  24
HETATM   24  O   UNK N   1      35.243  19.183   8.519  0.00  0.00    -0.775 OA
HETATM   25  H   UNK N   1      36.079  19.144   8.941  0.00  0.00     0.167 HD
ENDBRANCH  22  24
ENDBRANCH  15  22
ENDBRANCH   1  15
TORSDOF 15
ENDMDL
MODEL 2
REMARK VINA RESULT:      -5.4      3.672      7.010
REMARK  15 active torsions:
REMARK  status: ('A' for Active; 'I' for Inactive)
REMARK    1  A    between atoms: C_2  and  N_1 
REMARK    2  A    between atoms: C_2  and  C_3 
REMARK    3  A    between atoms: C_2  and  C_17 
REMARK    4  A    between atoms: C_3  and  C_4 
REMARK    5  A    between atoms: C_4  and  C_5 
REMARK    6  A    between atoms: C_5  and  C_6 
REMARK    7  A    between atoms: C_6  and  N_7 
REMARK    8  A    between atoms: C_8  and  N_7 
REMARK    9  A    between atoms: C_8  and  C_9 
REMARK   10  A    between atoms: C_8  and  C_14 
REMARK   11  A    between atoms: C_9  and  C_10 
REMARK   12  A    between atoms: C_10  and  C_11 
REMARK   13  A    between atoms: C_11  and  O_12 
REMARK   14  A    between atoms: C_14  and  O_15 
REMARK   15  A    between atoms: C_17  and  O_18 
ROOT
HETATM    1  N   UNK N   1      34.158  14.493  10.788  0.00  0.00    -0.408 N 
HETATM    2  H   UNK N   1      33.954  14.158  11.729  0.00  0.00     0.154 HD
ENDROOT
BRANCH   1   3
HETATM    3  C   UNK N   1      34.373  13.670   9.611  0.00  0.00     0.114 C 
BRANCH   3   4
HETATM    4  C   UNK N   1      34.505  12.216  10.030  0.00  0.00     0.019 C 
BRANCH   4   5
HETATM    5  C   UNK N   1      35.911  11.917  10.534  0.00  0.00     0.004 C 
BRANCH   5   6
HETATM    6  C   UNK N   1      35.885  11.622  12.025  0.00  0.00     0.035 C 
BRANCH   6   7
HETATM    7  C   UNK N   1      36.945  12.425  12.769  0.00  0.00     0.173 C 
BRANCH   7   8
HETATM    8  N   UNK N   1      37.767  13.125  11.796  0.00  0.00    -0.418 N 
HETATM    9  H   UNK N   1      38.624  13.663  11.928  0.00  0.00     0.150 HD
HETATM   10  H   UNK N   1      37.436  13.070  10.833  0.00  0.00     0.150 HD
ENDBRANCH   7   8
BRANCH   7  11
HETATM   11  C   UNK N   1      36.379  13.420  13.749  0.00  0.00     0.163 C 
HETATM   12  O   UNK N   1      35.239  13.848  13.627  0.00  0.00    -0.648 OA
BRANCH  11  13
HETATM   13  O   UNK N   1      37.135  13.844  14.777  0.00  0.00    -0.775 OA
HETATM   14  H   UNK N   1      37.333  14.754  14.880  0.00  0.00     0.167 HD
ENDBRANCH  11  13
ENDBRANCH   7  11
ENDBRANCH   6   7
ENDBRANCH   5   6
ENDBRANCH   4   5
ENDBRANCH   3   4
ENDBRANCH   1   3
BRANCH   1  15
HETATM   15  C   UNK N   1      34.284  15.882  10.381  0.00  0.00     0.176 C 
BRANCH  15  16
HETATM   16  C   UNK N   1      34.071  15.949   8.879  0.00  0.00     0.046 C 
BRANCH  16  17
HETATM   17  C   UNK N   1      33.330  17.210   8.481  0.00  0.00     0.112 C 
BRANCH  17  18
HETATM   18  C   UNK N   1      34.246  18.091   7.699  0.00  0.00     0.139 C 
HETATM   19  O   UNK N   1      34.385  17.922   6.499  0.00  0.00    -0.650 OA
BRANCH  18  20
HETATM   20  O   UNK N   1      34.920  19.075   8.321  0.00  0.00    -0.776 OA
HETATM   21  H   UNK N   1      34.490  19.779   8.765  0.00  0.00     0.167 HD
ENDBRANCH  18  20
ENDBRANCH  17  18
ENDBRANCH  16  17
ENDBRANCH  15  16
BRANCH  15  22
HETATM   22  C   UNK N   1      35.629  16.424  10.803  0.00  0.00     0.163 C 
HETATM   23  O   UNK N   1      35.920  17.582  10.554  0.00  0.00    -0.648 OA
BRANCH  22  24
HETATM   24  O   UNK N   1      36.518  15.643  11.451  0.00  0.00    -0.775 OA
HETATM   25  H   UNK N   1      36.740  14.753  11.260  0.00  0.00     0.167 HD
ENDBRANCH  22  24
ENDBRANCH  15  22
ENDBRANCH   1  15
TORSDOF 15
ENDMDL
MODEL 3
REMARK VINA RESULT:      -5.2      2.779      4.267
REMARK  15 active torsions:
REMARK  status: ('A' for Active; 'I' for Inactive)
REMARK    1  A    between atoms: C_2  and  N_1 
REMARK    2  A    between atoms: C_2  and  C_3 
REMARK    3  A    between atoms: C_2  and  C_17 
REMARK    4  A    between atoms: C_3  and  C_4 
REMARK    5  A    between atoms: C_4  and  C_5 
REMARK    6  A    between atoms: C_5  and  C_6 
REMARK    7  A    between atoms: C_6  and  N_7 
REMARK    8  A    between atoms: C_8  and  N_7 
REMARK    9  A    between atoms: C_8  and  C_9 
REMARK   10  A    between atoms: C_8  and  C_14 
REMARK   11  A    between atoms: C_9  and  C_10 
REMARK   12  A    between atoms: C_10  and  C_11 
REMARK   13  A    between atoms: C_11  and  O_12 
REMARK   14  A    between atoms: C_14  and  O_15 
REMARK   15  A    between atoms: C_17  and  O_18 
ROOT
HETATM    1  N   UNK N   1      31.320  17.581   8.954  0.00  0.00    -0.408 N 
HETATM    2  H   UNK N   1      31.884  18.424   9.065  0.00  0.00     0.154 HD
ENDROOT
BRANCH   1   3
HETATM    3  C   UNK N   1      30.057  17.301   9.615  0.00  0.00     0.114 C 
BRANCH   3   4
HETATM    4  C   UNK N   1      29.121  18.484   9.436  0.00  0.00     0.019 C 
BRANCH   4   5
HETATM    5  C   UNK N   1      28.075  18.197   8.367  0.00  0.00     0.004 C 
BRANCH   5   6
HETATM    6  C   UNK N   1      28.067  19.305   7.326  0.00  0.00     0.035 C 
BRANCH   6   7
HETATM    7  C   UNK N   1      27.377  18.857   6.043  0.00  0.00     0.173 C 
BRANCH   7   8
HETATM    8  N   UNK N   1      26.070  19.488   5.971  0.00  0.00    -0.418 N 
HETATM    9  H   UNK N   1      25.682  20.110   5.262  0.00  0.00     0.150 HD
HETATM   10  H   UNK N   1      25.447  19.278   6.750  0.00  0.00     0.150 HD
ENDBRANCH   7   8
BRANCH   7  11
HETATM   11  C   UNK N   1      28.154  19.177   4.791  0.00  0.00     0.163 C 
HETATM   12  O   UNK N   1      27.827  20.106   4.065  0.00  0.00    -0.648 OA
BRANCH  11  13
HETATM   13  O   UNK N   1      29.225  18.432   4.466  0.00  0.00    -0.775 OA
HETATM   14  H   UNK N   1      30.044  18.559   4.902  0.00  0.00     0.167 HD
ENDBRANCH  11  13
ENDBRANCH   7  11
ENDBRANCH   6   7
ENDBRANCH   5   6
ENDBRANCH   4   5
ENDBRANCH   3   4
ENDBRANCH   1   3
BRANCH   1  15
HETATM   15  C   UNK N   1      31.633  16.445   8.106  0.00  0.00     0.176 C 
BRANCH  15  16
HETATM   16  C   UNK N   1      33.141  16.259   8.114  0.00  0.00     0.046 C 
BRANCH  16  17
HETATM   17  C   UNK N   1      33.826  17.335   8.933  0.00  0.00     0.112 C 
BRANCH  17  18
HETATM   18  C   UNK N   1      34.557  18.259   8.016  0.00  0.00     0.139 C 
HETATM   19  O   UNK N   1      35.209  19.185   8.470  0.00  0.00    -0.650 OA
BRANCH  18  20
HETATM   20  O   UNK N   1      34.493  18.070   6.686  0.00  0.00    -0.776 OA
HETATM   21  H   UNK N   1      33.718  17.767   6.255  0.00  0.00     0.167 HD
ENDBRANCH  18  20
ENDBRANCH  17  18
ENDBRANCH  16  17
ENDBRANCH  15  16
BRANCH  15  22
HETATM   22  C   UNK N   1      31.083  16.670   6.717  0.00  0.00     0.163 C 
HETATM   23  O   UNK N   1      31.690  17.381   5.933  0.00  0.00    -0.648 OA
BRANCH  22  24
HETATM   24  O   UNK N   1      29.925  16.098   6.331  0.00  0.00    -0.775 OA
HETATM   25  H   UNK N   1      29.805  15.241   5.972  0.00  0.00     0.167 HD
ENDBRANCH  22  24
ENDBRANCH  15  22
ENDBRANCH   1  15
TORSDOF 15
ENDMDL
MODEL 4
REMARK VINA RESULT:      -5.2     12.509     14.255
REMARK  15 active torsions:
REMARK  status: ('A' for Active; 'I' for Inactive)
REMARK    1  A    between atoms: C_2  and  N_1 
REMARK    2  A    between atoms: C_2  and  C_3 
REMARK    3  A    between atoms: C_2  and  C_17 
REMARK    4  A    between atoms: C_3  and  C_4 
REMARK    5  A    between atoms: C_4  and  C_5 
REMARK    6  A    between atoms: C_5  and  C_6 
REMARK    7  A    between atoms: C_6  and  N_7 
REMARK    8  A    between atoms: C_8  and  N_7 
REMARK    9  A    between atoms: C_8  and  C_9 
REMARK   10  A    between atoms: C_8  and  C_14 
REMARK   11  A    between atoms: C_9  and  C_10 
REMARK   12  A    between atoms: C_10  and  C_11 
REMARK   13  A    between atoms: C_11  and  O_12 
REMARK   14  A    between atoms: C_14  and  O_15 
REMARK   15  A    between atoms: C_17  and  O_18 
ROOT
HETATM    1  N   UNK N   1      19.697  15.896   2.616  0.00  0.00    -0.408 N 
HETATM    2  H   UNK N   1      18.787  16.190   2.970  0.00  0.00     0.154 HD
ENDROOT
BRANCH   1   3
HETATM    3  C   UNK N   1      20.943  15.877   3.362  0.00  0.00     0.114 C 
BRANCH   3   4
HETATM    4  C   UNK N   1      20.959  17.032   4.347  0.00  0.00     0.019 C 
BRANCH   4   5
HETATM    5  C   UNK N   1      21.901  18.135   3.884  0.00  0.00     0.004 C 
BRANCH   5   6
HETATM    6  C   UNK N   1      21.119  19.404   3.582  0.00  0.00     0.035 C 
BRANCH   6   7
HETATM    7  C   UNK N   1      20.439  19.325   2.220  0.00  0.00     0.173 C 
BRANCH   7   8
HETATM    8  N   UNK N   1      18.999  19.333   2.417  0.00  0.00    -0.418 N 
HETATM    9  H   UNK N   1      18.244  19.288   1.732  0.00  0.00     0.150 HD
HETATM   10  H   UNK N   1      18.698  19.392   3.389  0.00  0.00     0.150 HD
ENDBRANCH   7   8
BRANCH   7  11
HETATM   11  C   UNK N   1      20.819  20.445   1.285  0.00  0.00     0.163 C 
HETATM   12  O   UNK N   1      21.331  21.473   1.707  0.00  0.00    -0.648 OA
BRANCH  11  13
HETATM   13  O   UNK N   1      20.595  20.313  -0.035  0.00  0.00    -0.775 OA
HETATM   14  H   UNK N   1      19.878  19.799  -0.347  0.00  0.00     0.167 HD
ENDBRANCH  11  13
ENDBRANCH   7  11
ENDBRANCH   6   7
ENDBRANCH   5   6
ENDBRANCH   4   5
ENDBRANCH   3   4
ENDBRANCH   1   3
BRANCH   1  15
HETATM   15  C   UNK N   1      19.981  15.417   1.275  0.00  0.00     0.176 C 
BRANCH  15  16
HETATM   16  C   UNK N   1      21.471  15.137   1.185  0.00  0.00     0.046 C 
BRANCH  16  17
HETATM   17  C   UNK N   1      21.741  13.733   0.683  0.00  0.00     0.112 C 
BRANCH  17  18
HETATM   18  C   UNK N   1      23.208  13.557   0.480  0.00  0.00     0.139 C 
HETATM   19  O   UNK N   1      23.624  12.886  -0.451  0.00  0.00    -0.650 OA
BRANCH  18  20
HETATM   20  O   UNK N   1      24.075  14.138   1.328  0.00  0.00    -0.776 OA
HETATM   21  H   UNK N   1      23.873  14.293   2.230  0.00  0.00     0.167 HD
ENDBRANCH  18  20
ENDBRANCH  17  18
ENDBRANCH  16  17
ENDBRANCH  15  16
BRANCH  15  22
HETATM   22  C   UNK N   1      19.518  16.432   0.256  0.00  0.00     0.163 C 
HETATM   23  O   UNK N   1      20.334  17.147  -0.301  0.00  0.00    -0.648 OA
BRANCH  22  24
HETATM   24  O   UNK N   1      18.210  16.561  -0.047  0.00  0.00    -0.775 OA
HETATM   25  H   UNK N   1      17.484  16.146   0.374  0.00  0.00     0.167 HD
ENDBRANCH  22  24
ENDBRANCH  15  22
ENDBRANCH   1  15
TORSDOF 15
ENDMDL
MODEL 5
REMARK VINA RESULT:      -5.1     12.068     13.882
REMARK  15 active torsions:
REMARK  status: ('A' for Active; 'I' for Inactive)
REMARK    1  A    between atoms: C_2  and  N_1 
REMARK    2  A    between atoms: C_2  and  C_3 
REMARK    3  A    between atoms: C_2  and  C_17 
REMARK    4  A    between atoms: C_3  and  C_4 
REMARK    5  A    between atoms: C_4  and  C_5 
REMARK    6  A    between atoms: C_5  and  C_6 
REMARK    7  A    between atoms: C_6  and  N_7 
REMARK    8  A    between atoms: C_8  and  N_7 
REMARK    9  A    between atoms: C_8  and  C_9 
REMARK   10  A    between atoms: C_8  and  C_14 
REMARK   11  A    between atoms: C_9  and  C_10 
REMARK   12  A    between atoms: C_10  and  C_11 
REMARK   13  A    between atoms: C_11  and  O_12 
REMARK   14  A    between atoms: C_14  and  O_15 
REMARK   15  A    between atoms: C_17  and  O_18 
ROOT
HETATM    1  N   UNK N   1      19.523  16.213   3.046  0.00  0.00    -0.408 N 
HETATM    2  H   UNK N   1      18.856  15.571   2.618  0.00  0.00     0.154 HD
ENDROOT
BRANCH   1   3
HETATM    3  C   UNK N   1      19.789  16.353   4.467  0.00  0.00     0.114 C 
BRANCH   3   4
HETATM    4  C   UNK N   1      21.151  15.764   4.786  0.00  0.00     0.019 C 
BRANCH   4   5
HETATM    5  C   UNK N   1      21.557  16.068   6.223  0.00  0.00     0.004 C 
BRANCH   5   6
HETATM    6  C   UNK N   1      20.726  17.217   6.773  0.00  0.00     0.035 C 
BRANCH   6   7
HETATM    7  C   UNK N   1      19.994  16.812   8.047  0.00  0.00     0.173 C 
BRANCH   7   8
HETATM    8  N   UNK N   1      20.884  15.998   8.856  0.00  0.00    -0.418 N 
HETATM    9  H   UNK N   1      21.189  15.033   8.726  0.00  0.00     0.150 HD
HETATM   10  H   UNK N   1      21.262  16.461   9.682  0.00  0.00     0.150 HD
ENDBRANCH   7   8
BRANCH   7  11
HETATM   11  C   UNK N   1      19.506  17.980   8.865  0.00  0.00     0.163 C 
HETATM   12  O   UNK N   1      18.515  17.883   9.576  0.00  0.00    -0.648 OA
BRANCH  11  13
HETATM   13  O   UNK N   1      20.170  19.149   8.816  0.00  0.00    -0.775 OA
HETATM   14  H   UNK N   1      19.800  19.889   8.378  0.00  0.00     0.167 HD
ENDBRANCH  11  13
ENDBRANCH   7  11
ENDBRANCH   6   7
ENDBRANCH   5   6
ENDBRANCH   4   5
ENDBRANCH   3   4
ENDBRANCH   1   3
BRANCH   1  15
HETATM   15  C   UNK N   1      20.380  17.152   2.345  0.00  0.00     0.176 C 
BRANCH  15  16
HETATM   16  C   UNK N   1      19.847  18.551   2.601  0.00  0.00     0.046 C 
BRANCH  16  17
HETATM   17  C   UNK N   1      20.926  19.461   3.152  0.00  0.00     0.112 C 
BRANCH  17  18
HETATM   18  C   UNK N   1      21.166  20.577   2.190  0.00  0.00     0.139 C 
HETATM   19  O   UNK N   1      20.897  20.437   1.008  0.00  0.00    -0.650 OA
BRANCH  18  20
HETATM   20  O   UNK N   1      21.683  21.739   2.629  0.00  0.00    -0.776 OA
HETATM   21  H   UNK N   1      22.232  21.793   3.386  0.00  0.00     0.167 HD
ENDBRANCH  18  20
ENDBRANCH  17  18
ENDBRANCH  16  17
ENDBRANCH  15  16
BRANCH  15  22
HETATM   22  C   UNK N   1      20.428  16.809   0.874  0.00  0.00     0.163 C 
HETATM   23  O   UNK N   1      20.642  15.659   0.528  0.00  0.00    -0.648 OA
BRANCH  22  24
HETATM   24  O   UNK N   1      20.239  17.758  -0.065  0.00  0.00    -0.775 OA
HETATM   25  H   UNK N   1      20.605  17.787  -0.927  0.00  0.00     0.167 HD
ENDBRANCH  22  24
ENDBRANCH  15  22
ENDBRANCH   1  15
TORSDOF 15
ENDMDL
MODEL 6
REMARK VINA RESULT:      -5.1     11.560     12.797
REMARK  15 active torsions:
REMARK  status: ('A' for Active; 'I' for Inactive)
REMARK    1  A    between atoms: C_2  and  N_1 
REMARK    2  A    between atoms: C_2  and  C_3 
REMARK    3  A    between atoms: C_2  and  C_17 
REMARK    4  A    between atoms: C_3  and  C_4 
REMARK    5  A    between atoms: C_4  and  C_5 
REMARK    6  A    between atoms: C_5  and  C_6 
REMARK    7  A    between atoms: C_6  and  N_7 
REMARK    8  A    between atoms: C_8  and  N_7 
REMARK    9  A    between atoms: C_8  and  C_9 
REMARK   10  A    between atoms: C_8  and  C_14 
REMARK   11  A    between atoms: C_9  and  C_10 
REMARK   12  A    between atoms: C_10  and  C_11 
REMARK   13  A    between atoms: C_11  and  O_12 
REMARK   14  A    between atoms: C_14  and  O_15 
REMARK   15  A    between atoms: C_17  and  O_18 
ROOT
HETATM    1  N   UNK N   1      20.584  16.291   6.811  0.00  0.00    -0.408 N 
HETATM    2  H   UNK N   1      19.773  15.954   6.293  0.00  0.00     0.154 HD
ENDROOT
BRANCH   1   3
HETATM    3  C   UNK N   1      21.884  16.618   6.253  0.00  0.00     0.114 C 
BRANCH   3   4
HETATM    4  C   UNK N   1      21.770  16.731   4.742  0.00  0.00     0.019 C 
BRANCH   4   5
HETATM    5  C   UNK N   1      20.660  17.696   4.348  0.00  0.00     0.004 C 
BRANCH   5   6
HETATM    6  C   UNK N   1      21.250  18.966   3.756  0.00  0.00     0.035 C 
BRANCH   6   7
HETATM    7  C   UNK N   1      20.728  19.217   2.346  0.00  0.00     0.173 C 
BRANCH   7   8
HETATM    8  N   UNK N   1      19.276  19.185   2.376  0.00  0.00    -0.418 N 
HETATM    9  H   UNK N   1      18.603  19.952   2.357  0.00  0.00     0.150 HD
HETATM   10  H   UNK N   1      18.866  18.253   2.424  0.00  0.00     0.150 HD
ENDBRANCH   7   8
BRANCH   7  11
HETATM   11  C   UNK N   1      21.186  20.524   1.752  0.00  0.00     0.163 C 
HETATM   12  O   UNK N   1      21.296  20.663   0.541  0.00  0.00    -0.648 OA
BRANCH  11  13
HETATM   13  O   UNK N   1      21.475  21.557   2.563  0.00  0.00    -0.775 OA
HETATM   14  H   UNK N   1      21.218  22.428   2.336  0.00  0.00     0.167 HD
ENDBRANCH  11  13
ENDBRANCH   7  11
ENDBRANCH   6   7
ENDBRANCH   5   6
ENDBRANCH   4   5
ENDBRANCH   3   4
ENDBRANCH   1   3
BRANCH   1  15
HETATM   15  C   UNK N   1      20.648  16.531   8.242  0.00  0.00     0.176 C 
BRANCH  15  16
HETATM   16  C   UNK N   1      20.198  15.264   8.948  0.00  0.00     0.046 C 
BRANCH  16  17
HETATM   17  C   UNK N   1      21.370  14.349   9.243  0.00  0.00     0.112 C 
BRANCH  17  18
HETATM   18  C   UNK N   1      20.938  13.290  10.202  0.00  0.00     0.139 C 
HETATM   19  O   UNK N   1      19.751  13.071  10.381  0.00  0.00    -0.650 OA
BRANCH  18  20
HETATM   20  O   UNK N   1      21.860  12.577  10.871  0.00  0.00    -0.776 OA
HETATM   21  H   UNK N   1      21.637  11.980  11.557  0.00  0.00     0.167 HD
ENDBRANCH  18  20
ENDBRANCH  17  18
ENDBRANCH  16  17
ENDBRANCH  15  16
BRANCH  15  22
HETATM   22  C   UNK N   1      19.802  17.729   8.603  0.00  0.00     0.163 C 
HETATM   23  O   UNK N   1      18.693  17.565   9.086  0.00  0.00    -0.648 OA
BRANCH  22  24
HETATM   24  O   UNK N   1      20.253  18.983   8.396  0.00  0.00    -0.775 OA
HETATM   25  H   UNK N   1      20.395  19.409   7.574  0.00  0.00     0.167 HD
ENDBRANCH  22  24
ENDBRANCH  15  22
ENDBRANCH   1  15
TORSDOF 15
ENDMDL
MODEL 7
REMARK VINA RESULT:      -5.0      3.011      7.421
REMARK  15 active torsions:
REMARK  status: ('A' for Active; 'I' for Inactive)
REMARK    1  A    between atoms: C_2  and  N_1 
REMARK    2  A    between atoms: C_2  and  C_3 
REMARK    3  A    between atoms: C_2  and  C_17 
REMARK    4  A    between atoms: C_3  and  C_4 
REMARK    5  A    between atoms: C_4  and  C_5 
REMARK    6  A    between atoms: C_5  and  C_6 
REMARK    7  A    between atoms: C_6  and  N_7 
REMARK    8  A    between atoms: C_8  and  N_7 
REMARK    9  A    between atoms: C_8  and  C_9 
REMARK   10  A    between atoms: C_8  and  C_14 
REMARK   11  A    between atoms: C_9  and  C_10 
REMARK   12  A    between atoms: C_10  and  C_11 
REMARK   13  A    between atoms: C_11  and  O_12 
REMARK   14  A    between atoms: C_14  and  O_15 
REMARK   15  A    between atoms: C_17  and  O_18 
ROOT
HETATM    1  N   UNK N   1      27.853  17.512   7.506  0.00  0.00    -0.408 N 
HETATM    2  H   UNK N   1      27.378  16.610   7.536  0.00  0.00     0.154 HD
ENDROOT
BRANCH   1   3
HETATM    3  C   UNK N   1      28.297  18.286   8.653  0.00  0.00     0.114 C 
BRANCH   3   4
HETATM    4  C   UNK N   1      29.566  17.671   9.216  0.00  0.00     0.019 C 
BRANCH   4   5
HETATM    5  C   UNK N   1      30.779  18.537   8.904  0.00  0.00     0.004 C 
BRANCH   5   6
HETATM    6  C   UNK N   1      31.811  17.738   8.124  0.00  0.00     0.035 C 
BRANCH   6   7
HETATM    7  C   UNK N   1      33.171  17.766   8.812  0.00  0.00     0.173 C 
BRANCH   7   8
HETATM    8  N   UNK N   1      33.489  16.424   9.269  0.00  0.00    -0.418 N 
HETATM    9  H   UNK N   1      33.011  15.540   9.090  0.00  0.00     0.150 HD
HETATM   10  H   UNK N   1      34.317  16.354   9.859  0.00  0.00     0.150 HD
ENDBRANCH   7   8
BRANCH   7  11
HETATM   11  C   UNK N   1      34.287  18.270   7.934  0.00  0.00     0.163 C 
HETATM   12  O   UNK N   1      34.435  17.847   6.796  0.00  0.00    -0.648 OA
BRANCH  11  13
HETATM   13  O   UNK N   1      35.133  19.203   8.405  0.00  0.00    -0.775 OA
HETATM   14  H   UNK N   1      36.055  19.044   8.424  0.00  0.00     0.167 HD
ENDBRANCH  11  13
ENDBRANCH   7  11
ENDBRANCH   6   7
ENDBRANCH   5   6
ENDBRANCH   4   5
ENDBRANCH   3   4
ENDBRANCH   1   3
BRANCH   1  15
HETATM   15  C   UNK N   1      28.212  18.253   6.310  0.00  0.00     0.176 C 
BRANCH  15  16
HETATM   16  C   UNK N   1      26.929  18.593   5.571  0.00  0.00     0.046 C 
BRANCH  16  17
HETATM   17  C   UNK N   1      26.941  20.024   5.071  0.00  0.00     0.112 C 
BRANCH  17  18
HETATM   18  C   UNK N   1      26.818  20.951   6.234  0.00  0.00     0.139 C 
HETATM   19  O   UNK N   1      27.485  21.971   6.279  0.00  0.00    -0.650 OA
BRANCH  18  20
HETATM   20  O   UNK N   1      25.969  20.659   7.235  0.00  0.00    -0.776 OA
HETATM   21  H   UNK N   1      25.108  20.320   7.085  0.00  0.00     0.167 HD
ENDBRANCH  18  20
ENDBRANCH  17  18
ENDBRANCH  16  17
ENDBRANCH  15  16
BRANCH  15  22
HETATM   22  C   UNK N   1      29.172  17.445   5.470  0.00  0.00     0.163 C 
HETATM   23  O   UNK N   1      29.404  16.284   5.764  0.00  0.00    -0.648 OA
BRANCH  22  24
HETATM   24  O   UNK N   1      29.780  17.989   4.396  0.00  0.00    -0.775 OA
HETATM   25  H   UNK N   1      30.160  17.540   3.668  0.00  0.00     0.167 HD
ENDBRANCH  22  24
ENDBRANCH  15  22
ENDBRANCH   1  15
TORSDOF 15
ENDMDL
MODEL 8
REMARK VINA RESULT:      -5.0      2.305      2.764
REMARK  15 active torsions:
REMARK  status: ('A' for Active; 'I' for Inactive)
REMARK    1  A    between atoms: C_2  and  N_1 
REMARK    2  A    between atoms: C_2  and  C_3 
REMARK    3  A    between atoms: C_2  and  C_17 
REMARK    4  A    between atoms: C_3  and  C_4 
REMARK    5  A    between atoms: C_4  and  C_5 
REMARK    6  A    between atoms: C_5  and  C_6 
REMARK    7  A    between atoms: C_6  and  N_7 
REMARK    8  A    between atoms: C_8  and  N_7 
REMARK    9  A    between atoms: C_8  and  C_9 
REMARK   10  A    between atoms: C_8  and  C_14 
REMARK   11  A    between atoms: C_9  and  C_10 
REMARK   12  A    between atoms: C_10  and  C_11 
REMARK   13  A    between atoms: C_11  and  O_12 
REMARK   14  A    between atoms: C_14  and  O_15 
REMARK   15  A    between atoms: C_17  and  O_18 
ROOT
HETATM    1  N   UNK N   1      32.770  17.397   9.211  0.00  0.00    -0.408 N 
HETATM    2  H   UNK N   1      32.788  17.668  10.194  0.00  0.00     0.154 HD
ENDROOT
BRANCH   1   3
HETATM    3  C   UNK N   1      31.617  17.445   8.329  0.00  0.00     0.114 C 
BRANCH   3   4
HETATM    4  C   UNK N   1      30.580  18.393   8.906  0.00  0.00     0.019 C 
BRANCH   4   5
HETATM    5  C   UNK N   1      29.193  18.086   8.357  0.00  0.00     0.004 C 
BRANCH   5   6
HETATM    6  C   UNK N   1      29.284  17.666   6.898  0.00  0.00     0.035 C 
BRANCH   6   7
HETATM    7  C   UNK N   1      28.046  18.093   6.119  0.00  0.00     0.173 C 
BRANCH   7   8
HETATM    8  N   UNK N   1      27.267  19.001   6.944  0.00  0.00    -0.418 N 
HETATM    9  H   UNK N   1      26.819  18.844   7.847  0.00  0.00     0.150 HD
HETATM   10  H   UNK N   1      27.150  19.939   6.561  0.00  0.00     0.150 HD
ENDBRANCH   7   8
BRANCH   7  11
HETATM   11  C   UNK N   1      28.355  18.758   4.803  0.00  0.00     0.163 C 
HETATM   12  O   UNK N   1      28.220  19.966   4.658  0.00  0.00    -0.648 OA
BRANCH  11  13
HETATM   13  O   UNK N   1      28.789  18.015   3.769  0.00  0.00    -0.775 OA
HETATM   14  H   UNK N   1      28.823  18.374   2.905  0.00  0.00     0.167 HD
ENDBRANCH  11  13
ENDBRANCH   7  11
ENDBRANCH   6   7
ENDBRANCH   5   6
ENDBRANCH   4   5
ENDBRANCH   3   4
ENDBRANCH   1   3
BRANCH   1  15
HETATM   15  C   UNK N   1      33.893  16.896   8.439  0.00  0.00     0.176 C 
BRANCH  15  16
HETATM   16  C   UNK N   1      34.939  16.385   9.415  0.00  0.00     0.046 C 
BRANCH  16  17
HETATM   17  C   UNK N   1      34.769  14.903   9.682  0.00  0.00     0.112 C 
BRANCH  17  18
HETATM   18  C   UNK N   1      34.052  14.716  10.978  0.00  0.00     0.139 C 
HETATM   19  O   UNK N   1      34.644  14.272  11.948  0.00  0.00    -0.650 OA
BRANCH  18  20
HETATM   20  O   UNK N   1      32.750  15.037  11.074  0.00  0.00    -0.776 OA
HETATM   21  H   UNK N   1      32.065  14.456  10.806  0.00  0.00     0.167 HD
ENDBRANCH  18  20
ENDBRANCH  17  18
ENDBRANCH  16  17
ENDBRANCH  15  16
BRANCH  15  22
HETATM   22  C   UNK N   1      34.424  17.982   7.534  0.00  0.00     0.163 C 
HETATM   23  O   UNK N   1      34.281  17.889   6.326  0.00  0.00    -0.648 OA
BRANCH  22  24
HETATM   24  O   UNK N   1      35.059  19.058   8.043  0.00  0.00    -0.775 OA
HETATM   25  H   UNK N   1      35.355  19.181   8.923  0.00  0.00     0.167 HD
ENDBRANCH  22  24
ENDBRANCH  15  22
ENDBRANCH   1  15
TORSDOF 15
ENDMDL
MODEL 9
REMARK VINA RESULT:      -4.9      2.125      6.563
REMARK  15 active torsions:
REMARK  status: ('A' for Active; 'I' for Inactive)
REMARK    1  A    between atoms: C_2  and  N_1 
REMARK    2  A    between atoms: C_2  and  C_3 
REMARK    3  A    between atoms: C_2  and  C_17 
REMARK    4  A    between atoms: C_3  and  C_4 
REMARK    5  A    between atoms: C_4  and  C_5 
REMARK    6  A    between atoms: C_5  and  C_6 
REMARK    7  A    between atoms: C_6  and  N_7 
REMARK    8  A    between atoms: C_8  and  N_7 
REMARK    9  A    between atoms: C_8  and  C_9 
REMARK   10  A    between atoms: C_8  and  C_14 
REMARK   11  A    between atoms: C_9  and  C_10 
REMARK   12  A    between atoms: C_10  and  C_11 
REMARK   13  A    between atoms: C_11  and  O_12 
REMARK   14  A    between atoms: C_14  and  O_15 
REMARK   15  A    between atoms: C_17  and  O_18 
ROOT
HETATM    1  N   UNK N   1      33.117  17.085   9.163  0.00  0.00    -0.408 N 
HETATM    2  H   UNK N   1      33.810  17.451   9.816  0.00  0.00     0.154 HD
ENDROOT
BRANCH   1   3
HETATM    3  C   UNK N   1      32.683  15.703   9.057  0.00  0.00     0.114 C 
BRANCH   3   4
HETATM    4  C   UNK N   1      33.835  14.783   9.423  0.00  0.00     0.019 C 
BRANCH   4   5
HETATM    5  C   UNK N   1      34.123  14.836  10.918  0.00  0.00     0.004 C 
BRANCH   5   6
HETATM    6  C   UNK N   1      35.000  13.663  11.327  0.00  0.00     0.035 C 
BRANCH   6   7
HETATM    7  C   UNK N   1      36.186  14.123  12.167  0.00  0.00     0.173 C 
BRANCH   7   8
HETATM    8  N   UNK N   1      36.512  15.491  11.803  0.00  0.00    -0.418 N 
HETATM    9  H   UNK N   1      37.183  15.845  11.121  0.00  0.00     0.150 HD
HETATM   10  H   UNK N   1      35.990  16.208  12.306  0.00  0.00     0.150 HD
ENDBRANCH   7   8
BRANCH   7  11
HETATM   11  C   UNK N   1      35.944  14.047  13.653  0.00  0.00     0.163 C 
HETATM   12  O   UNK N   1      36.748  14.515  14.448  0.00  0.00    -0.648 OA
BRANCH  11  13
HETATM   13  O   UNK N   1      34.827  13.459  14.115  0.00  0.00    -0.775 OA
HETATM   14  H   UNK N   1      34.843  12.961  14.908  0.00  0.00     0.167 HD
ENDBRANCH  11  13
ENDBRANCH   7  11
ENDBRANCH   6   7
ENDBRANCH   5   6
ENDBRANCH   4   5
ENDBRANCH   3   4
ENDBRANCH   1   3
BRANCH   1  15
HETATM   15  C   UNK N   1      32.385  17.852   8.171  0.00  0.00     0.176 C 
BRANCH  15  16
HETATM   16  C   UNK N   1      30.930  17.419   8.227  0.00  0.00     0.046 C 
BRANCH  16  17
HETATM   17  C   UNK N   1      30.072  18.451   8.930  0.00  0.00     0.112 C 
BRANCH  17  18
HETATM   18  C   UNK N   1      28.939  17.764   9.615  0.00  0.00     0.139 C 
HETATM   19  O   UNK N   1      29.154  16.831  10.371  0.00  0.00    -0.650 OA
BRANCH  18  20
HETATM   20  O   UNK N   1      27.677  18.174   9.397  0.00  0.00    -0.776 OA
HETATM   21  H   UNK N   1      27.122  18.488  10.084  0.00  0.00     0.167 HD
ENDBRANCH  18  20
ENDBRANCH  17  18
ENDBRANCH  16  17
ENDBRANCH  15  16
BRANCH  15  22
HETATM   22  C   UNK N   1      32.999  17.652   6.806  0.00  0.00     0.163 C 
HETATM   23  O   UNK N   1      32.309  17.248   5.884  0.00  0.00    -0.648 OA
BRANCH  22  24
HETATM   24  O   UNK N   1      34.305  17.910   6.590  0.00  0.00    -0.775 OA
HETATM   25  H   UNK N   1      34.771  17.848   5.780  0.00  0.00     0.167 HD
ENDBRANCH  22  24
ENDBRANCH  15  22
ENDBRANCH   1  15
TORSDOF 15
ENDMDL
