REMARK  10 active torsions:
REMARK  status: ('A' for Active; 'I' for Inactive)
REMARK    1  A    between atoms: C_8  and  C_6 
REMARK    2  A    between atoms: O_19  and  C_6 
REMARK    3  A    between atoms: C_12  and  C_7 
REMARK    4  A    between atoms: C_9  and  O_20 
REMARK    5  A    between atoms: C_10  and  O_21 
REMARK    6  A    between atoms: C_11  and  O_22 
REMARK    7  A    between atoms: O_23  and  C_12 
REMARK    8  A    between atoms: C_13  and  N_17 
REMARK    9  A    between atoms: N_15  and  C_14 
REMARK   10  A    between atoms: C_14  and  O_24 
ROOT
HETATM    1  C   UNK N   1       2.836   7.712  -1.074  0.00  0.00     0.221 C 
HETATM    2  N   UNK N   1       3.649   8.647  -0.697  0.00  0.00    -0.327 N 
ATOM      3  HN  UNK N   1       4.413   8.901  -1.324  1.00  0.00     0.165 HD
ENDROOT
BRANCH   2   4
HETATM    4  C   UNK N   1       3.534   9.360   0.569  0.00  0.00     0.255 C 
HETATM    5  C   UNK N   1       2.269  10.250   0.726  0.00  0.00     0.198 C 
HETATM    6  C   UNK N   1       2.377  11.522  -0.122  0.00  0.00     0.182 C 
HETATM    7  C   UNK N   1       3.703  12.221   0.201  0.00  0.00     0.180 C 
HETATM    8  C   UNK N   1       4.860  11.225  -0.035  0.00  0.00     0.179 C 
HETATM    9  O   UNK N   1       4.722  10.101   0.825  0.00  0.00    -0.354 OA
BRANCH   5  10
HETATM   10  O   UNK N   1       2.153  10.616   2.070  0.00  0.00    -0.389 OA
HETATM   11  H   UNK N   1       2.333  10.812   3.003  0.00  0.00     0.210 HD
ENDBRANCH   5  10
BRANCH   6  12
HETATM   12  O   UNK N   1       2.321  11.199  -1.481  0.00  0.00    -0.390 OA
HETATM   13  H   UNK N   1       2.108  11.121  -2.425  0.00  0.00     0.210 HD
ENDBRANCH   6  12
BRANCH   7  14
HETATM   14  O   UNK N   1       3.836  13.361  -0.597  0.00  0.00    -0.390 OA
HETATM   15  H   UNK N   1       4.567  13.676  -1.151  0.00  0.00     0.210 HD
ENDBRANCH   7  14
BRANCH   8  16
HETATM   16  C   UNK N   1       6.212  11.868   0.272  0.00  0.00     0.198 C 
BRANCH  16  17
HETATM   17  O   UNK N   1       6.513  12.875  -0.648  0.00  0.00    -0.398 OA
HETATM   18  H   UNK N   1       7.224  13.044  -1.286  0.00  0.00     0.209 HD
ENDBRANCH  16  17
ENDBRANCH   8  16
ENDBRANCH   2   4
BRANCH   1  19
HETATM   19  N   UNK N   1       1.680   7.398  -0.302  0.00  0.00    -0.302 N 
HETATM   20  C   UNK N   1       1.189   6.233  -0.005  0.00  0.00     0.153 C 
ATOM     21  HN  UNK N   1       1.168   8.198   0.067  1.00  0.00     0.171 HD
BRANCH  20  22
HETATM   22  C   UNK N   1       1.879   4.927  -0.237  0.00  0.00     0.015 A 
HETATM   23  C   UNK N   1       3.219   4.829  -0.642  0.00  0.00     0.016 A 
HETATM   24  C   UNK N   1       3.835   3.580  -0.772  0.00  0.00     0.001 A 
HETATM   25  C   UNK N   1       3.121   2.413  -0.489  0.00  0.00     0.000 A 
HETATM   26  C   UNK N   1       1.791   2.496  -0.076  0.00  0.00     0.001 A 
HETATM   27  C   UNK N   1       1.178   3.744   0.057  0.00  0.00     0.016 A 
ENDBRANCH  20  22
BRANCH  20  28
HETATM   28  O   UNK N   1      -0.006   6.203   0.617  0.00  0.00    -0.345 OA
HETATM   29  H   UNK N   1      -0.439   6.913   1.049  0.00  0.00     0.219 HD
ENDBRANCH  20  28
ENDBRANCH   1  19
BRANCH   1  30
HETATM   30  O   UNK N   1       3.061   7.080  -2.243  0.00  0.00    -0.332 OA
HETATM   31  H   UNK N   1       2.759   6.725  -3.056  0.00  0.00     0.220 HD
ENDBRANCH   1  30
TORSDOF 10
