MODEL 1
REMARK VINA RESULT:      -5.2      0.000      0.000
REMARK  6 active torsions:
REMARK  status: ('A' for Active; 'I' for Inactive)
REMARK    1  A    between atoms: C_3  and  O_2 
REMARK    2  A    between atoms: C_5  and  C_6 
REMARK    3  A    between atoms: C_6  and  O_7 
REMARK    4  A    between atoms: C_8  and  O_9 
REMARK    5  A    between atoms: C_10  and  O_11 
REMARK    6  A    between atoms: C_12  and  O_13 
ROOT
HETATM    1  C   UNK N   1      21.385  20.354   3.047  0.00  0.00     0.290 C 
HETATM    2  O   UNK N   1      21.910  19.473   4.015  0.00  0.00    -0.349 OA
HETATM    3  C   UNK N   1      20.828  18.780   4.592  0.00  0.00     0.179 C 
HETATM    4  C   UNK N   1      20.233  17.812   3.560  0.00  0.00     0.180 C 
HETATM    5  C   UNK N   1      19.735  18.629   2.369  0.00  0.00     0.183 C 
HETATM    6  C   UNK N   1      20.841  19.548   1.860  0.00  0.00     0.204 C 
ENDROOT
BRANCH   3   7
HETATM    7  C   UNK N   1      21.315  18.008   5.809  0.00  0.00     0.198 C 
BRANCH   7   8
HETATM    8  O   UNK N   1      21.018  18.711   6.976  0.00  0.00    -0.398 OA
HETATM    9  H   UNK N   1      20.201  18.590   7.484  0.00  0.00     0.209 HD
ENDBRANCH   7   8
ENDBRANCH   3   7
BRANCH   4  10
HETATM   10  O   UNK N   1      19.167  17.102   4.114  0.00  0.00    -0.390 OA
HETATM   11  H   UNK N   1      18.239  17.380   4.177  0.00  0.00     0.210 HD
ENDBRANCH   4  10
BRANCH   1  12
HETATM   12  O   UNK N   1      22.391  21.222   2.616  0.00  0.00    -0.363 OA
HETATM   13  C   UNK N   1      23.588  20.571   2.914  0.00  0.00     0.204 C 
ENDBRANCH   1  12
BRANCH   5  14
HETATM   14  O   UNK N   1      19.306  17.782   1.348  0.00  0.00    -0.390 OA
HETATM   15  H   UNK N   1      19.736  16.940   1.128  0.00  0.00     0.210 HD
ENDBRANCH   5  14
BRANCH   6  16
HETATM   16  O   UNK N   1      20.324  20.409   0.890  0.00  0.00    -0.388 OA
HETATM   17  H   UNK N   1      19.377  20.536   0.719  0.00  0.00     0.210 HD
ENDBRANCH   6  16
TORSDOF 6
ENDMDL
MODEL 2
REMARK VINA RESULT:      -5.2      1.544      2.461
REMARK  6 active torsions:
REMARK  status: ('A' for Active; 'I' for Inactive)
REMARK    1  A    between atoms: C_3  and  O_2 
REMARK    2  A    between atoms: C_5  and  C_6 
REMARK    3  A    between atoms: C_6  and  O_7 
REMARK    4  A    between atoms: C_8  and  O_9 
REMARK    5  A    between atoms: C_10  and  O_11 
REMARK    6  A    between atoms: C_12  and  O_13 
ROOT
HETATM    1  C   UNK N   1      22.282  19.333   3.759  0.00  0.00     0.290 C 
HETATM    2  O   UNK N   1      21.861  18.003   3.556  0.00  0.00    -0.349 OA
HETATM    3  C   UNK N   1      20.454  17.987   3.620  0.00  0.00     0.179 C 
HETATM    4  C   UNK N   1      19.880  18.702   2.389  0.00  0.00     0.180 C 
HETATM    5  C   UNK N   1      20.372  20.147   2.402  0.00  0.00     0.183 C 
HETATM    6  C   UNK N   1      21.890  20.187   2.547  0.00  0.00     0.204 C 
ENDROOT
BRANCH   3   7
HETATM    7  C   UNK N   1      19.966  16.546   3.659  0.00  0.00     0.198 C 
BRANCH   7   8
HETATM    8  O   UNK N   1      18.755  16.467   4.346  0.00  0.00    -0.398 OA
HETATM    9  H   UNK N   1      18.607  16.857   5.222  0.00  0.00     0.209 HD
ENDBRANCH   7   8
ENDBRANCH   3   7
BRANCH   4  10
HETATM   10  O   UNK N   1      18.484  18.687   2.421  0.00  0.00    -0.390 OA
HETATM   11  H   UNK N   1      17.886  19.443   2.531  0.00  0.00     0.210 HD
ENDBRANCH   4  10
BRANCH   1  12
HETATM   12  O   UNK N   1      23.668  19.359   3.935  0.00  0.00    -0.363 OA
HETATM   13  C   UNK N   1      23.943  18.321   4.824  0.00  0.00     0.204 C 
ENDBRANCH   1  12
BRANCH   5  14
HETATM   14  O   UNK N   1      19.984  20.801   1.232  0.00  0.00    -0.390 OA
HETATM   15  H   UNK N   1      19.327  20.450   0.610  0.00  0.00     0.210 HD
ENDBRANCH   5  14
BRANCH   6  16
HETATM   16  O   UNK N   1      22.308  21.506   2.732  0.00  0.00    -0.388 OA
HETATM   17  H   UNK N   1      21.726  22.232   3.007  0.00  0.00     0.210 HD
ENDBRANCH   6  16
TORSDOF 6
ENDMDL
MODEL 3
REMARK VINA RESULT:      -5.2     12.826     14.484
REMARK  6 active torsions:
REMARK  status: ('A' for Active; 'I' for Inactive)
REMARK    1  A    between atoms: C_3  and  O_2 
REMARK    2  A    between atoms: C_5  and  C_6 
REMARK    3  A    between atoms: C_6  and  O_7 
REMARK    4  A    between atoms: C_8  and  O_9 
REMARK    5  A    between atoms: C_10  and  O_11 
REMARK    6  A    between atoms: C_12  and  O_13 
ROOT
HETATM    1  C   UNK N   1      33.661  15.868   7.188  0.00  0.00     0.290 C 
HETATM    2  O   UNK N   1      33.307  15.393   8.467  0.00  0.00    -0.349 OA
HETATM    3  C   UNK N   1      34.409  15.603   9.319  0.00  0.00     0.179 C 
HETATM    4  C   UNK N   1      34.582  17.108   9.567  0.00  0.00     0.180 C 
HETATM    5  C   UNK N   1      34.842  17.787   8.223  0.00  0.00     0.183 C 
HETATM    6  C   UNK N   1      33.764  17.398   7.217  0.00  0.00     0.204 C 
ENDROOT
BRANCH   3   7
HETATM    7  C   UNK N   1      34.172  14.883  10.639  0.00  0.00     0.198 C 
BRANCH   7   8
HETATM    8  O   UNK N   1      32.845  15.037  11.039  0.00  0.00    -0.398 OA
HETATM    9  H   UNK N   1      32.192  15.559  10.546  0.00  0.00     0.209 HD
ENDBRANCH   7   8
ENDBRANCH   3   7
BRANCH   4  10
HETATM   10  O   UNK N   1      35.661  17.343  10.422  0.00  0.00    -0.390 OA
HETATM   11  H   UNK N   1      35.984  16.773  11.137  0.00  0.00     0.210 HD
ENDBRANCH   4  10
BRANCH   1  12
HETATM   12  O   UNK N   1      32.692  15.472   6.262  0.00  0.00    -0.363 OA
HETATM   13  C   UNK N   1      31.469  15.690   6.897  0.00  0.00     0.204 C 
ENDBRANCH   1  12
BRANCH   5  14
HETATM   14  O   UNK N   1      34.875  19.173   8.381  0.00  0.00    -0.390 OA
HETATM   15  H   UNK N   1      34.486  19.798   7.749  0.00  0.00     0.210 HD
ENDBRANCH   5  14
BRANCH   6  16
HETATM   16  O   UNK N   1      34.107  17.883   5.954  0.00  0.00    -0.388 OA
HETATM   17  H   UNK N   1      34.052  18.815   5.691  0.00  0.00     0.210 HD
ENDBRANCH   6  16
TORSDOF 6
ENDMDL
MODEL 4
REMARK VINA RESULT:      -5.0      1.129      3.627
REMARK  6 active torsions:
REMARK  status: ('A' for Active; 'I' for Inactive)
REMARK    1  A    between atoms: C_3  and  O_2 
REMARK    2  A    between atoms: C_5  and  C_6 
REMARK    3  A    between atoms: C_6  and  O_7 
REMARK    4  A    between atoms: C_8  and  O_9 
REMARK    5  A    between atoms: C_10  and  O_11 
REMARK    6  A    between atoms: C_12  and  O_13 
ROOT
HETATM    1  C   UNK N   1      21.298  17.520   4.075  0.00  0.00     0.290 C 
HETATM    2  O   UNK N   1      21.897  18.796   4.127  0.00  0.00    -0.349 OA
HETATM    3  C   UNK N   1      21.852  19.341   2.829  0.00  0.00     0.179 C 
HETATM    4  C   UNK N   1      20.398  19.679   2.468  0.00  0.00     0.180 C 
HETATM    5  C   UNK N   1      19.584  18.387   2.505  0.00  0.00     0.183 C 
HETATM    6  C   UNK N   1      19.790  17.670   3.836  0.00  0.00     0.204 C 
ENDROOT
BRANCH   3   7
HETATM    7  C   UNK N   1      22.706  20.599   2.779  0.00  0.00     0.198 C 
BRANCH   7   8
HETATM    8  O   UNK N   1      21.895  21.732   2.832  0.00  0.00    -0.398 OA
HETATM    9  H   UNK N   1      22.065  22.489   3.416  0.00  0.00     0.209 HD
ENDBRANCH   7   8
ENDBRANCH   3   7
BRANCH   4  10
HETATM   10  O   UNK N   1      20.328  20.235   1.190  0.00  0.00    -0.390 OA
HETATM   11  H   UNK N   1      20.881  20.024   0.421  0.00  0.00     0.210 HD
ENDBRANCH   4  10
BRANCH   1  12
HETATM   12  O   UNK N   1      21.527  16.851   5.280  0.00  0.00    -0.363 OA
HETATM   13  C   UNK N   1      21.403  17.827   6.269  0.00  0.00     0.204 C 
ENDBRANCH   1  12
BRANCH   5  14
HETATM   14  O   UNK N   1      18.230  18.664   2.314  0.00  0.00    -0.390 OA
HETATM   15  H   UNK N   1      17.785  19.452   2.664  0.00  0.00     0.210 HD
ENDBRANCH   5  14
BRANCH   6  16
HETATM   16  O   UNK N   1      19.182  16.414   3.789  0.00  0.00    -0.388 OA
HETATM   17  H   UNK N   1      18.278  16.231   4.090  0.00  0.00     0.210 HD
ENDBRANCH   6  16
TORSDOF 6
ENDMDL
MODEL 5
REMARK VINA RESULT:      -4.9     20.728     23.107
REMARK  6 active torsions:
REMARK  status: ('A' for Active; 'I' for Inactive)
REMARK    1  A    between atoms: C_3  and  O_2 
REMARK    2  A    between atoms: C_5  and  C_6 
REMARK    3  A    between atoms: C_6  and  O_7 
REMARK    4  A    between atoms: C_8  and  O_9 
REMARK    5  A    between atoms: C_10  and  O_11 
REMARK    6  A    between atoms: C_12  and  O_13 
ROOT
HETATM    1  C   UNK N   1      42.691  21.554   1.701  0.00  0.00     0.290 C 
HETATM    2  O   UNK N   1      43.268  20.447   2.357  0.00  0.00    -0.349 OA
HETATM    3  C   UNK N   1      44.574  20.812   2.740  0.00  0.00     0.179 C 
HETATM    4  C   UNK N   1      44.503  21.855   3.863  0.00  0.00     0.180 C 
HETATM    5  C   UNK N   1      43.769  23.084   3.330  0.00  0.00     0.183 C 
HETATM    6  C   UNK N   1      42.433  22.676   2.716  0.00  0.00     0.204 C 
ENDROOT
BRANCH   3   7
HETATM    7  C   UNK N   1      45.322  19.578   3.222  0.00  0.00     0.198 C 
BRANCH   7   8
HETATM    8  O   UNK N   1      46.687  19.847   3.311  0.00  0.00    -0.398 OA
HETATM    9  H   UNK N   1      47.145  20.038   4.145  0.00  0.00     0.209 HD
ENDBRANCH   7   8
ENDBRANCH   3   7
BRANCH   4  10
HETATM   10  O   UNK N   1      45.787  22.223   4.271  0.00  0.00    -0.390 OA
HETATM   11  H   UNK N   1      46.396  22.834   3.828  0.00  0.00     0.210 HD
ENDBRANCH   4  10
BRANCH   1  12
HETATM   12  O   UNK N   1      41.490  21.164   1.104  0.00  0.00    -0.363 OA
HETATM   13  C   UNK N   1      40.846  20.376   2.057  0.00  0.00     0.204 C 
ENDBRANCH   1  12
BRANCH   5  14
HETATM   14  O   UNK N   1      43.564  24.007   4.355  0.00  0.00    -0.390 OA
HETATM   15  H   UNK N   1      43.344  23.761   5.268  0.00  0.00     0.210 HD
ENDBRANCH   5  14
BRANCH   6  16
HETATM   16  O   UNK N   1      41.855  23.776   2.081  0.00  0.00    -0.388 OA
HETATM   17  H   UNK N   1      41.815  24.669   2.459  0.00  0.00     0.210 HD
ENDBRANCH   6  16
TORSDOF 6
ENDMDL
MODEL 6
REMARK VINA RESULT:      -4.8     12.902     14.447
REMARK  6 active torsions:
REMARK  status: ('A' for Active; 'I' for Inactive)
REMARK    1  A    between atoms: C_3  and  O_2 
REMARK    2  A    between atoms: C_5  and  C_6 
REMARK    3  A    between atoms: C_6  and  O_7 
REMARK    4  A    between atoms: C_8  and  O_9 
REMARK    5  A    between atoms: C_10  and  O_11 
REMARK    6  A    between atoms: C_12  and  O_13 
ROOT
HETATM    1  C   UNK N   1      34.488  17.152   9.607  0.00  0.00     0.290 C 
HETATM    2  O   UNK N   1      34.156  15.789   9.466  0.00  0.00    -0.349 OA
HETATM    3  C   UNK N   1      32.933  15.719   8.769  0.00  0.00     0.179 C 
HETATM    4  C   UNK N   1      33.151  16.154   7.313  0.00  0.00     0.180 C 
HETATM    5  C   UNK N   1      33.652  17.597   7.315  0.00  0.00     0.183 C 
HETATM    6  C   UNK N   1      34.858  17.736   8.238  0.00  0.00     0.204 C 
ENDROOT
BRANCH   3   7
HETATM    7  C   UNK N   1      32.409  14.291   8.812  0.00  0.00     0.198 C 
BRANCH   7   8
HETATM    8  O   UNK N   1      32.643  13.656   7.593  0.00  0.00    -0.398 OA
HETATM    9  H   UNK N   1      31.937  13.331   7.012  0.00  0.00     0.209 HD
ENDBRANCH   7   8
ENDBRANCH   3   7
BRANCH   4  10
HETATM   10  O   UNK N   1      31.955  16.079   6.596  0.00  0.00    -0.390 OA
HETATM   11  H   UNK N   1      31.835  15.810   5.672  0.00  0.00     0.210 HD
ENDBRANCH   4  10
BRANCH   1  12
HETATM   12  O   UNK N   1      35.565  17.277  10.488  0.00  0.00    -0.363 OA
HETATM   13  C   UNK N   1      35.623  16.062  11.171  0.00  0.00     0.204 C 
ENDBRANCH   1  12
BRANCH   5  14
HETATM   14  O   UNK N   1      33.989  17.992   6.020  0.00  0.00    -0.390 OA
HETATM   15  H   UNK N   1      33.413  17.867   5.250  0.00  0.00     0.210 HD
ENDBRANCH   5  14
BRANCH   6  16
HETATM   16  O   UNK N   1      35.196  19.085   8.365  0.00  0.00    -0.388 OA
HETATM   17  H   UNK N   1      34.862  19.671   9.062  0.00  0.00     0.210 HD
ENDBRANCH   6  16
TORSDOF 6
ENDMDL
MODEL 7
REMARK VINA RESULT:      -4.7      1.646      4.656
REMARK  6 active torsions:
REMARK  status: ('A' for Active; 'I' for Inactive)
REMARK    1  A    between atoms: C_3  and  O_2 
REMARK    2  A    between atoms: C_5  and  C_6 
REMARK    3  A    between atoms: C_6  and  O_7 
REMARK    4  A    between atoms: C_8  and  O_9 
REMARK    5  A    between atoms: C_10  and  O_11 
REMARK    6  A    between atoms: C_12  and  O_13 
ROOT
HETATM    1  C   UNK N   1      20.469  18.040   2.910  0.00  0.00     0.290 C 
HETATM    2  O   UNK N   1      20.502  18.866   1.768  0.00  0.00    -0.349 OA
HETATM    3  C   UNK N   1      20.869  20.160   2.188  0.00  0.00     0.179 C 
HETATM    4  C   UNK N   1      22.340  20.154   2.628  0.00  0.00     0.180 C 
HETATM    5  C   UNK N   1      22.486  19.179   3.795  0.00  0.00     0.183 C 
HETATM    6  C   UNK N   1      21.896  17.822   3.427  0.00  0.00     0.204 C 
ENDROOT
BRANCH   3   7
HETATM    7  C   UNK N   1      20.674  21.139   1.040  0.00  0.00     0.198 C 
BRANCH   7   8
HETATM    8  O   UNK N   1      20.586  20.450  -0.169  0.00  0.00    -0.398 OA
HETATM    9  H   UNK N   1      19.750  20.276  -0.630  0.00  0.00     0.209 HD
ENDBRANCH   7   8
ENDBRANCH   3   7
BRANCH   4  10
HETATM   10  O   UNK N   1      22.734  21.430   3.036  0.00  0.00    -0.390 OA
HETATM   11  H   UNK N   1      22.364  21.960   3.760  0.00  0.00     0.210 HD
ENDBRANCH   4  10
BRANCH   1  12
HETATM   12  O   UNK N   1      19.888  16.814   2.578  0.00  0.00    -0.363 OA
HETATM   13  C   UNK N   1      20.065  16.686   1.200  0.00  0.00     0.204 C 
ENDBRANCH   1  12
BRANCH   5  14
HETATM   14  O   UNK N   1      23.830  19.041   4.143  0.00  0.00    -0.390 OA
HETATM   15  H   UNK N   1      24.406  18.337   3.804  0.00  0.00     0.210 HD
ENDBRANCH   5  14
BRANCH   6  16
HETATM   16  O   UNK N   1      21.880  16.999   4.555  0.00  0.00    -0.388 OA
HETATM   17  H   UNK N   1      22.672  16.622   4.971  0.00  0.00     0.210 HD
ENDBRANCH   6  16
TORSDOF 6
ENDMDL
MODEL 8
REMARK VINA RESULT:      -4.7     20.332     22.765
REMARK  6 active torsions:
REMARK  status: ('A' for Active; 'I' for Inactive)
REMARK    1  A    between atoms: C_3  and  O_2 
REMARK    2  A    between atoms: C_5  and  C_6 
REMARK    3  A    between atoms: C_6  and  O_7 
REMARK    4  A    between atoms: C_8  and  O_9 
REMARK    5  A    between atoms: C_10  and  O_11 
REMARK    6  A    between atoms: C_12  and  O_13 
ROOT
HETATM    1  C   UNK N   1      44.036  20.729   3.502  0.00  0.00     0.290 C 
HETATM    2  O   UNK N   1      43.042  20.524   2.523  0.00  0.00    -0.349 OA
HETATM    3  C   UNK N   1      42.034  21.486   2.732  0.00  0.00     0.179 C 
HETATM    4  C   UNK N   1      42.572  22.876   2.363  0.00  0.00     0.180 C 
HETATM    5  C   UNK N   1      43.763  23.183   3.269  0.00  0.00     0.183 C 
HETATM    6  C   UNK N   1      44.774  22.043   3.217  0.00  0.00     0.204 C 
ENDROOT
BRANCH   3   7
HETATM    7  C   UNK N   1      40.827  21.149   1.868  0.00  0.00     0.198 C 
BRANCH   7   8
HETATM    8  O   UNK N   1      39.649  21.425   2.560  0.00  0.00    -0.398 OA
HETATM    9  H   UNK N   1      39.379  20.961   3.369  0.00  0.00     0.209 HD
ENDBRANCH   7   8
ENDBRANCH   3   7
BRANCH   4  10
HETATM   10  O   UNK N   1      41.586  23.847   2.548  0.00  0.00    -0.390 OA
HETATM   11  H   UNK N   1      41.547  24.733   2.155  0.00  0.00     0.210 HD
ENDBRANCH   4  10
BRANCH   1  12
HETATM   12  O   UNK N   1      44.935  19.660   3.479  0.00  0.00    -0.363 OA
HETATM   13  C   UNK N   1      44.229  18.600   2.912  0.00  0.00     0.204 C 
ENDBRANCH   1  12
BRANCH   5  14
HETATM   14  O   UNK N   1      44.367  24.380   2.882  0.00  0.00    -0.390 OA
HETATM   15  H   UNK N   1      45.235  24.432   2.452  0.00  0.00     0.210 HD
ENDBRANCH   5  14
BRANCH   6  16
HETATM   16  O   UNK N   1      45.767  22.255   4.175  0.00  0.00    -0.388 OA
HETATM   17  H   UNK N   1      46.557  22.802   4.035  0.00  0.00     0.210 HD
ENDBRANCH   6  16
TORSDOF 6
ENDMDL
MODEL 9
REMARK VINA RESULT:      -4.7     13.050     14.799
REMARK  6 active torsions:
REMARK  status: ('A' for Active; 'I' for Inactive)
REMARK    1  A    between atoms: C_3  and  O_2 
REMARK    2  A    between atoms: C_5  and  C_6 
REMARK    3  A    between atoms: C_6  and  O_7 
REMARK    4  A    between atoms: C_8  and  O_9 
REMARK    5  A    between atoms: C_10  and  O_11 
REMARK    6  A    between atoms: C_12  and  O_13 
ROOT
HETATM    1  C   UNK N   1      32.661  15.210   9.015  0.00  0.00     0.290 C 
HETATM    2  O   UNK N   1      32.886  15.590   7.675  0.00  0.00    -0.349 OA
HETATM    3  C   UNK N   1      33.034  16.991   7.649  0.00  0.00     0.179 C 
HETATM    4  C   UNK N   1      34.358  17.376   8.323  0.00  0.00     0.180 C 
HETATM    5  C   UNK N   1      34.314  16.897   9.773  0.00  0.00     0.183 C 
HETATM    6  C   UNK N   1      33.944  15.419   9.830  0.00  0.00     0.204 C 
ENDROOT
BRANCH   3   7
HETATM    7  C   UNK N   1      33.026  17.472   6.206  0.00  0.00     0.198 C 
BRANCH   7   8
HETATM    8  O   UNK N   1      34.332  17.670   5.757  0.00  0.00    -0.398 OA
HETATM    9  H   UNK N   1      35.118  17.374   6.244  0.00  0.00     0.209 HD
ENDBRANCH   7   8
ENDBRANCH   3   7
BRANCH   4  10
HETATM   10  O   UNK N   1      34.536  18.761   8.297  0.00  0.00    -0.390 OA
HETATM   11  H   UNK N   1      33.853  19.446   8.366  0.00  0.00     0.210 HD
ENDBRANCH   4  10
BRANCH   1  12
HETATM   12  O   UNK N   1      32.280  13.867   9.058  0.00  0.00    -0.363 OA
HETATM   13  C   UNK N   1      33.192  13.202   8.238  0.00  0.00     0.204 C 
ENDBRANCH   1  12
BRANCH   5  14
HETATM   14  O   UNK N   1      35.548  17.108  10.389  0.00  0.00    -0.390 OA
HETATM   15  H   UNK N   1      36.085  16.400  10.778  0.00  0.00     0.210 HD
ENDBRANCH   5  14
BRANCH   6  16
HETATM   16  O   UNK N   1      33.738  15.040  11.158  0.00  0.00    -0.388 OA
HETATM   17  H   UNK N   1      32.865  14.906  11.561  0.00  0.00     0.210 HD
ENDBRANCH   6  16
TORSDOF 6
ENDMDL
