MODEL 1
REMARK VINA RESULT:      -5.5      0.000      0.000
REMARK WARNING: 32 MAX_TORS EXCEEDED!!!
REMARK  45 active torsions:
REMARK  status: ('A' for Active; 'I' for Inactive)
REMARK    1  A    between atoms: C_8  and  C_6 
REMARK    2  A    between atoms: C_9  and  C_7 
REMARK    3  A    between atoms: C_10  and  C_8 
REMARK    4  A    between atoms: C_11  and  C_9 
REMARK    5  A    between atoms: C_12  and  C_10 
REMARK    6  A    between atoms: C_13  and  C_11 
REMARK    7  A    between atoms: C_14  and  C_12 
REMARK    8  A    between atoms: C_15  and  C_13 
REMARK    9  A    between atoms: C_16  and  C_14 
REMARK   10  A    between atoms: C_17  and  C_15 
REMARK   11  A    between atoms: C_18  and  C_16 
REMARK   12  A    between atoms: C_19  and  C_17 
REMARK   13  A    between atoms: C_20  and  C_18 
REMARK   14  A    between atoms: C_21  and  C_19 
REMARK   15  A    between atoms: C_22  and  C_20 
REMARK   16  A    between atoms: C_23  and  C_21 
REMARK   17  A    between atoms: C_24  and  C_22 
REMARK   18  A    between atoms: C_25  and  C_23 
REMARK   19  A    between atoms: C_26  and  C_24 
REMARK   20  A    between atoms: C_27  and  C_25 
REMARK   21  A    between atoms: C_28  and  C_26 
REMARK   22  A    between atoms: C_29  and  C_27 
REMARK   23  A    between atoms: C_30  and  C_28 
REMARK   24  A    between atoms: C_31  and  C_29 
REMARK   25  A    between atoms: C_32  and  C_30 
REMARK   26  A    between atoms: C_33  and  C_31 
REMARK   27  A    between atoms: C_34  and  C_32 
REMARK   28  A    between atoms: C_35  and  C_33 
REMARK   29  A    between atoms: C_36  and  C_34 
REMARK   30  A    between atoms: C_37  and  C_35 
REMARK   31  A    between atoms: C_43  and  C_36 
REMARK   32  A    between atoms: C_44  and  C_37 
REMARK   33  A    between atoms: C_39  and  C_38 
REMARK   34  A    between atoms: N_45  and  C_38 
REMARK   35  A    between atoms: O_51  and  C_39 
REMARK   36  A    between atoms: C_42  and  C_40 
REMARK   37  A    between atoms: O_50  and  C_40 
REMARK   38  A    between atoms: C_42  and  C_41 
REMARK   39  A    between atoms: O_52  and  C_41 
REMARK   40  A    between atoms: C_42  and  O_53 
REMARK   41  A    between atoms: O_50  and  C_43 
REMARK   42  A    between atoms: O_53  and  C_44 
REMARK   43  A    between atoms: P_54  and  O_49 
REMARK   44  A    between atoms: P_54  and  O_51 
REMARK   45  A    between atoms: P_54  and  O_52 
ROOT
HETATM    1  C   UNK N   1      21.879  17.965   4.580  0.00  0.00     0.180 C 
ENDROOT
BRANCH   1   2
HETATM    2  C   UNK N   1      21.533  17.936   6.071  0.00  0.00     0.213 C 
BRANCH   2   3
HETATM    3  O   UNK N   1      21.777  16.690   6.599  0.00  0.00    -0.319 OA
BRANCH   3   4
HETATM    4  C   UNK N   1      21.095  16.229   7.680  0.00  0.00     0.258 C 
HETATM    5  O   UNK N   1      20.587  17.028   8.448  0.00  0.00    -0.265 OA
BRANCH   4   6
HETATM    6  C   UNK N   1      20.950  14.754   7.957  0.00  0.00     0.111 C 
BRANCH   6   7
HETATM    7  C   UNK N   1      21.321  14.443   9.404  0.00  0.00     0.010 C 
BRANCH   7   8
HETATM    8  C   UNK N   1      21.045  13.002   9.805  0.00  0.00     0.000 C 
BRANCH   8   9
HETATM    9  C   UNK N   1      21.951  12.553  10.935  0.00  0.00     0.000 C 
BRANCH   9  10
HETATM   10  C   UNK N   1      23.043  11.676  10.360  0.00  0.00     0.000 C 
BRANCH  10  11
HETATM   11  C   UNK N   1      24.400  12.281  10.624  0.00  0.00     0.000 C 
BRANCH  11  12
HETATM   12  C   UNK N   1      24.833  13.093   9.419  0.00  0.00     0.000 C 
BRANCH  12  13
HETATM   13  C   UNK N   1      24.392  12.389   8.148  0.00  0.00     0.000 C 
BRANCH  13  14
HETATM   14  C   UNK N   1      24.916  13.138   6.931  0.00  0.00     0.000 C 
BRANCH  14  15
HETATM   15  C   UNK N   1      24.835  14.647   7.114  0.00  0.00     0.000 C 
BRANCH  15  16
HETATM   16  C   UNK N   1      25.880  15.375   6.280  0.00  0.00     0.000 C 
BRANCH  16  17
HETATM   17  C   UNK N   1      25.245  16.543   5.537  0.00  0.00     0.000 C 
BRANCH  17  18
HETATM   18  C   UNK N   1      25.600  16.506   4.057  0.00  0.00     0.000 C 
BRANCH  18  19
HETATM   19  C   UNK N   1      26.679  15.470   3.780  0.00  0.00     0.000 C 
BRANCH  19  20
HETATM   20  C   UNK N   1      27.838  16.105   3.035  0.00  0.00    -0.000 C 
BRANCH  20  21
HETATM   21  C   UNK N   1      29.125  15.360   3.326  0.00  0.00    -0.005 C 
HETATM   22  C   UNK N   1      28.838  14.220   4.279  0.00  0.00     0.005 C 
ENDBRANCH  20  21
ENDBRANCH  19  20
ENDBRANCH  18  19
ENDBRANCH  17  18
ENDBRANCH  16  17
ENDBRANCH  15  16
ENDBRANCH  14  15
ENDBRANCH  13  14
ENDBRANCH  12  13
ENDBRANCH  11  12
ENDBRANCH  10  11
ENDBRANCH   9  10
ENDBRANCH   8   9
ENDBRANCH   7   8
ENDBRANCH   6   7
ENDBRANCH   4   6
ENDBRANCH   3   4
ENDBRANCH   2   3
ENDBRANCH   1   2
BRANCH   1  23
HETATM   23  C   UNK N   1      21.107  16.877   3.835  0.00  0.00     0.215 C 
BRANCH  23  24
HETATM   24  O   UNK N   1      21.533  16.787   2.500  0.00  0.00    -0.294 OA
BRANCH  24  25
HETATM   25  P   UNK N   1      20.139  16.369   1.545  0.00  0.00     0.393 P 
HETATM   26  O   UNK N   1      20.191  17.919   1.463  0.00  0.00    -0.631 OA
BRANCH  25  27
HETATM   27  O   UNK N   1      20.120  16.722  -0.157  0.00  0.00    -0.307 OA
HETATM   28  H   UNK N   1      19.348  16.658  -0.741  0.00  0.00     0.222 HD
ENDBRANCH  25  27
BRANCH  25  29
HETATM   29  O   UNK N   1      21.525  15.656   0.762  0.00  0.00    -0.295 OA
BRANCH  29  30
HETATM   30  C   UNK N   1      21.715  14.431   1.412  0.00  0.00     0.208 C 
BRANCH  30  31
HETATM   31  C   UNK N   1      20.411  13.643   1.446  0.00  0.00     0.262 C 
BRANCH  31  32
HETATM   32  N   UNK N   1      20.283  12.794   2.631  0.00  0.00    -0.077 N 
HETATM   33  C   UNK N   1      20.319  11.384   2.276  0.00  0.00     0.271 C 
HETATM   34  C   UNK N   1      19.057  13.083   3.360  0.00  0.00     0.271 C 
HETATM   35  C   UNK N   1      21.406  13.073   3.505  0.00  0.00     0.271 C 
ENDBRANCH  31  32
ENDBRANCH  30  31
ENDBRANCH  29  30
ENDBRANCH  25  29
ENDBRANCH  24  25
ENDBRANCH  23  24
ENDBRANCH   1  23
BRANCH   1  36
HETATM   36  O   UNK N   1      21.615  19.216   4.047  0.00  0.00    -0.312 OA
BRANCH  36  37
HETATM   37  C   UNK N   1      22.530  19.966   3.370  0.00  0.00     0.259 C 
HETATM   38  O   UNK N   1      22.178  20.938   2.716  0.00  0.00    -0.265 OA
BRANCH  37  39
HETATM   39  C   UNK N   1      23.981  19.588   3.450  0.00  0.00     0.111 C 
BRANCH  39  40
HETATM   40  C   UNK N   1      24.897  20.565   2.720  0.00  0.00     0.010 C 
BRANCH  40  41
HETATM   41  C   UNK N   1      26.329  20.396   3.201  0.00  0.00     0.000 C 
BRANCH  41  42
HETATM   42  C   UNK N   1      26.361  20.104   4.688  0.00  0.00     0.000 C 
BRANCH  42  43
HETATM   43  C   UNK N   1      27.780  19.805   5.119  0.00  0.00     0.000 C 
BRANCH  43  44
HETATM   44  C   UNK N   1      27.825  19.684   6.630  0.00  0.00     0.000 C 
BRANCH  44  45
HETATM   45  C   UNK N   1      28.107  18.250   7.062  0.00  0.00     0.000 C 
BRANCH  45  46
HETATM   46  C   UNK N   1      29.193  17.579   6.225  0.00  0.00     0.000 C 
BRANCH  46  47
HETATM   47  C   UNK N   1      30.206  16.816   7.074  0.00  0.00     0.000 C 
BRANCH  47  48
HETATM   48  C   UNK N   1      31.347  16.247   6.247  0.00  0.00     0.000 C 
BRANCH  48  49
HETATM   49  C   UNK N   1      31.784  17.230   5.171  0.00  0.00     0.000 C 
BRANCH  49  50
HETATM   50  C   UNK N   1      33.258  17.590   5.318  0.00  0.00     0.000 C 
BRANCH  50  51
HETATM   51  C   UNK N   1      33.857  16.929   6.547  0.00  0.00     0.000 C 
BRANCH  51  52
HETATM   52  C   UNK N   1      34.218  17.968   7.595  0.00  0.00     0.000 C 
BRANCH  52  53
HETATM   53  C   UNK N   1      34.336  17.313   8.958  0.00  0.00    -0.000 C 
BRANCH  53  54
HETATM   54  C   UNK N   1      34.349  15.802   8.829  0.00  0.00    -0.005 C 
HETATM   55  C   UNK N   1      33.084  15.239   9.439  0.00  0.00     0.005 C 
ENDBRANCH  53  54
ENDBRANCH  52  53
ENDBRANCH  51  52
ENDBRANCH  50  51
ENDBRANCH  49  50
ENDBRANCH  48  49
ENDBRANCH  47  48
ENDBRANCH  46  47
ENDBRANCH  45  46
ENDBRANCH  44  45
ENDBRANCH  43  44
ENDBRANCH  42  43
ENDBRANCH  41  42
ENDBRANCH  40  41
ENDBRANCH  39  40
ENDBRANCH  37  39
ENDBRANCH  36  37
ENDBRANCH   1  36
TORSDOF 45
ENDMDL
MODEL 2
REMARK VINA RESULT:      -5.4      1.561      6.921
REMARK WARNING: 32 MAX_TORS EXCEEDED!!!
REMARK  45 active torsions:
REMARK  status: ('A' for Active; 'I' for Inactive)
REMARK    1  A    between atoms: C_8  and  C_6 
REMARK    2  A    between atoms: C_9  and  C_7 
REMARK    3  A    between atoms: C_10  and  C_8 
REMARK    4  A    between atoms: C_11  and  C_9 
REMARK    5  A    between atoms: C_12  and  C_10 
REMARK    6  A    between atoms: C_13  and  C_11 
REMARK    7  A    between atoms: C_14  and  C_12 
REMARK    8  A    between atoms: C_15  and  C_13 
REMARK    9  A    between atoms: C_16  and  C_14 
REMARK   10  A    between atoms: C_17  and  C_15 
REMARK   11  A    between atoms: C_18  and  C_16 
REMARK   12  A    between atoms: C_19  and  C_17 
REMARK   13  A    between atoms: C_20  and  C_18 
REMARK   14  A    between atoms: C_21  and  C_19 
REMARK   15  A    between atoms: C_22  and  C_20 
REMARK   16  A    between atoms: C_23  and  C_21 
REMARK   17  A    between atoms: C_24  and  C_22 
REMARK   18  A    between atoms: C_25  and  C_23 
REMARK   19  A    between atoms: C_26  and  C_24 
REMARK   20  A    between atoms: C_27  and  C_25 
REMARK   21  A    between atoms: C_28  and  C_26 
REMARK   22  A    between atoms: C_29  and  C_27 
REMARK   23  A    between atoms: C_30  and  C_28 
REMARK   24  A    between atoms: C_31  and  C_29 
REMARK   25  A    between atoms: C_32  and  C_30 
REMARK   26  A    between atoms: C_33  and  C_31 
REMARK   27  A    between atoms: C_34  and  C_32 
REMARK   28  A    between atoms: C_35  and  C_33 
REMARK   29  A    between atoms: C_36  and  C_34 
REMARK   30  A    between atoms: C_37  and  C_35 
REMARK   31  A    between atoms: C_43  and  C_36 
REMARK   32  A    between atoms: C_44  and  C_37 
REMARK   33  A    between atoms: C_39  and  C_38 
REMARK   34  A    between atoms: N_45  and  C_38 
REMARK   35  A    between atoms: O_51  and  C_39 
REMARK   36  A    between atoms: C_42  and  C_40 
REMARK   37  A    between atoms: O_50  and  C_40 
REMARK   38  A    between atoms: C_42  and  C_41 
REMARK   39  A    between atoms: O_52  and  C_41 
REMARK   40  A    between atoms: C_42  and  O_53 
REMARK   41  A    between atoms: O_50  and  C_43 
REMARK   42  A    between atoms: O_53  and  C_44 
REMARK   43  A    between atoms: P_54  and  O_49 
REMARK   44  A    between atoms: P_54  and  O_51 
REMARK   45  A    between atoms: P_54  and  O_52 
ROOT
HETATM    1  C   UNK N   1      21.234  19.136   4.075  0.00  0.00     0.180 C 
ENDROOT
BRANCH   1   2
HETATM    2  C   UNK N   1      22.123  19.816   3.030  0.00  0.00     0.213 C 
BRANCH   2   3
HETATM    3  O   UNK N   1      23.226  20.380   3.626  0.00  0.00    -0.319 OA
BRANCH   3   4
HETATM    4  C   UNK N   1      24.455  20.321   3.051  0.00  0.00     0.258 C 
HETATM    5  O   UNK N   1      24.640  20.883   1.985  0.00  0.00    -0.265 OA
BRANCH   4   6
HETATM    6  C   UNK N   1      25.597  19.577   3.694  0.00  0.00     0.111 C 
BRANCH   6   7
HETATM    7  C   UNK N   1      26.751  20.527   4.000  0.00  0.00     0.010 C 
BRANCH   7   8
HETATM    8  C   UNK N   1      27.766  19.954   4.978  0.00  0.00     0.000 C 
BRANCH   8   9
HETATM    9  C   UNK N   1      28.338  18.640   4.481  0.00  0.00     0.000 C 
BRANCH   9  10
HETATM   10  C   UNK N   1      28.853  17.856   5.670  0.00  0.00     0.000 C 
BRANCH  10  11
HETATM   11  C   UNK N   1      28.115  18.255   6.925  0.00  0.00     0.000 C 
BRANCH  11  12
HETATM   12  C   UNK N   1      28.571  17.382   8.077  0.00  0.00     0.000 C 
BRANCH  12  13
HETATM   13  C   UNK N   1      28.963  18.259   9.253  0.00  0.00     0.000 C 
BRANCH  13  14
HETATM   14  C   UNK N   1      30.404  18.725   9.096  0.00  0.00     0.000 C 
BRANCH  14  15
HETATM   15  C   UNK N   1      31.288  17.643   8.492  0.00  0.00     0.000 C 
BRANCH  15  16
HETATM   16  C   UNK N   1      32.723  18.121   8.311  0.00  0.00     0.000 C 
BRANCH  16  17
HETATM   17  C   UNK N   1      33.347  17.469   7.084  0.00  0.00     0.000 C 
BRANCH  17  18
HETATM   18  C   UNK N   1      32.336  17.357   5.952  0.00  0.00     0.000 C 
BRANCH  18  19
HETATM   19  C   UNK N   1      32.961  16.712   4.724  0.00  0.00     0.000 C 
BRANCH  19  20
HETATM   20  C   UNK N   1      32.304  17.239   3.462  0.00  0.00    -0.000 C 
BRANCH  20  21
HETATM   21  C   UNK N   1      31.073  16.422   3.126  0.00  0.00    -0.005 C 
HETATM   22  C   UNK N   1      31.417  14.949   3.194  0.00  0.00     0.005 C 
ENDBRANCH  20  21
ENDBRANCH  19  20
ENDBRANCH  18  19
ENDBRANCH  17  18
ENDBRANCH  16  17
ENDBRANCH  15  16
ENDBRANCH  14  15
ENDBRANCH  13  14
ENDBRANCH  12  13
ENDBRANCH  11  12
ENDBRANCH  10  11
ENDBRANCH   9  10
ENDBRANCH   8   9
ENDBRANCH   7   8
ENDBRANCH   6   7
ENDBRANCH   4   6
ENDBRANCH   3   4
ENDBRANCH   2   3
ENDBRANCH   1   2
BRANCH   1  23
HETATM   23  C   UNK N   1      20.245  18.191   3.394  0.00  0.00     0.215 C 
BRANCH  23  24
HETATM   24  O   UNK N   1      20.862  17.501   2.337  0.00  0.00    -0.294 OA
BRANCH  24  25
HETATM   25  P   UNK N   1      19.597  16.974   1.264  0.00  0.00     0.393 P 
HETATM   26  O   UNK N   1      20.654  17.595   0.312  0.00  0.00    -0.631 OA
BRANCH  25  27
HETATM   27  O   UNK N   1      19.921  15.731   0.092  0.00  0.00    -0.307 OA
HETATM   28  H   UNK N   1      20.610  15.760  -0.590  0.00  0.00     0.222 HD
ENDBRANCH  25  27
BRANCH  25  29
HETATM   29  O   UNK N   1      20.226  15.548   2.049  0.00  0.00    -0.295 OA
BRANCH  29  30
HETATM   30  C   UNK N   1      21.354  15.192   1.298  0.00  0.00     0.208 C 
BRANCH  30  31
HETATM   31  C   UNK N   1      22.277  14.303   2.122  0.00  0.00     0.262 C 
BRANCH  31  32
HETATM   32  N   UNK N   1      22.955  13.282   1.323  0.00  0.00    -0.077 N 
HETATM   33  C   UNK N   1      23.974  13.870   0.467  0.00  0.00     0.271 C 
HETATM   34  C   UNK N   1      22.008  12.532   0.509  0.00  0.00     0.271 C 
HETATM   35  C   UNK N   1      23.601  12.356   2.232  0.00  0.00     0.271 C 
ENDBRANCH  31  32
ENDBRANCH  30  31
ENDBRANCH  29  30
ENDBRANCH  25  29
ENDBRANCH  24  25
ENDBRANCH  23  24
ENDBRANCH   1  23
BRANCH   1  36
HETATM   36  O   UNK N   1      22.010  18.461   5.003  0.00  0.00    -0.312 OA
BRANCH  36  37
HETATM   37  C   UNK N   1      21.532  17.961   6.177  0.00  0.00     0.259 C 
HETATM   38  O   UNK N   1      21.015  18.699   7.005  0.00  0.00    -0.265 OA
BRANCH  37  39
HETATM   39  C   UNK N   1      21.639  16.486   6.436  0.00  0.00     0.111 C 
BRANCH  39  40
HETATM   40  C   UNK N   1      20.543  15.956   7.356  0.00  0.00     0.010 C 
BRANCH  40  41
HETATM   41  C   UNK N   1      21.163  15.295   8.576  0.00  0.00     0.000 C 
BRANCH  41  42
HETATM   42  C   UNK N   1      20.091  14.660   9.440  0.00  0.00     0.000 C 
BRANCH  42  43
HETATM   43  C   UNK N   1      20.651  13.436  10.131  0.00  0.00     0.000 C 
BRANCH  43  44
HETATM   44  C   UNK N   1      22.159  13.419   9.966  0.00  0.00     0.000 C 
BRANCH  44  45
HETATM   45  C   UNK N   1      22.677  12.002   9.758  0.00  0.00     0.000 C 
BRANCH  45  46
HETATM   46  C   UNK N   1      23.743  11.912   8.668  0.00  0.00     0.000 C 
BRANCH  46  47
HETATM   47  C   UNK N   1      23.215  12.302   7.291  0.00  0.00     0.000 C 
BRANCH  47  48
HETATM   48  C   UNK N   1      23.938  13.507   6.710  0.00  0.00     0.000 C 
BRANCH  48  49
HETATM   49  C   UNK N   1      25.229  13.785   7.467  0.00  0.00     0.000 C 
BRANCH  49  50
HETATM   50  C   UNK N   1      25.839  15.116   7.047  0.00  0.00     0.000 C 
BRANCH  50  51
HETATM   51  C   UNK N   1      25.007  15.775   5.961  0.00  0.00     0.000 C 
BRANCH  51  52
HETATM   52  C   UNK N   1      25.874  16.151   4.772  0.00  0.00     0.000 C 
BRANCH  52  53
HETATM   53  C   UNK N   1      25.589  15.224   3.605  0.00  0.00    -0.000 C 
BRANCH  53  54
HETATM   54  C   UNK N   1      26.581  14.076   3.576  0.00  0.00    -0.005 C 
HETATM   55  C   UNK N   1      27.585  14.313   2.469  0.00  0.00     0.005 C 
ENDBRANCH  53  54
ENDBRANCH  52  53
ENDBRANCH  51  52
ENDBRANCH  50  51
ENDBRANCH  49  50
ENDBRANCH  48  49
ENDBRANCH  47  48
ENDBRANCH  46  47
ENDBRANCH  45  46
ENDBRANCH  44  45
ENDBRANCH  43  44
ENDBRANCH  42  43
ENDBRANCH  41  42
ENDBRANCH  40  41
ENDBRANCH  39  40
ENDBRANCH  37  39
ENDBRANCH  36  37
ENDBRANCH   1  36
TORSDOF 45
ENDMDL
MODEL 3
REMARK VINA RESULT:      -5.3      1.647      2.834
REMARK WARNING: 32 MAX_TORS EXCEEDED!!!
REMARK  45 active torsions:
REMARK  status: ('A' for Active; 'I' for Inactive)
REMARK    1  A    between atoms: C_8  and  C_6 
REMARK    2  A    between atoms: C_9  and  C_7 
REMARK    3  A    between atoms: C_10  and  C_8 
REMARK    4  A    between atoms: C_11  and  C_9 
REMARK    5  A    between atoms: C_12  and  C_10 
REMARK    6  A    between atoms: C_13  and  C_11 
REMARK    7  A    between atoms: C_14  and  C_12 
REMARK    8  A    between atoms: C_15  and  C_13 
REMARK    9  A    between atoms: C_16  and  C_14 
REMARK   10  A    between atoms: C_17  and  C_15 
REMARK   11  A    between atoms: C_18  and  C_16 
REMARK   12  A    between atoms: C_19  and  C_17 
REMARK   13  A    between atoms: C_20  and  C_18 
REMARK   14  A    between atoms: C_21  and  C_19 
REMARK   15  A    between atoms: C_22  and  C_20 
REMARK   16  A    between atoms: C_23  and  C_21 
REMARK   17  A    between atoms: C_24  and  C_22 
REMARK   18  A    between atoms: C_25  and  C_23 
REMARK   19  A    between atoms: C_26  and  C_24 
REMARK   20  A    between atoms: C_27  and  C_25 
REMARK   21  A    between atoms: C_28  and  C_26 
REMARK   22  A    between atoms: C_29  and  C_27 
REMARK   23  A    between atoms: C_30  and  C_28 
REMARK   24  A    between atoms: C_31  and  C_29 
REMARK   25  A    between atoms: C_32  and  C_30 
REMARK   26  A    between atoms: C_33  and  C_31 
REMARK   27  A    between atoms: C_34  and  C_32 
REMARK   28  A    between atoms: C_35  and  C_33 
REMARK   29  A    between atoms: C_36  and  C_34 
REMARK   30  A    between atoms: C_37  and  C_35 
REMARK   31  A    between atoms: C_43  and  C_36 
REMARK   32  A    between atoms: C_44  and  C_37 
REMARK   33  A    between atoms: C_39  and  C_38 
REMARK   34  A    between atoms: N_45  and  C_38 
REMARK   35  A    between atoms: O_51  and  C_39 
REMARK   36  A    between atoms: C_42  and  C_40 
REMARK   37  A    between atoms: O_50  and  C_40 
REMARK   38  A    between atoms: C_42  and  C_41 
REMARK   39  A    between atoms: O_52  and  C_41 
REMARK   40  A    between atoms: C_42  and  O_53 
REMARK   41  A    between atoms: O_50  and  C_43 
REMARK   42  A    between atoms: O_53  and  C_44 
REMARK   43  A    between atoms: P_54  and  O_49 
REMARK   44  A    between atoms: P_54  and  O_51 
REMARK   45  A    between atoms: P_54  and  O_52 
ROOT
HETATM    1  C   UNK N   1      22.735  18.700   3.916  0.00  0.00     0.180 C 
ENDROOT
BRANCH   1   2
HETATM    2  C   UNK N   1      22.875  18.296   5.386  0.00  0.00     0.213 C 
BRANCH   2   3
HETATM    3  O   UNK N   1      21.886  17.408   5.740  0.00  0.00    -0.319 OA
BRANCH   3   4
HETATM    4  C   UNK N   1      21.071  17.636   6.802  0.00  0.00     0.258 C 
HETATM    5  O   UNK N   1      20.908  18.780   7.192  0.00  0.00    -0.265 OA
BRANCH   4   6
HETATM    6  C   UNK N   1      20.363  16.512   7.514  0.00  0.00     0.111 C 
BRANCH   6   7
HETATM    7  C   UNK N   1      21.336  15.380   7.828  0.00  0.00     0.010 C 
BRANCH   7   8
HETATM    8  C   UNK N   1      20.997  14.624   9.104  0.00  0.00     0.000 C 
BRANCH   8   9
HETATM    9  C   UNK N   1      21.417  13.169   9.020  0.00  0.00     0.000 C 
BRANCH   9  10
HETATM   10  C   UNK N   1      21.431  12.753   7.564  0.00  0.00     0.000 C 
BRANCH  10  11
HETATM   11  C   UNK N   1      22.429  11.643   7.342  0.00  0.00     0.000 C 
BRANCH  11  12
HETATM   12  C   UNK N   1      23.029  11.774   5.956  0.00  0.00     0.000 C 
BRANCH  12  13
HETATM   13  C   UNK N   1      22.534  13.055   5.308  0.00  0.00     0.000 C 
BRANCH  13  14
HETATM   14  C   UNK N   1      23.463  13.453   4.169  0.00  0.00     0.000 C 
BRANCH  14  15
HETATM   15  C   UNK N   1      23.165  14.854   3.655  0.00  0.00     0.000 C 
BRANCH  15  16
HETATM   16  C   UNK N   1      24.426  15.564   3.182  0.00  0.00     0.000 C 
BRANCH  16  17
HETATM   17  C   UNK N   1      25.664  14.832   3.682  0.00  0.00     0.000 C 
BRANCH  17  18
HETATM   18  C   UNK N   1      26.644  15.798   4.332  0.00  0.00     0.000 C 
BRANCH  18  19
HETATM   19  C   UNK N   1      27.263  15.191   5.582  0.00  0.00     0.000 C 
BRANCH  19  20
HETATM   20  C   UNK N   1      26.326  14.162   6.186  0.00  0.00    -0.000 C 
BRANCH  20  21
HETATM   21  C   UNK N   1      25.506  14.782   7.300  0.00  0.00    -0.005 C 
HETATM   22  C   UNK N   1      25.145  13.712   8.308  0.00  0.00     0.005 C 
ENDBRANCH  20  21
ENDBRANCH  19  20
ENDBRANCH  18  19
ENDBRANCH  17  18
ENDBRANCH  16  17
ENDBRANCH  15  16
ENDBRANCH  14  15
ENDBRANCH  13  14
ENDBRANCH  12  13
ENDBRANCH  11  12
ENDBRANCH  10  11
ENDBRANCH   9  10
ENDBRANCH   8   9
ENDBRANCH   7   8
ENDBRANCH   6   7
ENDBRANCH   4   6
ENDBRANCH   3   4
ENDBRANCH   2   3
ENDBRANCH   1   2
BRANCH   1  23
HETATM   23  C   UNK N   1      21.312  18.435   3.428  0.00  0.00     0.215 C 
BRANCH  23  24
HETATM   24  O   UNK N   1      21.267  17.285   2.622  0.00  0.00    -0.294 OA
BRANCH  24  25
HETATM   25  P   UNK N   1      19.908  17.465   1.549  0.00  0.00     0.393 P 
HETATM   26  O   UNK N   1      20.631  18.836   1.462  0.00  0.00    -0.631 OA
BRANCH  25  27
HETATM   27  O   UNK N   1      20.176  17.714  -0.150  0.00  0.00    -0.307 OA
HETATM   28  H   UNK N   1      20.997  18.038  -0.553  0.00  0.00     0.222 HD
ENDBRANCH  25  27
BRANCH  25  29
HETATM   29  O   UNK N   1      20.906  16.190   0.898  0.00  0.00    -0.295 OA
BRANCH  29  30
HETATM   30  C   UNK N   1      20.022  15.133   0.649  0.00  0.00     0.208 C 
BRANCH  30  31
HETATM   31  C   UNK N   1      20.058  14.132   1.797  0.00  0.00     0.262 C 
BRANCH  31  32
HETATM   32  N   UNK N   1      20.401  12.776   1.367  0.00  0.00    -0.077 N 
HETATM   33  C   UNK N   1      19.407  12.246   0.448  0.00  0.00     0.271 C 
HETATM   34  C   UNK N   1      20.541  11.880   2.505  0.00  0.00     0.271 C 
HETATM   35  C   UNK N   1      21.675  12.834   0.678  0.00  0.00     0.271 C 
ENDBRANCH  31  32
ENDBRANCH  30  31
ENDBRANCH  29  30
ENDBRANCH  25  29
ENDBRANCH  24  25
ENDBRANCH  23  24
ENDBRANCH   1  23
BRANCH   1  36
HETATM   36  O   UNK N   1      23.081  20.030   3.746  0.00  0.00    -0.312 OA
BRANCH  36  37
HETATM   37  C   UNK N   1      24.194  20.451   3.082  0.00  0.00     0.259 C 
HETATM   38  O   UNK N   1      24.141  20.734   1.893  0.00  0.00    -0.265 OA
BRANCH  37  39
HETATM   39  C   UNK N   1      25.486  20.574   3.837  0.00  0.00     0.111 C 
BRANCH  39  40
HETATM   40  C   UNK N   1      26.369  19.334   3.722  0.00  0.00     0.010 C 
BRANCH  40  41
HETATM   41  C   UNK N   1      27.664  19.545   4.488  0.00  0.00     0.000 C 
BRANCH  41  42
HETATM   42  C   UNK N   1      27.529  20.701   5.459  0.00  0.00     0.000 C 
BRANCH  42  43
HETATM   43  C   UNK N   1      27.239  20.172   6.846  0.00  0.00     0.000 C 
BRANCH  43  44
HETATM   44  C   UNK N   1      28.395  19.300   7.297  0.00  0.00     0.000 C 
BRANCH  44  45
HETATM   45  C   UNK N   1      27.921  18.188   8.224  0.00  0.00     0.000 C 
BRANCH  45  46
HETATM   46  C   UNK N   1      28.873  17.942   9.392  0.00  0.00     0.000 C 
BRANCH  46  47
HETATM   47  C   UNK N   1      30.327  18.250   9.046  0.00  0.00     0.000 C 
BRANCH  47  48
HETATM   48  C   UNK N   1      31.080  17.024   8.555  0.00  0.00     0.000 C 
BRANCH  48  49
HETATM   49  C   UNK N   1      31.578  17.223   7.131  0.00  0.00     0.000 C 
BRANCH  49  50
HETATM   50  C   UNK N   1      30.613  16.619   6.119  0.00  0.00     0.000 C 
BRANCH  50  51
HETATM   51  C   UNK N   1      30.627  17.407   4.821  0.00  0.00     0.000 C 
BRANCH  51  52
HETATM   52  C   UNK N   1      32.047  17.573   4.308  0.00  0.00     0.000 C 
BRANCH  52  53
HETATM   53  C   UNK N   1      32.195  16.898   2.957  0.00  0.00    -0.000 C 
BRANCH  53  54
HETATM   54  C   UNK N   1      33.310  15.871   2.989  0.00  0.00    -0.005 C 
HETATM   55  C   UNK N   1      33.817  15.730   4.408  0.00  0.00     0.005 C 
ENDBRANCH  53  54
ENDBRANCH  52  53
ENDBRANCH  51  52
ENDBRANCH  50  51
ENDBRANCH  49  50
ENDBRANCH  48  49
ENDBRANCH  47  48
ENDBRANCH  46  47
ENDBRANCH  45  46
ENDBRANCH  44  45
ENDBRANCH  43  44
ENDBRANCH  42  43
ENDBRANCH  41  42
ENDBRANCH  40  41
ENDBRANCH  39  40
ENDBRANCH  37  39
ENDBRANCH  36  37
ENDBRANCH   1  36
TORSDOF 45
ENDMDL
MODEL 4
REMARK VINA RESULT:      -5.2      1.595      2.629
REMARK WARNING: 32 MAX_TORS EXCEEDED!!!
REMARK  45 active torsions:
REMARK  status: ('A' for Active; 'I' for Inactive)
REMARK    1  A    between atoms: C_8  and  C_6 
REMARK    2  A    between atoms: C_9  and  C_7 
REMARK    3  A    between atoms: C_10  and  C_8 
REMARK    4  A    between atoms: C_11  and  C_9 
REMARK    5  A    between atoms: C_12  and  C_10 
REMARK    6  A    between atoms: C_13  and  C_11 
REMARK    7  A    between atoms: C_14  and  C_12 
REMARK    8  A    between atoms: C_15  and  C_13 
REMARK    9  A    between atoms: C_16  and  C_14 
REMARK   10  A    between atoms: C_17  and  C_15 
REMARK   11  A    between atoms: C_18  and  C_16 
REMARK   12  A    between atoms: C_19  and  C_17 
REMARK   13  A    between atoms: C_20  and  C_18 
REMARK   14  A    between atoms: C_21  and  C_19 
REMARK   15  A    between atoms: C_22  and  C_20 
REMARK   16  A    between atoms: C_23  and  C_21 
REMARK   17  A    between atoms: C_24  and  C_22 
REMARK   18  A    between atoms: C_25  and  C_23 
REMARK   19  A    between atoms: C_26  and  C_24 
REMARK   20  A    between atoms: C_27  and  C_25 
REMARK   21  A    between atoms: C_28  and  C_26 
REMARK   22  A    between atoms: C_29  and  C_27 
REMARK   23  A    between atoms: C_30  and  C_28 
REMARK   24  A    between atoms: C_31  and  C_29 
REMARK   25  A    between atoms: C_32  and  C_30 
REMARK   26  A    between atoms: C_33  and  C_31 
REMARK   27  A    between atoms: C_34  and  C_32 
REMARK   28  A    between atoms: C_35  and  C_33 
REMARK   29  A    between atoms: C_36  and  C_34 
REMARK   30  A    between atoms: C_37  and  C_35 
REMARK   31  A    between atoms: C_43  and  C_36 
REMARK   32  A    between atoms: C_44  and  C_37 
REMARK   33  A    between atoms: C_39  and  C_38 
REMARK   34  A    between atoms: N_45  and  C_38 
REMARK   35  A    between atoms: O_51  and  C_39 
REMARK   36  A    between atoms: C_42  and  C_40 
REMARK   37  A    between atoms: O_50  and  C_40 
REMARK   38  A    between atoms: C_42  and  C_41 
REMARK   39  A    between atoms: O_52  and  C_41 
REMARK   40  A    between atoms: C_42  and  O_53 
REMARK   41  A    between atoms: O_50  and  C_43 
REMARK   42  A    between atoms: O_53  and  C_44 
REMARK   43  A    between atoms: P_54  and  O_49 
REMARK   44  A    between atoms: P_54  and  O_51 
REMARK   45  A    between atoms: P_54  and  O_52 
ROOT
HETATM    1  C   UNK N   1      23.213  18.977   3.979  0.00  0.00     0.180 C 
ENDROOT
BRANCH   1   2
HETATM    2  C   UNK N   1      23.315  18.157   5.268  0.00  0.00     0.213 C 
BRANCH   2   3
HETATM    3  O   UNK N   1      22.067  17.944   5.806  0.00  0.00    -0.319 OA
BRANCH   3   4
HETATM    4  C   UNK N   1      21.677  16.716   6.235  0.00  0.00     0.258 C 
HETATM    5  O   UNK N   1      22.162  15.723   5.719  0.00  0.00    -0.265 OA
BRANCH   4   6
HETATM    6  C   UNK N   1      20.657  16.546   7.332  0.00  0.00     0.111 C 
BRANCH   6   7
HETATM    7  C   UNK N   1      20.666  15.112   7.854  0.00  0.00     0.010 C 
BRANCH   7   8
HETATM    8  C   UNK N   1      20.591  15.018   9.370  0.00  0.00     0.000 C 
BRANCH   8   9
HETATM    9  C   UNK N   1      20.828  13.601   9.854  0.00  0.00     0.000 C 
BRANCH   9  10
HETATM   10  C   UNK N   1      21.512  12.821   8.751  0.00  0.00     0.000 C 
BRANCH  10  11
HETATM   11  C   UNK N   1      22.736  12.117   9.284  0.00  0.00     0.000 C 
BRANCH  11  12
HETATM   12  C   UNK N   1      23.857  13.122   9.462  0.00  0.00     0.000 C 
BRANCH  12  13
HETATM   13  C   UNK N   1      24.887  12.933   8.362  0.00  0.00     0.000 C 
BRANCH  13  14
HETATM   14  C   UNK N   1      24.718  14.014   7.303  0.00  0.00     0.000 C 
BRANCH  14  15
HETATM   15  C   UNK N   1      25.952  14.897   7.190  0.00  0.00     0.000 C 
BRANCH  15  16
HETATM   16  C   UNK N   1      25.769  15.996   6.152  0.00  0.00     0.000 C 
BRANCH  16  17
HETATM   17  C   UNK N   1      26.851  15.902   5.084  0.00  0.00     0.000 C 
BRANCH  17  18
HETATM   18  C   UNK N   1      28.121  15.280   5.648  0.00  0.00     0.000 C 
BRANCH  18  19
HETATM   19  C   UNK N   1      29.239  15.294   4.618  0.00  0.00     0.000 C 
BRANCH  19  20
HETATM   20  C   UNK N   1      28.784  16.004   3.357  0.00  0.00    -0.000 C 
BRANCH  20  21
HETATM   21  C   UNK N   1      28.809  15.055   2.176  0.00  0.00    -0.005 C 
HETATM   22  C   UNK N   1      29.645  13.842   2.528  0.00  0.00     0.005 C 
ENDBRANCH  20  21
ENDBRANCH  19  20
ENDBRANCH  18  19
ENDBRANCH  17  18
ENDBRANCH  16  17
ENDBRANCH  15  16
ENDBRANCH  14  15
ENDBRANCH  13  14
ENDBRANCH  12  13
ENDBRANCH  11  12
ENDBRANCH  10  11
ENDBRANCH   9  10
ENDBRANCH   8   9
ENDBRANCH   7   8
ENDBRANCH   6   7
ENDBRANCH   4   6
ENDBRANCH   3   4
ENDBRANCH   2   3
ENDBRANCH   1   2
BRANCH   1  23
HETATM   23  C   UNK N   1      21.766  19.408   3.740  0.00  0.00     0.215 C 
BRANCH  23  24
HETATM   24  O   UNK N   1      21.303  18.935   2.501  0.00  0.00    -0.294 OA
BRANCH  24  25
HETATM   25  P   UNK N   1      19.888  17.973   2.817  0.00  0.00     0.393 P 
HETATM   26  O   UNK N   1      19.357  19.432   2.849  0.00  0.00    -0.631 OA
BRANCH  25  27
HETATM   27  O   UNK N   1      18.564  17.986   1.691  0.00  0.00    -0.307 OA
HETATM   28  H   UNK N   1      18.509  17.466   0.874  0.00  0.00     0.222 HD
ENDBRANCH  25  27
BRANCH  25  29
HETATM   29  O   UNK N   1      20.446  17.547   1.220  0.00  0.00    -0.295 OA
BRANCH  29  30
HETATM   30  C   UNK N   1      20.190  16.175   1.104  0.00  0.00     0.208 C 
BRANCH  30  31
HETATM   31  C   UNK N   1      20.574  15.455   2.391  0.00  0.00     0.262 C 
BRANCH  31  32
HETATM   32  N   UNK N   1      21.643  14.474   2.202  0.00  0.00    -0.077 N 
HETATM   33  C   UNK N   1      21.503  13.356   3.122  0.00  0.00     0.271 C 
HETATM   34  C   UNK N   1      22.955  15.082   2.371  0.00  0.00     0.271 C 
HETATM   35  C   UNK N   1      21.551  13.965   0.848  0.00  0.00     0.271 C 
ENDBRANCH  31  32
ENDBRANCH  30  31
ENDBRANCH  29  30
ENDBRANCH  25  29
ENDBRANCH  24  25
ENDBRANCH  23  24
ENDBRANCH   1  23
BRANCH   1  36
HETATM   36  O   UNK N   1      24.057  20.073   4.036  0.00  0.00    -0.312 OA
BRANCH  36  37
HETATM   37  C   UNK N   1      24.862  20.470   3.010  0.00  0.00     0.259 C 
HETATM   38  O   UNK N   1      24.383  20.813   1.937  0.00  0.00    -0.265 OA
BRANCH  37  39
HETATM   39  C   UNK N   1      26.348  20.494   3.222  0.00  0.00     0.111 C 
BRANCH  39  40
HETATM   40  C   UNK N   1      26.898  19.178   3.764  0.00  0.00     0.010 C 
BRANCH  40  41
HETATM   41  C   UNK N   1      28.097  19.444   4.659  0.00  0.00     0.000 C 
BRANCH  41  42
HETATM   42  C   UNK N   1      27.786  20.542   5.657  0.00  0.00     0.000 C 
BRANCH  42  43
HETATM   43  C   UNK N   1      27.272  19.933   6.942  0.00  0.00     0.000 C 
BRANCH  43  44
HETATM   44  C   UNK N   1      28.095  18.703   7.273  0.00  0.00     0.000 C 
BRANCH  44  45
HETATM   45  C   UNK N   1      28.370  18.606   8.768  0.00  0.00     0.000 C 
BRANCH  45  46
HETATM   46  C   UNK N   1      29.771  18.087   9.083  0.00  0.00     0.000 C 
BRANCH  46  47
HETATM   47  C   UNK N   1      30.313  17.156   8.001  0.00  0.00     0.000 C 
BRANCH  47  48
HETATM   48  C   UNK N   1      31.798  16.877   8.165  0.00  0.00     0.000 C 
BRANCH  48  49
HETATM   49  C   UNK N   1      32.601  17.520   7.044  0.00  0.00     0.000 C 
BRANCH  49  50
HETATM   50  C   UNK N   1      32.408  16.775   5.729  0.00  0.00     0.000 C 
BRANCH  50  51
HETATM   51  C   UNK N   1      32.729  17.672   4.547  0.00  0.00     0.000 C 
BRANCH  51  52
HETATM   52  C   UNK N   1      32.274  17.032   3.246  0.00  0.00     0.000 C 
BRANCH  52  53
HETATM   53  C   UNK N   1      33.359  16.118   2.709  0.00  0.00    -0.000 C 
BRANCH  53  54
HETATM   54  C   UNK N   1      33.074  14.673   3.072  0.00  0.00    -0.005 C 
HETATM   55  C   UNK N   1      34.287  14.083   3.758  0.00  0.00     0.005 C 
ENDBRANCH  53  54
ENDBRANCH  52  53
ENDBRANCH  51  52
ENDBRANCH  50  51
ENDBRANCH  49  50
ENDBRANCH  48  49
ENDBRANCH  47  48
ENDBRANCH  46  47
ENDBRANCH  45  46
ENDBRANCH  44  45
ENDBRANCH  43  44
ENDBRANCH  42  43
ENDBRANCH  41  42
ENDBRANCH  40  41
ENDBRANCH  39  40
ENDBRANCH  37  39
ENDBRANCH  36  37
ENDBRANCH   1  36
TORSDOF 45
ENDMDL
MODEL 5
REMARK VINA RESULT:      -5.2      2.238      5.864
REMARK WARNING: 32 MAX_TORS EXCEEDED!!!
REMARK  45 active torsions:
REMARK  status: ('A' for Active; 'I' for Inactive)
REMARK    1  A    between atoms: C_8  and  C_6 
REMARK    2  A    between atoms: C_9  and  C_7 
REMARK    3  A    between atoms: C_10  and  C_8 
REMARK    4  A    between atoms: C_11  and  C_9 
REMARK    5  A    between atoms: C_12  and  C_10 
REMARK    6  A    between atoms: C_13  and  C_11 
REMARK    7  A    between atoms: C_14  and  C_12 
REMARK    8  A    between atoms: C_15  and  C_13 
REMARK    9  A    between atoms: C_16  and  C_14 
REMARK   10  A    between atoms: C_17  and  C_15 
REMARK   11  A    between atoms: C_18  and  C_16 
REMARK   12  A    between atoms: C_19  and  C_17 
REMARK   13  A    between atoms: C_20  and  C_18 
REMARK   14  A    between atoms: C_21  and  C_19 
REMARK   15  A    between atoms: C_22  and  C_20 
REMARK   16  A    between atoms: C_23  and  C_21 
REMARK   17  A    between atoms: C_24  and  C_22 
REMARK   18  A    between atoms: C_25  and  C_23 
REMARK   19  A    between atoms: C_26  and  C_24 
REMARK   20  A    between atoms: C_27  and  C_25 
REMARK   21  A    between atoms: C_28  and  C_26 
REMARK   22  A    between atoms: C_29  and  C_27 
REMARK   23  A    between atoms: C_30  and  C_28 
REMARK   24  A    between atoms: C_31  and  C_29 
REMARK   25  A    between atoms: C_32  and  C_30 
REMARK   26  A    between atoms: C_33  and  C_31 
REMARK   27  A    between atoms: C_34  and  C_32 
REMARK   28  A    between atoms: C_35  and  C_33 
REMARK   29  A    between atoms: C_36  and  C_34 
REMARK   30  A    between atoms: C_37  and  C_35 
REMARK   31  A    between atoms: C_43  and  C_36 
REMARK   32  A    between atoms: C_44  and  C_37 
REMARK   33  A    between atoms: C_39  and  C_38 
REMARK   34  A    between atoms: N_45  and  C_38 
REMARK   35  A    between atoms: O_51  and  C_39 
REMARK   36  A    between atoms: C_42  and  C_40 
REMARK   37  A    between atoms: O_50  and  C_40 
REMARK   38  A    between atoms: C_42  and  C_41 
REMARK   39  A    between atoms: O_52  and  C_41 
REMARK   40  A    between atoms: C_42  and  O_53 
REMARK   41  A    between atoms: O_50  and  C_43 
REMARK   42  A    between atoms: O_53  and  C_44 
REMARK   43  A    between atoms: P_54  and  O_49 
REMARK   44  A    between atoms: P_54  and  O_51 
REMARK   45  A    between atoms: P_54  and  O_52 
ROOT
HETATM    1  C   UNK N   1      19.779  16.021   3.963  0.00  0.00     0.180 C 
ENDROOT
BRANCH   1   2
HETATM    2  C   UNK N   1      19.626  14.550   3.569  0.00  0.00     0.213 C 
BRANCH   2   3
HETATM    3  O   UNK N   1      20.387  14.265   2.459  0.00  0.00    -0.319 OA
BRANCH   3   4
HETATM    4  C   UNK N   1      21.401  13.362   2.505  0.00  0.00     0.258 C 
HETATM    5  O   UNK N   1      21.231  12.252   2.031  0.00  0.00    -0.265 OA
BRANCH   4   6
HETATM    6  C   UNK N   1      22.732  13.696   3.129  0.00  0.00     0.111 C 
BRANCH   6   7
HETATM    7  C   UNK N   1      23.411  14.831   2.369  0.00  0.00     0.010 C 
BRANCH   7   8
HETATM    8  C   UNK N   1      24.849  14.525   1.978  0.00  0.00     0.000 C 
BRANCH   8   9
HETATM    9  C   UNK N   1      25.810  15.561   2.530  0.00  0.00     0.000 C 
BRANCH   9  10
HETATM   10  C   UNK N   1      27.199  15.259   2.009  0.00  0.00     0.000 C 
BRANCH  10  11
HETATM   11  C   UNK N   1      28.239  15.618   3.042  0.00  0.00     0.000 C 
BRANCH  11  12
HETATM   12  C   UNK N   1      29.195  14.456   3.221  0.00  0.00     0.000 C 
BRANCH  12  13
HETATM   13  C   UNK N   1      29.234  13.631   1.946  0.00  0.00     0.000 C 
BRANCH  13  14
HETATM   14  C   UNK N   1      29.274  12.147   2.289  0.00  0.00     0.000 C 
BRANCH  14  15
HETATM   15  C   UNK N   1      28.357  11.809   3.456  0.00  0.00     0.000 C 
BRANCH  15  16
HETATM   16  C   UNK N   1      26.937  11.514   2.992  0.00  0.00     0.000 C 
BRANCH  16  17
HETATM   17  C   UNK N   1      25.951  11.737   4.131  0.00  0.00     0.000 C 
BRANCH  17  18
HETATM   18  C   UNK N   1      26.496  12.741   5.136  0.00  0.00     0.000 C 
BRANCH  18  19
HETATM   19  C   UNK N   1      25.366  13.478   5.839  0.00  0.00     0.000 C 
BRANCH  19  20
HETATM   20  C   UNK N   1      25.901  14.711   6.542  0.00  0.00    -0.000 C 
BRANCH  20  21
HETATM   21  C   UNK N   1      25.428  15.968   5.838  0.00  0.00    -0.005 C 
HETATM   22  C   UNK N   1      23.914  16.002   5.842  0.00  0.00     0.005 C 
ENDBRANCH  20  21
ENDBRANCH  19  20
ENDBRANCH  18  19
ENDBRANCH  17  18
ENDBRANCH  16  17
ENDBRANCH  15  16
ENDBRANCH  14  15
ENDBRANCH  13  14
ENDBRANCH  12  13
ENDBRANCH  11  12
ENDBRANCH  10  11
ENDBRANCH   9  10
ENDBRANCH   8   9
ENDBRANCH   7   8
ENDBRANCH   6   7
ENDBRANCH   4   6
ENDBRANCH   3   4
ENDBRANCH   2   3
ENDBRANCH   1   2
BRANCH   1  23
HETATM   23  C   UNK N   1      20.287  16.133   5.400  0.00  0.00     0.215 C 
BRANCH  23  24
HETATM   24  O   UNK N   1      19.813  15.065   6.181  0.00  0.00    -0.294 OA
BRANCH  24  25
HETATM   25  P   UNK N   1      20.347  15.349   7.813  0.00  0.00     0.393 P 
HETATM   26  O   UNK N   1      18.911  15.939   7.787  0.00  0.00    -0.631 OA
BRANCH  25  27
HETATM   27  O   UNK N   1      19.528  14.576   9.137  0.00  0.00    -0.307 OA
HETATM   28  H   UNK N   1      19.949  14.228   9.939  0.00  0.00     0.222 HD
ENDBRANCH  25  27
BRANCH  25  29
HETATM   29  O   UNK N   1      20.316  13.621   7.581  0.00  0.00    -0.295 OA
BRANCH  29  30
HETATM   30  C   UNK N   1      21.650  13.266   7.342  0.00  0.00     0.208 C 
BRANCH  30  31
HETATM   31  C   UNK N   1      22.552  13.845   8.425  0.00  0.00     0.262 C 
BRANCH  31  32
HETATM   32  N   UNK N   1      23.156  12.820   9.278  0.00  0.00    -0.077 N 
HETATM   33  C   UNK N   1      22.410  12.656  10.516  0.00  0.00     0.271 C 
HETATM   34  C   UNK N   1      24.544  13.135   9.582  0.00  0.00     0.271 C 
HETATM   35  C   UNK N   1      23.126  11.562   8.557  0.00  0.00     0.271 C 
ENDBRANCH  31  32
ENDBRANCH  30  31
ENDBRANCH  29  30
ENDBRANCH  25  29
ENDBRANCH  24  25
ENDBRANCH  23  24
ENDBRANCH   1  23
BRANCH   1  36
HETATM   36  O   UNK N   1      20.628  16.671   3.083  0.00  0.00    -0.312 OA
BRANCH  36  37
HETATM   37  C   UNK N   1      20.237  17.675   2.248  0.00  0.00     0.259 C 
HETATM   38  O   UNK N   1      20.233  17.511   1.035  0.00  0.00    -0.265 OA
BRANCH  37  39
HETATM   39  C   UNK N   1      19.800  18.984   2.840  0.00  0.00     0.111 C 
BRANCH  39  40
HETATM   40  C   UNK N   1      20.931  19.736   3.535  0.00  0.00     0.010 C 
BRANCH  40  41
HETATM   41  C   UNK N   1      21.781  20.464   2.506  0.00  0.00     0.000 C 
BRANCH  41  42
HETATM   42  C   UNK N   1      23.234  20.493   2.938  0.00  0.00     0.000 C 
BRANCH  42  43
HETATM   43  C   UNK N   1      23.587  19.194   3.628  0.00  0.00     0.000 C 
BRANCH  43  44
HETATM   44  C   UNK N   1      24.844  19.396   4.453  0.00  0.00     0.000 C 
BRANCH  44  45
HETATM   45  C   UNK N   1      26.075  18.874   3.724  0.00  0.00     0.000 C 
BRANCH  45  46
HETATM   46  C   UNK N   1      27.340  19.664   4.051  0.00  0.00     0.000 C 
BRANCH  46  47
HETATM   47  C   UNK N   1      28.355  18.850   4.850  0.00  0.00     0.000 C 
BRANCH  47  48
HETATM   48  C   UNK N   1      28.229  19.073   6.348  0.00  0.00     0.000 C 
BRANCH  48  49
HETATM   49  C   UNK N   1      28.115  17.748   7.089  0.00  0.00     0.000 C 
BRANCH  49  50
HETATM   50  C   UNK N   1      29.293  16.836   6.772  0.00  0.00     0.000 C 
BRANCH  50  51
HETATM   51  C   UNK N   1      30.546  17.298   7.495  0.00  0.00     0.000 C 
BRANCH  51  52
HETATM   52  C   UNK N   1      31.771  17.126   6.613  0.00  0.00     0.000 C 
BRANCH  52  53
HETATM   53  C   UNK N   1      31.354  16.683   5.223  0.00  0.00    -0.000 C 
BRANCH  53  54
HETATM   54  C   UNK N   1      31.882  17.641   4.172  0.00  0.00    -0.005 C 
HETATM   55  C   UNK N   1      32.777  16.885   3.213  0.00  0.00     0.005 C 
ENDBRANCH  53  54
ENDBRANCH  52  53
ENDBRANCH  51  52
ENDBRANCH  50  51
ENDBRANCH  49  50
ENDBRANCH  48  49
ENDBRANCH  47  48
ENDBRANCH  46  47
ENDBRANCH  45  46
ENDBRANCH  44  45
ENDBRANCH  43  44
ENDBRANCH  42  43
ENDBRANCH  41  42
ENDBRANCH  40  41
ENDBRANCH  39  40
ENDBRANCH  37  39
ENDBRANCH  36  37
ENDBRANCH   1  36
TORSDOF 45
ENDMDL
MODEL 6
REMARK VINA RESULT:      -5.2      6.277     11.425
REMARK WARNING: 32 MAX_TORS EXCEEDED!!!
REMARK  45 active torsions:
REMARK  status: ('A' for Active; 'I' for Inactive)
REMARK    1  A    between atoms: C_8  and  C_6 
REMARK    2  A    between atoms: C_9  and  C_7 
REMARK    3  A    between atoms: C_10  and  C_8 
REMARK    4  A    between atoms: C_11  and  C_9 
REMARK    5  A    between atoms: C_12  and  C_10 
REMARK    6  A    between atoms: C_13  and  C_11 
REMARK    7  A    between atoms: C_14  and  C_12 
REMARK    8  A    between atoms: C_15  and  C_13 
REMARK    9  A    between atoms: C_16  and  C_14 
REMARK   10  A    between atoms: C_17  and  C_15 
REMARK   11  A    between atoms: C_18  and  C_16 
REMARK   12  A    between atoms: C_19  and  C_17 
REMARK   13  A    between atoms: C_20  and  C_18 
REMARK   14  A    between atoms: C_21  and  C_19 
REMARK   15  A    between atoms: C_22  and  C_20 
REMARK   16  A    between atoms: C_23  and  C_21 
REMARK   17  A    between atoms: C_24  and  C_22 
REMARK   18  A    between atoms: C_25  and  C_23 
REMARK   19  A    between atoms: C_26  and  C_24 
REMARK   20  A    between atoms: C_27  and  C_25 
REMARK   21  A    between atoms: C_28  and  C_26 
REMARK   22  A    between atoms: C_29  and  C_27 
REMARK   23  A    between atoms: C_30  and  C_28 
REMARK   24  A    between atoms: C_31  and  C_29 
REMARK   25  A    between atoms: C_32  and  C_30 
REMARK   26  A    between atoms: C_33  and  C_31 
REMARK   27  A    between atoms: C_34  and  C_32 
REMARK   28  A    between atoms: C_35  and  C_33 
REMARK   29  A    between atoms: C_36  and  C_34 
REMARK   30  A    between atoms: C_37  and  C_35 
REMARK   31  A    between atoms: C_43  and  C_36 
REMARK   32  A    between atoms: C_44  and  C_37 
REMARK   33  A    between atoms: C_39  and  C_38 
REMARK   34  A    between atoms: N_45  and  C_38 
REMARK   35  A    between atoms: O_51  and  C_39 
REMARK   36  A    between atoms: C_42  and  C_40 
REMARK   37  A    between atoms: O_50  and  C_40 
REMARK   38  A    between atoms: C_42  and  C_41 
REMARK   39  A    between atoms: O_52  and  C_41 
REMARK   40  A    between atoms: C_42  and  O_53 
REMARK   41  A    between atoms: O_50  and  C_43 
REMARK   42  A    between atoms: O_53  and  C_44 
REMARK   43  A    between atoms: P_54  and  O_49 
REMARK   44  A    between atoms: P_54  and  O_51 
REMARK   45  A    between atoms: P_54  and  O_52 
ROOT
HETATM    1  C   UNK N   1      32.825  16.305   8.307  0.00  0.00     0.180 C 
ENDROOT
BRANCH   1   2
HETATM    2  C   UNK N   1      31.309  16.489   8.416  0.00  0.00     0.213 C 
BRANCH   2   3
HETATM    3  O   UNK N   1      31.003  17.782   8.771  0.00  0.00    -0.319 OA
BRANCH   3   4
HETATM    4  C   UNK N   1      29.751  18.137   9.158  0.00  0.00     0.258 C 
HETATM    5  O   UNK N   1      29.596  18.702  10.228  0.00  0.00    -0.265 OA
BRANCH   4   6
HETATM    6  C   UNK N   1      28.544  17.847   8.303  0.00  0.00     0.111 C 
BRANCH   6   7
HETATM    7  C   UNK N   1      28.479  18.813   7.124  0.00  0.00     0.010 C 
BRANCH   7   8
HETATM    8  C   UNK N   1      27.613  20.036   7.389  0.00  0.00     0.000 C 
BRANCH   8   9
HETATM    9  C   UNK N   1      26.917  20.512   6.128  0.00  0.00     0.000 C 
BRANCH   9  10
HETATM   10  C   UNK N   1      27.833  20.264   4.947  0.00  0.00     0.000 C 
BRANCH  10  11
HETATM   11  C   UNK N   1      27.036  19.809   3.749  0.00  0.00     0.000 C 
BRANCH  11  12
HETATM   12  C   UNK N   1      26.655  18.353   3.921  0.00  0.00     0.000 C 
BRANCH  12  13
HETATM   13  C   UNK N   1      25.259  18.125   3.369  0.00  0.00     0.000 C 
BRANCH  13  14
HETATM   14  C   UNK N   1      24.219  18.566   4.390  0.00  0.00     0.000 C 
BRANCH  14  15
HETATM   15  C   UNK N   1      23.555  17.380   5.073  0.00  0.00     0.000 C 
BRANCH  15  16
HETATM   16  C   UNK N   1      22.934  16.422   4.065  0.00  0.00     0.000 C 
BRANCH  16  17
HETATM   17  C   UNK N   1      21.570  15.952   4.553  0.00  0.00     0.000 C 
BRANCH  17  18
HETATM   18  C   UNK N   1      20.454  16.785   3.939  0.00  0.00     0.000 C 
BRANCH  18  19
HETATM   19  C   UNK N   1      20.632  16.911   2.433  0.00  0.00     0.000 C 
BRANCH  19  20
HETATM   20  C   UNK N   1      20.336  18.330   1.986  0.00  0.00    -0.000 C 
BRANCH  20  21
HETATM   21  C   UNK N   1      21.215  19.314   2.731  0.00  0.00    -0.005 C 
HETATM   22  C   UNK N   1      20.346  20.383   3.359  0.00  0.00     0.005 C 
ENDBRANCH  20  21
ENDBRANCH  19  20
ENDBRANCH  18  19
ENDBRANCH  17  18
ENDBRANCH  16  17
ENDBRANCH  15  16
ENDBRANCH  14  15
ENDBRANCH  13  14
ENDBRANCH  12  13
ENDBRANCH  11  12
ENDBRANCH  10  11
ENDBRANCH   9  10
ENDBRANCH   8   9
ENDBRANCH   7   8
ENDBRANCH   6   7
ENDBRANCH   4   6
ENDBRANCH   3   4
ENDBRANCH   2   3
ENDBRANCH   1   2
BRANCH   1  23
HETATM   23  C   UNK N   1      33.281  15.141   9.187  0.00  0.00     0.215 C 
BRANCH  23  24
HETATM   24  O   UNK N   1      33.888  15.613  10.363  0.00  0.00    -0.294 OA
BRANCH  24  25
HETATM   25  P   UNK N   1      35.326  16.470   9.886  0.00  0.00     0.393 P 
HETATM   26  O   UNK N   1      35.048  16.986  11.324  0.00  0.00    -0.631 OA
BRANCH  25  27
HETATM   27  O   UNK N   1      36.814  16.206  10.745  0.00  0.00    -0.307 OA
HETATM   28  H   UNK N   1      37.106  16.686  11.535  0.00  0.00     0.222 HD
ENDBRANCH  25  27
BRANCH  25  29
HETATM   29  O   UNK N   1      35.726  14.773   9.899  0.00  0.00    -0.295 OA
BRANCH  29  30
HETATM   30  C   UNK N   1      36.580  14.612  10.997  0.00  0.00     0.208 C 
BRANCH  30  31
HETATM   31  C   UNK N   1      36.644  13.146  11.407  0.00  0.00     0.262 C 
BRANCH  31  32
HETATM   32  N   UNK N   1      36.233  12.918  12.792  0.00  0.00    -0.077 N 
HETATM   33  C   UNK N   1      36.072  14.174  13.509  0.00  0.00     0.271 C 
HETATM   34  C   UNK N   1      37.188  12.074  13.495  0.00  0.00     0.271 C 
HETATM   35  C   UNK N   1      34.954  12.236  12.774  0.00  0.00     0.271 C 
ENDBRANCH  31  32
ENDBRANCH  30  31
ENDBRANCH  29  30
ENDBRANCH  25  29
ENDBRANCH  24  25
ENDBRANCH  23  24
ENDBRANCH   1  23
BRANCH   1  36
HETATM   36  O   UNK N   1      33.193  16.105   6.987  0.00  0.00    -0.312 OA
BRANCH  36  37
HETATM   37  C   UNK N   1      33.547  17.107   6.134  0.00  0.00     0.259 C 
HETATM   38  O   UNK N   1      34.237  18.041   6.520  0.00  0.00    -0.265 OA
BRANCH  37  39
HETATM   39  C   UNK N   1      33.086  17.042   4.706  0.00  0.00     0.111 C 
BRANCH  39  40
HETATM   40  C   UNK N   1      31.719  17.683   4.487  0.00  0.00     0.010 C 
BRANCH  40  41
HETATM   41  C   UNK N   1      30.619  16.710   4.877  0.00  0.00     0.000 C 
BRANCH  41  42
HETATM   42  C   UNK N   1      30.420  15.667   3.795  0.00  0.00     0.000 C 
BRANCH  42  43
HETATM   43  C   UNK N   1      29.348  16.127   2.833  0.00  0.00     0.000 C 
BRANCH  43  44
HETATM   44  C   UNK N   1      28.545  14.925   2.373  0.00  0.00     0.000 C 
BRANCH  44  45
HETATM   45  C   UNK N   1      27.074  15.069   2.743  0.00  0.00     0.000 C 
BRANCH  45  46
HETATM   46  C   UNK N   1      26.470  13.777   3.291  0.00  0.00     0.000 C 
BRANCH  46  47
HETATM   47  C   UNK N   1      25.621  14.005   4.538  0.00  0.00     0.000 C 
BRANCH  47  48
HETATM   48  C   UNK N   1      26.317  14.886   5.563  0.00  0.00     0.000 C 
BRANCH  48  49
HETATM   49  C   UNK N   1      25.620  14.808   6.913  0.00  0.00     0.000 C 
BRANCH  49  50
HETATM   50  C   UNK N   1      24.521  13.753   6.907  0.00  0.00     0.000 C 
BRANCH  50  51
HETATM   51  C   UNK N   1      24.827  12.647   7.901  0.00  0.00     0.000 C 
BRANCH  51  52
HETATM   52  C   UNK N   1      24.701  13.155   9.328  0.00  0.00     0.000 C 
BRANCH  52  53
HETATM   53  C   UNK N   1      23.238  13.309   9.699  0.00  0.00    -0.000 C 
BRANCH  53  54
HETATM   54  C   UNK N   1      22.712  12.043  10.347  0.00  0.00    -0.005 C 
HETATM   55  C   UNK N   1      23.252  11.944  11.758  0.00  0.00     0.005 C 
ENDBRANCH  53  54
ENDBRANCH  52  53
ENDBRANCH  51  52
ENDBRANCH  50  51
ENDBRANCH  49  50
ENDBRANCH  48  49
ENDBRANCH  47  48
ENDBRANCH  46  47
ENDBRANCH  45  46
ENDBRANCH  44  45
ENDBRANCH  43  44
ENDBRANCH  42  43
ENDBRANCH  41  42
ENDBRANCH  40  41
ENDBRANCH  39  40
ENDBRANCH  37  39
ENDBRANCH  36  37
ENDBRANCH   1  36
TORSDOF 45
ENDMDL
MODEL 7
REMARK VINA RESULT:      -5.2      2.140      4.503
REMARK WARNING: 32 MAX_TORS EXCEEDED!!!
REMARK  45 active torsions:
REMARK  status: ('A' for Active; 'I' for Inactive)
REMARK    1  A    between atoms: C_8  and  C_6 
REMARK    2  A    between atoms: C_9  and  C_7 
REMARK    3  A    between atoms: C_10  and  C_8 
REMARK    4  A    between atoms: C_11  and  C_9 
REMARK    5  A    between atoms: C_12  and  C_10 
REMARK    6  A    between atoms: C_13  and  C_11 
REMARK    7  A    between atoms: C_14  and  C_12 
REMARK    8  A    between atoms: C_15  and  C_13 
REMARK    9  A    between atoms: C_16  and  C_14 
REMARK   10  A    between atoms: C_17  and  C_15 
REMARK   11  A    between atoms: C_18  and  C_16 
REMARK   12  A    between atoms: C_19  and  C_17 
REMARK   13  A    between atoms: C_20  and  C_18 
REMARK   14  A    between atoms: C_21  and  C_19 
REMARK   15  A    between atoms: C_22  and  C_20 
REMARK   16  A    between atoms: C_23  and  C_21 
REMARK   17  A    between atoms: C_24  and  C_22 
REMARK   18  A    between atoms: C_25  and  C_23 
REMARK   19  A    between atoms: C_26  and  C_24 
REMARK   20  A    between atoms: C_27  and  C_25 
REMARK   21  A    between atoms: C_28  and  C_26 
REMARK   22  A    between atoms: C_29  and  C_27 
REMARK   23  A    between atoms: C_30  and  C_28 
REMARK   24  A    between atoms: C_31  and  C_29 
REMARK   25  A    between atoms: C_32  and  C_30 
REMARK   26  A    between atoms: C_33  and  C_31 
REMARK   27  A    between atoms: C_34  and  C_32 
REMARK   28  A    between atoms: C_35  and  C_33 
REMARK   29  A    between atoms: C_36  and  C_34 
REMARK   30  A    between atoms: C_37  and  C_35 
REMARK   31  A    between atoms: C_43  and  C_36 
REMARK   32  A    between atoms: C_44  and  C_37 
REMARK   33  A    between atoms: C_39  and  C_38 
REMARK   34  A    between atoms: N_45  and  C_38 
REMARK   35  A    between atoms: O_51  and  C_39 
REMARK   36  A    between atoms: C_42  and  C_40 
REMARK   37  A    between atoms: O_50  and  C_40 
REMARK   38  A    between atoms: C_42  and  C_41 
REMARK   39  A    between atoms: O_52  and  C_41 
REMARK   40  A    between atoms: C_42  and  O_53 
REMARK   41  A    between atoms: O_50  and  C_43 
REMARK   42  A    between atoms: O_53  and  C_44 
REMARK   43  A    between atoms: P_54  and  O_49 
REMARK   44  A    between atoms: P_54  and  O_51 
REMARK   45  A    between atoms: P_54  and  O_52 
ROOT
HETATM    1  C   UNK N   1      24.424  19.059   3.903  0.00  0.00     0.180 C 
ENDROOT
BRANCH   1   2
HETATM    2  C   UNK N   1      23.928  17.627   4.122  0.00  0.00     0.213 C 
BRANCH   2   3
HETATM    3  O   UNK N   1      24.408  17.125   5.309  0.00  0.00    -0.319 OA
BRANCH   3   4
HETATM    4  C   UNK N   1      24.457  15.789   5.549  0.00  0.00     0.258 C 
HETATM    5  O   UNK N   1      23.856  15.029   4.809  0.00  0.00    -0.265 OA
BRANCH   4   6
HETATM    6  C   UNK N   1      25.234  15.220   6.709  0.00  0.00     0.111 C 
BRANCH   6   7
HETATM    7  C   UNK N   1      24.576  13.940   7.217  0.00  0.00     0.010 C 
BRANCH   7   8
HETATM    8  C   UNK N   1      25.101  13.484   8.570  0.00  0.00     0.000 C 
BRANCH   8   9
HETATM    9  C   UNK N   1      24.330  12.286   9.092  0.00  0.00     0.000 C 
BRANCH   9  10
HETATM   10  C   UNK N   1      24.469  12.242  10.600  0.00  0.00     0.000 C 
BRANCH  10  11
HETATM   11  C   UNK N   1      23.112  12.125  11.250  0.00  0.00     0.000 C 
BRANCH  11  12
HETATM   12  C   UNK N   1      22.047  12.012  10.178  0.00  0.00     0.000 C 
BRANCH  12  13
HETATM   13  C   UNK N   1      20.984  13.073  10.405  0.00  0.00     0.000 C 
BRANCH  13  14
HETATM   14  C   UNK N   1      21.330  14.331   9.619  0.00  0.00     0.000 C 
BRANCH  14  15
HETATM   15  C   UNK N   1      20.441  14.497   8.395  0.00  0.00     0.000 C 
BRANCH  15  16
HETATM   16  C   UNK N   1      21.228  14.344   7.100  0.00  0.00     0.000 C 
BRANCH  16  17
HETATM   17  C   UNK N   1      20.687  13.176   6.287  0.00  0.00     0.000 C 
BRANCH  17  18
HETATM   18  C   UNK N   1      21.268  11.856   6.775  0.00  0.00     0.000 C 
BRANCH  18  19
HETATM   19  C   UNK N   1      21.230  10.804   5.678  0.00  0.00     0.000 C 
BRANCH  19  20
HETATM   20  C   UNK N   1      22.512  10.841   4.868  0.00  0.00    -0.000 C 
BRANCH  20  21
HETATM   21  C   UNK N   1      23.718  10.759   5.782  0.00  0.00    -0.005 C 
HETATM   22  C   UNK N   1      23.928   9.320   6.204  0.00  0.00     0.005 C 
ENDBRANCH  20  21
ENDBRANCH  19  20
ENDBRANCH  18  19
ENDBRANCH  17  18
ENDBRANCH  16  17
ENDBRANCH  15  16
ENDBRANCH  14  15
ENDBRANCH  13  14
ENDBRANCH  12  13
ENDBRANCH  11  12
ENDBRANCH  10  11
ENDBRANCH   9  10
ENDBRANCH   8   9
ENDBRANCH   7   8
ENDBRANCH   6   7
ENDBRANCH   4   6
ENDBRANCH   3   4
ENDBRANCH   2   3
ENDBRANCH   1   2
BRANCH   1  23
HETATM   23  C   UNK N   1      23.326  19.905   3.258  0.00  0.00     0.215 C 
BRANCH  23  24
HETATM   24  O   UNK N   1      22.054  19.410   3.592  0.00  0.00    -0.294 OA
BRANCH  24  25
HETATM   25  P   UNK N   1      20.886  20.438   2.813  0.00  0.00     0.393 P 
HETATM   26  O   UNK N   1      22.190  21.281   2.793  0.00  0.00    -0.631 OA
BRANCH  25  27
HETATM   27  O   UNK N   1      21.099  20.881   1.146  0.00  0.00    -0.307 OA
HETATM   28  H   UNK N   1      20.389  21.097   0.521  0.00  0.00     0.222 HD
ENDBRANCH  25  27
BRANCH  25  29
HETATM   29  O   UNK N   1      21.049  19.012   1.823  0.00  0.00    -0.295 OA
BRANCH  29  30
HETATM   30  C   UNK N   1      20.118  18.104   2.344  0.00  0.00     0.208 C 
BRANCH  30  31
HETATM   31  C   UNK N   1      19.959  16.914   1.405  0.00  0.00     0.262 C 
BRANCH  31  32
HETATM   32  N   UNK N   1      20.280  15.635   2.039  0.00  0.00    -0.077 N 
HETATM   33  C   UNK N   1      21.711  15.374   2.006  0.00  0.00     0.271 C 
HETATM   34  C   UNK N   1      19.569  14.536   1.403  0.00  0.00     0.271 C 
HETATM   35  C   UNK N   1      19.861  15.703   3.425  0.00  0.00     0.271 C 
ENDBRANCH  31  32
ENDBRANCH  30  31
ENDBRANCH  29  30
ENDBRANCH  25  29
ENDBRANCH  24  25
ENDBRANCH  23  24
ENDBRANCH   1  23
BRANCH   1  36
HETATM   36  O   UNK N   1      24.841  19.614   5.101  0.00  0.00    -0.312 OA
BRANCH  36  37
HETATM   37  C   UNK N   1      26.025  20.269   5.266  0.00  0.00     0.259 C 
HETATM   38  O   UNK N   1      26.232  20.937   6.271  0.00  0.00    -0.265 OA
BRANCH  37  39
HETATM   39  C   UNK N   1      27.076  20.149   4.202  0.00  0.00     0.111 C 
BRANCH  39  40
HETATM   40  C   UNK N   1      28.252  19.269   4.616  0.00  0.00     0.010 C 
BRANCH  40  41
HETATM   41  C   UNK N   1      27.818  17.813   4.669  0.00  0.00     0.000 C 
BRANCH  41  42
HETATM   42  C   UNK N   1      28.254  17.080   3.415  0.00  0.00     0.000 C 
BRANCH  42  43
HETATM   43  C   UNK N   1      27.303  15.938   3.135  0.00  0.00     0.000 C 
BRANCH  43  44
HETATM   44  C   UNK N   1      28.026  14.878   2.325  0.00  0.00     0.000 C 
BRANCH  44  45
HETATM   45  C   UNK N   1      29.513  14.850   2.652  0.00  0.00     0.000 C 
BRANCH  45  46
HETATM   46  C   UNK N   1      29.905  13.672   3.540  0.00  0.00     0.000 C 
BRANCH  46  47
HETATM   47  C   UNK N   1      29.647  13.937   5.021  0.00  0.00     0.000 C 
BRANCH  47  48
HETATM   48  C   UNK N   1      30.823  14.615   5.704  0.00  0.00     0.000 C 
BRANCH  48  49
HETATM   49  C   UNK N   1      30.427  15.982   6.243  0.00  0.00     0.000 C 
BRANCH  49  50
HETATM   50  C   UNK N   1      31.556  16.990   6.076  0.00  0.00     0.000 C 
BRANCH  50  51
HETATM   51  C   UNK N   1      31.590  17.535   4.659  0.00  0.00     0.000 C 
BRANCH  51  52
HETATM   52  C   UNK N   1      32.950  17.301   4.024  0.00  0.00     0.000 C 
BRANCH  52  53
HETATM   53  C   UNK N   1      32.834  16.283   2.904  0.00  0.00    -0.000 C 
BRANCH  53  54
HETATM   54  C   UNK N   1      33.456  14.962   3.313  0.00  0.00    -0.005 C 
HETATM   55  C   UNK N   1      34.426  14.515   2.240  0.00  0.00     0.005 C 
ENDBRANCH  53  54
ENDBRANCH  52  53
ENDBRANCH  51  52
ENDBRANCH  50  51
ENDBRANCH  49  50
ENDBRANCH  48  49
ENDBRANCH  47  48
ENDBRANCH  46  47
ENDBRANCH  45  46
ENDBRANCH  44  45
ENDBRANCH  43  44
ENDBRANCH  42  43
ENDBRANCH  41  42
ENDBRANCH  40  41
ENDBRANCH  39  40
ENDBRANCH  37  39
ENDBRANCH  36  37
ENDBRANCH   1  36
TORSDOF 45
ENDMDL
MODEL 8
REMARK VINA RESULT:      -5.1      2.590      5.450
REMARK WARNING: 32 MAX_TORS EXCEEDED!!!
REMARK  45 active torsions:
REMARK  status: ('A' for Active; 'I' for Inactive)
REMARK    1  A    between atoms: C_8  and  C_6 
REMARK    2  A    between atoms: C_9  and  C_7 
REMARK    3  A    between atoms: C_10  and  C_8 
REMARK    4  A    between atoms: C_11  and  C_9 
REMARK    5  A    between atoms: C_12  and  C_10 
REMARK    6  A    between atoms: C_13  and  C_11 
REMARK    7  A    between atoms: C_14  and  C_12 
REMARK    8  A    between atoms: C_15  and  C_13 
REMARK    9  A    between atoms: C_16  and  C_14 
REMARK   10  A    between atoms: C_17  and  C_15 
REMARK   11  A    between atoms: C_18  and  C_16 
REMARK   12  A    between atoms: C_19  and  C_17 
REMARK   13  A    between atoms: C_20  and  C_18 
REMARK   14  A    between atoms: C_21  and  C_19 
REMARK   15  A    between atoms: C_22  and  C_20 
REMARK   16  A    between atoms: C_23  and  C_21 
REMARK   17  A    between atoms: C_24  and  C_22 
REMARK   18  A    between atoms: C_25  and  C_23 
REMARK   19  A    between atoms: C_26  and  C_24 
REMARK   20  A    between atoms: C_27  and  C_25 
REMARK   21  A    between atoms: C_28  and  C_26 
REMARK   22  A    between atoms: C_29  and  C_27 
REMARK   23  A    between atoms: C_30  and  C_28 
REMARK   24  A    between atoms: C_31  and  C_29 
REMARK   25  A    between atoms: C_32  and  C_30 
REMARK   26  A    between atoms: C_33  and  C_31 
REMARK   27  A    between atoms: C_34  and  C_32 
REMARK   28  A    between atoms: C_35  and  C_33 
REMARK   29  A    between atoms: C_36  and  C_34 
REMARK   30  A    between atoms: C_37  and  C_35 
REMARK   31  A    between atoms: C_43  and  C_36 
REMARK   32  A    between atoms: C_44  and  C_37 
REMARK   33  A    between atoms: C_39  and  C_38 
REMARK   34  A    between atoms: N_45  and  C_38 
REMARK   35  A    between atoms: O_51  and  C_39 
REMARK   36  A    between atoms: C_42  and  C_40 
REMARK   37  A    between atoms: O_50  and  C_40 
REMARK   38  A    between atoms: C_42  and  C_41 
REMARK   39  A    between atoms: O_52  and  C_41 
REMARK   40  A    between atoms: C_42  and  O_53 
REMARK   41  A    between atoms: O_50  and  C_43 
REMARK   42  A    between atoms: O_53  and  C_44 
REMARK   43  A    between atoms: P_54  and  O_49 
REMARK   44  A    between atoms: P_54  and  O_51 
REMARK   45  A    between atoms: P_54  and  O_52 
ROOT
HETATM    1  C   UNK N   1      19.812  15.466   4.632  0.00  0.00     0.180 C 
ENDROOT
BRANCH   1   2
HETATM    2  C   UNK N   1      20.017  13.949   4.592  0.00  0.00     0.213 C 
BRANCH   2   3
HETATM    3  O   UNK N   1      21.257  13.642   4.085  0.00  0.00    -0.319 OA
BRANCH   3   4
HETATM    4  C   UNK N   1      22.126  12.846   4.761  0.00  0.00     0.258 C 
HETATM    5  O   UNK N   1      21.803  11.700   5.023  0.00  0.00    -0.265 OA
BRANCH   4   6
HETATM    6  C   UNK N   1      23.479  13.344   5.202  0.00  0.00     0.111 C 
BRANCH   6   7
HETATM    7  C   UNK N   1      24.538  12.265   4.998  0.00  0.00     0.010 C 
BRANCH   7   8
HETATM    8  C   UNK N   1      25.893  12.627   5.588  0.00  0.00     0.000 C 
BRANCH   8   9
HETATM    9  C   UNK N   1      25.898  14.033   6.155  0.00  0.00     0.000 C 
BRANCH   9  10
HETATM   10  C   UNK N   1      27.149  14.742   5.680  0.00  0.00     0.000 C 
BRANCH  10  11
HETATM   11  C   UNK N   1      26.791  15.890   4.767  0.00  0.00     0.000 C 
BRANCH  11  12
HETATM   12  C   UNK N   1      27.419  15.666   3.406  0.00  0.00     0.000 C 
BRANCH  12  13
HETATM   13  C   UNK N   1      26.353  15.781   2.330  0.00  0.00     0.000 C 
BRANCH  13  14
HETATM   14  C   UNK N   1      25.334  14.660   2.487  0.00  0.00     0.000 C 
BRANCH  14  15
HETATM   15  C   UNK N   1      23.950  15.080   2.014  0.00  0.00     0.000 C 
BRANCH  15  16
HETATM   16  C   UNK N   1      23.471  14.234   0.843  0.00  0.00     0.000 C 
BRANCH  16  17
HETATM   17  C   UNK N   1      23.431  12.763   1.235  0.00  0.00     0.000 C 
BRANCH  17  18
HETATM   18  C   UNK N   1      24.240  11.917   0.263  0.00  0.00     0.000 C 
BRANCH  18  19
HETATM   19  C   UNK N   1      24.574  10.561   0.866  0.00  0.00     0.000 C 
BRANCH  19  20
HETATM   20  C   UNK N   1      25.705  10.695   1.868  0.00  0.00    -0.000 C 
BRANCH  20  21
HETATM   21  C   UNK N   1      26.802  11.582   1.313  0.00  0.00    -0.005 C 
HETATM   22  C   UNK N   1      27.788  11.905   2.415  0.00  0.00     0.005 C 
ENDBRANCH  20  21
ENDBRANCH  19  20
ENDBRANCH  18  19
ENDBRANCH  17  18
ENDBRANCH  16  17
ENDBRANCH  15  16
ENDBRANCH  14  15
ENDBRANCH  13  14
ENDBRANCH  12  13
ENDBRANCH  11  12
ENDBRANCH  10  11
ENDBRANCH   9  10
ENDBRANCH   8   9
ENDBRANCH   7   8
ENDBRANCH   6   7
ENDBRANCH   4   6
ENDBRANCH   3   4
ENDBRANCH   2   3
ENDBRANCH   1   2
BRANCH   1  23
HETATM   23  C   UNK N   1      19.755  15.954   6.079  0.00  0.00     0.215 C 
BRANCH  23  24
HETATM   24  O   UNK N   1      20.052  14.908   6.970  0.00  0.00    -0.294 OA
BRANCH  24  25
HETATM   25  P   UNK N   1      20.095  15.595   8.568  0.00  0.00     0.393 P 
HETATM   26  O   UNK N   1      18.750  16.105   7.984  0.00  0.00    -0.631 OA
BRANCH  25  27
HETATM   27  O   UNK N   1      18.901  15.130   9.741  0.00  0.00    -0.307 OA
HETATM   28  H   UNK N   1      18.046  15.566   9.885  0.00  0.00     0.222 HD
ENDBRANCH  25  27
BRANCH  25  29
HETATM   29  O   UNK N   1      20.076  13.861   8.759  0.00  0.00    -0.295 OA
BRANCH  29  30
HETATM   30  C   UNK N   1      21.367  13.446   8.409  0.00  0.00     0.208 C 
BRANCH  30  31
HETATM   31  C   UNK N   1      22.306  13.578   9.601  0.00  0.00     0.262 C 
BRANCH  31  32
HETATM   32  N   UNK N   1      23.307  12.513   9.664  0.00  0.00    -0.077 N 
HETATM   33  C   UNK N   1      23.207  11.625   8.516  0.00  0.00     0.271 C 
HETATM   34  C   UNK N   1      23.180  11.739  10.891  0.00  0.00     0.271 C 
HETATM   35  C   UNK N   1      24.619  13.129   9.652  0.00  0.00     0.271 C 
ENDBRANCH  31  32
ENDBRANCH  30  31
ENDBRANCH  29  30
ENDBRANCH  25  29
ENDBRANCH  24  25
ENDBRANCH  23  24
ENDBRANCH   1  23
BRANCH   1  36
HETATM   36  O   UNK N   1      20.818  16.108   3.929  0.00  0.00    -0.312 OA
BRANCH  36  37
HETATM   37  C   UNK N   1      20.751  17.404   3.513  0.00  0.00     0.259 C 
HETATM   38  O   UNK N   1      19.721  17.849   3.023  0.00  0.00    -0.265 OA
BRANCH  37  39
HETATM   39  C   UNK N   1      21.957  18.282   3.678  0.00  0.00     0.111 C 
BRANCH  39  40
HETATM   40  C   UNK N   1      22.675  18.073   5.007  0.00  0.00     0.010 C 
BRANCH  40  41
HETATM   41  C   UNK N   1      24.180  18.089   4.795  0.00  0.00     0.000 C 
BRANCH  41  42
HETATM   42  C   UNK N   1      24.622  19.414   4.206  0.00  0.00     0.000 C 
BRANCH  42  43
HETATM   43  C   UNK N   1      25.851  19.208   3.350  0.00  0.00     0.000 C 
BRANCH  43  44
HETATM   44  C   UNK N   1      27.032  19.902   4.001  0.00  0.00     0.000 C 
BRANCH  44  45
HETATM   45  C   UNK N   1      26.574  20.893   5.064  0.00  0.00     0.000 C 
BRANCH  45  46
HETATM   46  C   UNK N   1      27.285  20.702   6.401  0.00  0.00     0.000 C 
BRANCH  46  47
HETATM   47  C   UNK N   1      28.037  19.377   6.487  0.00  0.00     0.000 C 
BRANCH  47  48
HETATM   48  C   UNK N   1      28.105  18.838   7.907  0.00  0.00     0.000 C 
BRANCH  48  49
HETATM   49  C   UNK N   1      28.549  17.382   7.917  0.00  0.00     0.000 C 
BRANCH  49  50
HETATM   50  C   UNK N   1      30.016  17.251   7.527  0.00  0.00     0.000 C 
BRANCH  50  51
HETATM   51  C   UNK N   1      30.909  17.956   8.533  0.00  0.00     0.000 C 
BRANCH  51  52
HETATM   52  C   UNK N   1      32.355  17.520   8.367  0.00  0.00     0.000 C 
BRANCH  52  53
HETATM   53  C   UNK N   1      32.530  16.787   7.051  0.00  0.00    -0.000 C 
BRANCH  53  54
HETATM   54  C   UNK N   1      33.471  17.545   6.134  0.00  0.00    -0.005 C 
HETATM   55  C   UNK N   1      32.940  17.489   4.718  0.00  0.00     0.005 C 
ENDBRANCH  53  54
ENDBRANCH  52  53
ENDBRANCH  51  52
ENDBRANCH  50  51
ENDBRANCH  49  50
ENDBRANCH  48  49
ENDBRANCH  47  48
ENDBRANCH  46  47
ENDBRANCH  45  46
ENDBRANCH  44  45
ENDBRANCH  43  44
ENDBRANCH  42  43
ENDBRANCH  41  42
ENDBRANCH  40  41
ENDBRANCH  39  40
ENDBRANCH  37  39
ENDBRANCH  36  37
ENDBRANCH   1  36
TORSDOF 45
ENDMDL
MODEL 9
REMARK VINA RESULT:      -5.1      3.214      6.596
REMARK WARNING: 32 MAX_TORS EXCEEDED!!!
REMARK  45 active torsions:
REMARK  status: ('A' for Active; 'I' for Inactive)
REMARK    1  A    between atoms: C_8  and  C_6 
REMARK    2  A    between atoms: C_9  and  C_7 
REMARK    3  A    between atoms: C_10  and  C_8 
REMARK    4  A    between atoms: C_11  and  C_9 
REMARK    5  A    between atoms: C_12  and  C_10 
REMARK    6  A    between atoms: C_13  and  C_11 
REMARK    7  A    between atoms: C_14  and  C_12 
REMARK    8  A    between atoms: C_15  and  C_13 
REMARK    9  A    between atoms: C_16  and  C_14 
REMARK   10  A    between atoms: C_17  and  C_15 
REMARK   11  A    between atoms: C_18  and  C_16 
REMARK   12  A    between atoms: C_19  and  C_17 
REMARK   13  A    between atoms: C_20  and  C_18 
REMARK   14  A    between atoms: C_21  and  C_19 
REMARK   15  A    between atoms: C_22  and  C_20 
REMARK   16  A    between atoms: C_23  and  C_21 
REMARK   17  A    between atoms: C_24  and  C_22 
REMARK   18  A    between atoms: C_25  and  C_23 
REMARK   19  A    between atoms: C_26  and  C_24 
REMARK   20  A    between atoms: C_27  and  C_25 
REMARK   21  A    between atoms: C_28  and  C_26 
REMARK   22  A    between atoms: C_29  and  C_27 
REMARK   23  A    between atoms: C_30  and  C_28 
REMARK   24  A    between atoms: C_31  and  C_29 
REMARK   25  A    between atoms: C_32  and  C_30 
REMARK   26  A    between atoms: C_33  and  C_31 
REMARK   27  A    between atoms: C_34  and  C_32 
REMARK   28  A    between atoms: C_35  and  C_33 
REMARK   29  A    between atoms: C_36  and  C_34 
REMARK   30  A    between atoms: C_37  and  C_35 
REMARK   31  A    between atoms: C_43  and  C_36 
REMARK   32  A    between atoms: C_44  and  C_37 
REMARK   33  A    between atoms: C_39  and  C_38 
REMARK   34  A    between atoms: N_45  and  C_38 
REMARK   35  A    between atoms: O_51  and  C_39 
REMARK   36  A    between atoms: C_42  and  C_40 
REMARK   37  A    between atoms: O_50  and  C_40 
REMARK   38  A    between atoms: C_42  and  C_41 
REMARK   39  A    between atoms: O_52  and  C_41 
REMARK   40  A    between atoms: C_42  and  O_53 
REMARK   41  A    between atoms: O_50  and  C_43 
REMARK   42  A    between atoms: O_53  and  C_44 
REMARK   43  A    between atoms: P_54  and  O_49 
REMARK   44  A    between atoms: P_54  and  O_51 
REMARK   45  A    between atoms: P_54  and  O_52 
ROOT
HETATM    1  C   UNK N   1      19.811  17.991   2.809  0.00  0.00     0.180 C 
ENDROOT
BRANCH   1   2
HETATM    2  C   UNK N   1      19.885  17.363   4.203  0.00  0.00     0.213 C 
BRANCH   2   3
HETATM    3  O   UNK N   1      18.846  16.482   4.392  0.00  0.00    -0.319 OA
BRANCH   3   4
HETATM    4  C   UNK N   1      19.039  15.267   4.968  0.00  0.00     0.258 C 
HETATM    5  O   UNK N   1      18.116  14.471   5.000  0.00  0.00    -0.265 OA
BRANCH   4   6
HETATM    6  C   UNK N   1      20.364  14.877   5.572  0.00  0.00     0.111 C 
BRANCH   6   7
HETATM    7  C   UNK N   1      20.365  13.399   5.950  0.00  0.00     0.010 C 
BRANCH   7   8
HETATM    8  C   UNK N   1      20.832  13.138   7.374  0.00  0.00     0.000 C 
BRANCH   8   9
HETATM    9  C   UNK N   1      21.323  14.408   8.043  0.00  0.00     0.000 C 
BRANCH   9  10
HETATM   10  C   UNK N   1      21.184  14.250   9.543  0.00  0.00     0.000 C 
BRANCH  10  11
HETATM   11  C   UNK N   1      21.771  12.935   9.992  0.00  0.00     0.000 C 
BRANCH  11  12
HETATM   12  C   UNK N   1      23.281  12.991   9.878  0.00  0.00     0.000 C 
BRANCH  12  13
HETATM   13  C   UNK N   1      23.813  11.621   9.500  0.00  0.00     0.000 C 
BRANCH  13  14
HETATM   14  C   UNK N   1      23.699  11.417   7.995  0.00  0.00     0.000 C 
BRANCH  14  15
HETATM   15  C   UNK N   1      23.874   9.957   7.604  0.00  0.00     0.000 C 
BRANCH  15  16
HETATM   16  C   UNK N   1      22.944   9.561   6.465  0.00  0.00     0.000 C 
BRANCH  16  17
HETATM   17  C   UNK N   1      22.862  10.680   5.435  0.00  0.00     0.000 C 
BRANCH  17  18
HETATM   18  C   UNK N   1      22.302  10.168   4.116  0.00  0.00     0.000 C 
BRANCH  18  19
HETATM   19  C   UNK N   1      20.781  10.151   4.138  0.00  0.00     0.000 C 
BRANCH  19  20
HETATM   20  C   UNK N   1      20.230  11.083   3.076  0.00  0.00    -0.000 C 
BRANCH  20  21
HETATM   21  C   UNK N   1      20.633  10.609   1.694  0.00  0.00    -0.005 C 
HETATM   22  C   UNK N   1      19.517  10.911   0.717  0.00  0.00     0.005 C 
ENDBRANCH  20  21
ENDBRANCH  19  20
ENDBRANCH  18  19
ENDBRANCH  17  18
ENDBRANCH  16  17
ENDBRANCH  15  16
ENDBRANCH  14  15
ENDBRANCH  13  14
ENDBRANCH  12  13
ENDBRANCH  11  12
ENDBRANCH  10  11
ENDBRANCH   9  10
ENDBRANCH   8   9
ENDBRANCH   7   8
ENDBRANCH   6   7
ENDBRANCH   4   6
ENDBRANCH   3   4
ENDBRANCH   2   3
ENDBRANCH   1   2
BRANCH   1  23
HETATM   23  C   UNK N   1      20.152  19.480   2.880  0.00  0.00     0.215 C 
BRANCH  23  24
HETATM   24  O   UNK N   1      21.306  19.690   3.653  0.00  0.00    -0.294 OA
BRANCH  24  25
HETATM   25  P   UNK N   1      22.567  20.191   2.564  0.00  0.00     0.393 P 
HETATM   26  O   UNK N   1      21.692  21.463   2.725  0.00  0.00    -0.631 OA
BRANCH  25  27
HETATM   27  O   UNK N   1      23.681  21.435   3.045  0.00  0.00    -0.307 OA
HETATM   28  H   UNK N   1      24.297  21.387   3.793  0.00  0.00     0.222 HD
ENDBRANCH  25  27
BRANCH  25  29
HETATM   29  O   UNK N   1      23.336  19.767   4.071  0.00  0.00    -0.295 OA
BRANCH  29  30
HETATM   30  C   UNK N   1      24.606  19.301   3.709  0.00  0.00     0.208 C 
BRANCH  30  31
HETATM   31  C   UNK N   1      25.430  18.993   4.953  0.00  0.00     0.262 C 
BRANCH  31  32
HETATM   32  N   UNK N   1      26.651  19.794   5.046  0.00  0.00    -0.077 N 
HETATM   33  C   UNK N   1      27.724  19.048   5.685  0.00  0.00     0.271 C 
HETATM   34  C   UNK N   1      26.417  21.032   5.773  0.00  0.00     0.271 C 
HETATM   35  C   UNK N   1      27.069  20.132   3.699  0.00  0.00     0.271 C 
ENDBRANCH  31  32
ENDBRANCH  30  31
ENDBRANCH  29  30
ENDBRANCH  25  29
ENDBRANCH  24  25
ENDBRANCH  23  24
ENDBRANCH   1  23
BRANCH   1  36
HETATM   36  O   UNK N   1      20.658  17.329   1.935  0.00  0.00    -0.312 OA
BRANCH  36  37
HETATM   37  C   UNK N   1      20.246  16.723   0.786  0.00  0.00     0.259 C 
HETATM   38  O   UNK N   1      20.269  17.326  -0.279  0.00  0.00    -0.265 OA
BRANCH  37  39
HETATM   39  C   UNK N   1      19.775  15.299   0.843  0.00  0.00     0.111 C 
BRANCH  39  40
HETATM   40  C   UNK N   1      20.698  14.394   1.655  0.00  0.00     0.010 C 
BRANCH  40  41
HETATM   41  C   UNK N   1      22.051  14.284   0.972  0.00  0.00     0.000 C 
BRANCH  41  42
HETATM   42  C   UNK N   1      22.939  13.295   1.702  0.00  0.00     0.000 C 
BRANCH  42  43
HETATM   43  C   UNK N   1      23.019  13.666   3.166  0.00  0.00     0.000 C 
BRANCH  43  44
HETATM   44  C   UNK N   1      23.979  14.828   3.332  0.00  0.00     0.000 C 
BRANCH  44  45
HETATM   45  C   UNK N   1      23.397  15.902   4.243  0.00  0.00     0.000 C 
BRANCH  45  46
HETATM   46  C   UNK N   1      23.901  15.799   5.681  0.00  0.00     0.000 C 
BRANCH  46  47
HETATM   47  C   UNK N   1      24.353  14.389   6.050  0.00  0.00     0.000 C 
BRANCH  47  48
HETATM   48  C   UNK N   1      25.634  14.384   6.869  0.00  0.00     0.000 C 
BRANCH  48  49
HETATM   49  C   UNK N   1      26.497  15.592   6.538  0.00  0.00     0.000 C 
BRANCH  49  50
HETATM   50  C   UNK N   1      27.648  15.212   5.614  0.00  0.00     0.000 C 
BRANCH  50  51
HETATM   51  C   UNK N   1      27.363  15.646   4.187  0.00  0.00     0.000 C 
BRANCH  51  52
HETATM   52  C   UNK N   1      27.738  14.548   3.206  0.00  0.00     0.000 C 
BRANCH  52  53
HETATM   53  C   UNK N   1      27.285  13.200   3.735  0.00  0.00    -0.000 C 
BRANCH  53  54
HETATM   54  C   UNK N   1      26.693  12.357   2.622  0.00  0.00    -0.005 C 
HETATM   55  C   UNK N   1      25.845  11.259   3.227  0.00  0.00     0.005 C 
ENDBRANCH  53  54
ENDBRANCH  52  53
ENDBRANCH  51  52
ENDBRANCH  50  51
ENDBRANCH  49  50
ENDBRANCH  48  49
ENDBRANCH  47  48
ENDBRANCH  46  47
ENDBRANCH  45  46
ENDBRANCH  44  45
ENDBRANCH  43  44
ENDBRANCH  42  43
ENDBRANCH  41  42
ENDBRANCH  40  41
ENDBRANCH  39  40
ENDBRANCH  37  39
ENDBRANCH  36  37
ENDBRANCH   1  36
TORSDOF 45
ENDMDL
