MODEL 1
REMARK VINA RESULT:      -4.7      0.000      0.000
REMARK  1 active torsions:
REMARK  status: ('A' for Active; 'I' for Inactive)
REMARK    1  A    between atoms: C_6  and  N_7 
ROOT
HETATM    1  C   UNK N   1      20.922  17.434   4.849  0.00  0.00     0.158 C 
HETATM    2  N   UNK N   1      20.801  18.324   3.708  0.00  0.00    -0.332 N 
HETATM    3  C   UNK N   1      20.984  19.670   3.865  0.00  0.00     0.185 A 
HETATM    4  N   UNK N   1      20.876  20.518   2.791  0.00  0.00    -0.337 N 
ATOM      5  HN  UNK N   1      21.015  21.520   2.925  1.00  0.00     0.168 HD
HETATM    6  C   UNK N   1      20.583  20.040   1.545  0.00  0.00     0.131 A 
HETATM    7  C   UNK N   1      20.398  18.671   1.400  0.00  0.00     0.122 A 
HETATM    8  N   UNK N   1      20.106  17.947   0.308  0.00  0.00    -0.346 N 
ATOM      9  HN  UNK N   1      19.962  18.281  -0.645  1.00  0.00     0.167 HD
HETATM   10  C   UNK N   1      20.047  16.665   0.764  0.00  0.00     0.182 A 
HETATM   11  N   UNK N   1      20.295  16.584   2.100  0.00  0.00    -0.336 N 
ATOM     12  HN  UNK N   1      20.312  15.750   2.687  1.00  0.00     0.168 HD
HETATM   13  C   UNK N   1      20.509  17.856   2.466  0.00  0.00     0.140 A 
ENDROOT
BRANCH   6  14
HETATM   14  N   UNK N   1      20.479  20.920   0.449  0.00  0.00    -0.383 N 
HETATM   15  H   UNK N   1      20.538  20.571  -0.470  0.00  0.00     0.157 HD
HETATM   16  H   UNK N   1      20.348  21.883   0.602  0.00  0.00     0.157 HD
ENDBRANCH   6  14
TORSDOF 1
ENDMDL
MODEL 2
REMARK VINA RESULT:      -4.6     22.544     23.131
REMARK  1 active torsions:
REMARK  status: ('A' for Active; 'I' for Inactive)
REMARK    1  A    between atoms: C_6  and  N_7 
ROOT
HETATM    1  C   UNK N   1      42.998  19.387   3.019  0.00  0.00     0.158 C 
HETATM    2  N   UNK N   1      43.458  20.764   3.014  0.00  0.00    -0.332 N 
HETATM    3  C   UNK N   1      44.714  21.070   3.460  0.00  0.00     0.185 A 
HETATM    4  N   UNK N   1      45.158  22.369   3.455  0.00  0.00    -0.337 N 
ATOM      5  HN  UNK N   1      46.098  22.580   3.791  1.00  0.00     0.168 HD
HETATM    6  C   UNK N   1      44.360  23.383   3.007  0.00  0.00     0.131 A 
HETATM    7  C   UNK N   1      43.086  23.058   2.559  0.00  0.00     0.122 A 
HETATM    8  N   UNK N   1      42.112  23.845   2.075  0.00  0.00    -0.346 N 
ATOM      9  HN  UNK N   1      42.129  24.856   1.944  1.00  0.00     0.167 HD
HETATM   10  C   UNK N   1      41.094  22.982   1.798  0.00  0.00     0.182 A 
HETATM   11  N   UNK N   1      41.417  21.694   2.098  0.00  0.00    -0.336 N 
ATOM     12  HN  UNK N   1      40.842  20.860   1.989  1.00  0.00     0.168 HD
HETATM   13  C   UNK N   1      42.669  21.778   2.572  0.00  0.00     0.140 A 
ENDROOT
BRANCH   6  14
HETATM   14  N   UNK N   1      44.829  24.711   3.002  0.00  0.00    -0.383 N 
HETATM   15  H   UNK N   1      45.061  25.155   3.851  0.00  0.00     0.157 HD
HETATM   16  H   UNK N   1      44.925  25.197   2.151  0.00  0.00     0.157 HD
ENDBRANCH   6  14
TORSDOF 1
ENDMDL
MODEL 3
REMARK VINA RESULT:      -4.5      8.785     10.736
REMARK  1 active torsions:
REMARK  status: ('A' for Active; 'I' for Inactive)
REMARK    1  A    between atoms: C_6  and  N_7 
ROOT
HETATM    1  C   UNK N   1      24.887  13.774   8.092  0.00  0.00     0.158 C 
HETATM    2  N   UNK N   1      24.317  13.215   9.304  0.00  0.00    -0.332 N 
HETATM    3  C   UNK N   1      25.131  12.666  10.255  0.00  0.00     0.185 A 
HETATM    4  N   UNK N   1      24.601  12.138  11.407  0.00  0.00    -0.337 N 
ATOM      5  HN  UNK N   1      25.222  11.732  12.107  1.00  0.00     0.168 HD
HETATM    6  C   UNK N   1      23.253  12.149  11.628  0.00  0.00     0.131 A 
HETATM    7  C   UNK N   1      22.437  12.708  10.653  0.00  0.00     0.122 A 
HETATM    8  N   UNK N   1      21.103  12.846  10.615  0.00  0.00    -0.346 N 
ATOM      9  HN  UNK N   1      20.422  12.556  11.317  1.00  0.00     0.167 HD
HETATM   10  C   UNK N   1      20.866  13.463   9.423  0.00  0.00     0.182 A 
HETATM   11  N   UNK N   1      22.013  13.706   8.734  0.00  0.00    -0.336 N 
ATOM     12  HN  UNK N   1      22.118  14.152   7.823  1.00  0.00     0.168 HD
HETATM   13  C   UNK N   1      22.977  13.220   9.531  0.00  0.00     0.140 A 
ENDROOT
BRANCH   6  14
HETATM   14  N   UNK N   1      22.721  11.609  12.816  0.00  0.00    -0.383 N 
HETATM   15  H   UNK N   1      22.245  12.192  13.452  0.00  0.00     0.157 HD
HETATM   16  H   UNK N   1      22.825  10.650  13.011  0.00  0.00     0.157 HD
ENDBRANCH   6  14
TORSDOF 1
ENDMDL
MODEL 4
REMARK VINA RESULT:      -4.3      8.227      9.392
REMARK  1 active torsions:
REMARK  status: ('A' for Active; 'I' for Inactive)
REMARK    1  A    between atoms: C_6  and  N_7 
ROOT
HETATM    1  C   UNK N   1      26.664  21.310   6.627  0.00  0.00     0.158 C 
HETATM    2  N   UNK N   1      27.465  20.173   6.211  0.00  0.00    -0.332 N 
HETATM    3  C   UNK N   1      27.845  20.042   4.904  0.00  0.00     0.185 A 
HETATM    4  N   UNK N   1      28.606  18.972   4.503  0.00  0.00    -0.337 N 
ATOM      5  HN  UNK N   1      28.881  18.889   3.524  1.00  0.00     0.168 HD
HETATM    6  C   UNK N   1      28.999  18.016   5.395  0.00  0.00     0.131 A 
HETATM    7  C   UNK N   1      28.605  18.160   6.720  0.00  0.00     0.122 A 
HETATM    8  N   UNK N   1      28.847  17.380   7.785  0.00  0.00    -0.346 N 
ATOM      9  HN  UNK N   1      29.382  16.513   7.818  1.00  0.00     0.167 HD
HETATM   10  C   UNK N   1      28.216  18.015   8.812  0.00  0.00     0.182 A 
HETATM   11  N   UNK N   1      27.597  19.157   8.407  0.00  0.00    -0.336 N 
ATOM     12  HN  UNK N   1      27.057  19.814   8.970  1.00  0.00     0.168 HD
HETATM   13  C   UNK N   1      27.859  19.216   7.093  0.00  0.00     0.140 A 
ENDROOT
BRANCH   6  14
HETATM   14  N   UNK N   1      29.784  16.925   4.972  0.00  0.00    -0.383 N 
HETATM   15  H   UNK N   1      29.920  16.759   4.010  0.00  0.00     0.157 HD
HETATM   16  H   UNK N   1      30.198  16.328   5.637  0.00  0.00     0.157 HD
ENDBRANCH   6  14
TORSDOF 1
ENDMDL
MODEL 5
REMARK VINA RESULT:      -4.3     18.400     20.006
REMARK  1 active torsions:
REMARK  status: ('A' for Active; 'I' for Inactive)
REMARK    1  A    between atoms: C_6  and  N_7 
ROOT
HETATM    1  C   UNK N   1      33.737  10.810  14.661  0.00  0.00     0.158 C 
HETATM    2  N   UNK N   1      34.661  11.925  14.758  0.00  0.00    -0.332 N 
HETATM    3  C   UNK N   1      35.224  12.247  15.961  0.00  0.00     0.185 A 
HETATM    4  N   UNK N   1      36.102  13.298  16.061  0.00  0.00    -0.337 N 
ATOM      5  HN  UNK N   1      36.514  13.526  16.966  1.00  0.00     0.168 HD
HETATM    6  C   UNK N   1      36.433  14.044  14.965  0.00  0.00     0.131 A 
HETATM    7  C   UNK N   1      35.852  13.707  13.749  0.00  0.00     0.122 A 
HETATM    8  N   UNK N   1      35.997  14.263  12.536  0.00  0.00    -0.346 N 
ATOM      9  HN  UNK N   1      36.578  15.060  12.278  1.00  0.00     0.167 HD
HETATM   10  C   UNK N   1      35.190  13.518  11.730  0.00  0.00     0.182 A 
HETATM   11  N   UNK N   1      34.558  12.526  12.413  0.00  0.00    -0.336 N 
ATOM     12  HN  UNK N   1      33.903  11.832  12.051  1.00  0.00     0.168 HD
HETATM   13  C   UNK N   1      34.993  12.673  13.672  0.00  0.00     0.140 A 
ENDROOT
BRANCH   6  14
HETATM   14  N   UNK N   1      37.339  15.117  15.079  0.00  0.00    -0.383 N 
HETATM   15  H   UNK N   1      37.073  15.938  15.556  0.00  0.00     0.157 HD
HETATM   16  H   UNK N   1      38.237  15.047  14.683  0.00  0.00     0.157 HD
ENDBRANCH   6  14
TORSDOF 1
ENDMDL
MODEL 6
REMARK VINA RESULT:      -4.2     23.341     24.109
REMARK  1 active torsions:
REMARK  status: ('A' for Active; 'I' for Inactive)
REMARK    1  A    between atoms: C_6  and  N_7 
ROOT
HETATM    1  C   UNK N   1      41.339  23.384   1.017  0.00  0.00     0.158 C 
HETATM    2  N   UNK N   1      42.474  23.033   1.851  0.00  0.00    -0.332 N 
HETATM    3  C   UNK N   1      42.388  21.978   2.717  0.00  0.00     0.185 A 
HETATM    4  N   UNK N   1      43.458  21.637   3.507  0.00  0.00    -0.337 N 
ATOM      5  HN  UNK N   1      43.378  20.846   4.147  1.00  0.00     0.168 HD
HETATM    6  C   UNK N   1      44.627  22.341   3.449  0.00  0.00     0.131 A 
HETATM    7  C   UNK N   1      44.700  23.411   2.567  0.00  0.00     0.122 A 
HETATM    8  N   UNK N   1      45.709  24.258   2.313  0.00  0.00    -0.346 N 
ATOM      9  HN  UNK N   1      46.638  24.271   2.735  1.00  0.00     0.167 HD
HETATM   10  C   UNK N   1      45.210  25.096   1.362  0.00  0.00     0.182 A 
HETATM   11  N   UNK N   1      43.928  24.787   1.028  0.00  0.00    -0.336 N 
ATOM     12  HN  UNK N   1      43.326  25.252   0.349  1.00  0.00     0.168 HD
HETATM   13  C   UNK N   1      43.640  23.730   1.800  0.00  0.00     0.140 A 
ENDROOT
BRANCH   6  14
HETATM   14  N   UNK N   1      45.720  21.977   4.262  0.00  0.00    -0.383 N 
HETATM   15  H   UNK N   1      46.218  22.670   4.755  0.00  0.00     0.157 HD
HETATM   16  H   UNK N   1      45.985  21.033   4.337  0.00  0.00     0.157 HD
ENDBRANCH   6  14
TORSDOF 1
ENDMDL
MODEL 7
REMARK VINA RESULT:      -4.2     18.184     19.905
REMARK  1 active torsions:
REMARK  status: ('A' for Active; 'I' for Inactive)
REMARK    1  A    between atoms: C_6  and  N_7 
ROOT
HETATM    1  C   UNK N   1      36.078  15.660  11.453  0.00  0.00     0.158 C 
HETATM    2  N   UNK N   1      35.673  14.483  12.199  0.00  0.00    -0.332 N 
HETATM    3  C   UNK N   1      34.860  13.549  11.619  0.00  0.00     0.185 A 
HETATM    4  N   UNK N   1      34.475  12.431  12.316  0.00  0.00    -0.337 N 
ATOM      5  HN  UNK N   1      33.868  11.743  11.869  1.00  0.00     0.168 HD
HETATM    6  C   UNK N   1      34.893  12.225  13.600  0.00  0.00     0.131 A 
HETATM    7  C   UNK N   1      35.717  13.183  14.178  0.00  0.00     0.122 A 
HETATM    8  N   UNK N   1      36.263  13.231  15.403  0.00  0.00    -0.346 N 
ATOM      9  HN  UNK N   1      36.169  12.551  16.158  1.00  0.00     0.167 HD
HETATM   10  C   UNK N   1      36.972  14.394  15.407  0.00  0.00     0.182 A 
HETATM   11  N   UNK N   1      36.876  15.057  14.222  0.00  0.00    -0.336 N 
ATOM     12  HN  UNK N   1      37.305  15.945  13.962  1.00  0.00     0.168 HD
HETATM   13  C   UNK N   1      36.083  14.272  13.477  0.00  0.00     0.140 A 
ENDROOT
BRANCH   6  14
HETATM   14  N   UNK N   1      34.496  11.071  14.304  0.00  0.00    -0.383 N 
HETATM   15  H   UNK N   1      33.933  11.154  15.109  0.00  0.00     0.157 HD
HETATM   16  H   UNK N   1      34.780  10.182  13.992  0.00  0.00     0.157 HD
ENDBRANCH   6  14
TORSDOF 1
ENDMDL
MODEL 8
REMARK VINA RESULT:      -4.2     14.075     15.642
REMARK  1 active torsions:
REMARK  status: ('A' for Active; 'I' for Inactive)
REMARK    1  A    between atoms: C_6  and  N_7 
ROOT
HETATM    1  C   UNK N   1      34.191  18.308   8.126  0.00  0.00     0.158 C 
HETATM    2  N   UNK N   1      33.727  16.963   8.413  0.00  0.00    -0.332 N 
HETATM    3  C   UNK N   1      32.897  16.322   7.537  0.00  0.00     0.185 A 
HETATM    4  N   UNK N   1      32.456  15.048   7.798  0.00  0.00    -0.337 N 
ATOM      5  HN  UNK N   1      31.836  14.584   7.134  1.00  0.00     0.168 HD
HETATM    6  C   UNK N   1      32.835  14.394   8.936  0.00  0.00     0.131 A 
HETATM    7  C   UNK N   1      33.677  15.057   9.819  0.00  0.00     0.122 A 
HETATM    8  N   UNK N   1      34.194  14.655  10.990  0.00  0.00    -0.346 N 
ATOM      9  HN  UNK N   1      34.058  13.761  11.462  1.00  0.00     0.167 HD
HETATM   10  C   UNK N   1      34.942  15.715  11.405  0.00  0.00     0.182 A 
HETATM   11  N   UNK N   1      34.899  16.751  10.524  0.00  0.00    -0.336 N 
ATOM     12  HN  UNK N   1      35.365  17.655  10.592  1.00  0.00     0.168 HD
HETATM   13  C   UNK N   1      34.098  16.306   9.544  0.00  0.00     0.140 A 
ENDROOT
BRANCH   6  14
HETATM   14  N   UNK N   1      32.380  13.084   9.191  0.00  0.00    -0.383 N 
HETATM   15  H   UNK N   1      31.413  12.899   9.236  0.00  0.00     0.157 HD
HETATM   16  H   UNK N   1      33.027  12.355   9.324  0.00  0.00     0.157 HD
ENDBRANCH   6  14
TORSDOF 1
ENDMDL
MODEL 9
REMARK VINA RESULT:      -4.2     12.007     13.389
REMARK  1 active torsions:
REMARK  status: ('A' for Active; 'I' for Inactive)
REMARK    1  A    between atoms: C_6  and  N_7 
ROOT
HETATM    1  C   UNK N   1      32.760  17.438   4.594  0.00  0.00     0.158 C 
HETATM    2  N   UNK N   1      32.156  17.346   5.910  0.00  0.00    -0.332 N 
HETATM    3  C   UNK N   1      30.813  17.122   6.035  0.00  0.00     0.185 A 
HETATM    4  N   UNK N   1      30.234  17.030   7.277  0.00  0.00    -0.337 N 
ATOM      5  HN  UNK N   1      29.231  16.862   7.353  1.00  0.00     0.168 HD
HETATM    6  C   UNK N   1      30.983  17.161   8.412  0.00  0.00     0.131 A 
HETATM    7  C   UNK N   1      32.345  17.391   8.271  0.00  0.00     0.122 A 
HETATM    8  N   UNK N   1      33.297  17.557   9.203  0.00  0.00    -0.346 N 
ATOM      9  HN  UNK N   1      33.190  17.544  10.217  1.00  0.00     0.167 HD
HETATM   10  C   UNK N   1      34.438  17.746   8.483  0.00  0.00     0.182 A 
HETATM   11  N   UNK N   1      34.212  17.700   7.142  0.00  0.00    -0.336 N 
ATOM     12  HN  UNK N   1      34.888  17.810   6.386  1.00  0.00     0.168 HD
HETATM   13  C   UNK N   1      32.893  17.478   7.045  0.00  0.00     0.140 A 
ENDROOT
BRANCH   6  14
HETATM   14  N   UNK N   1      30.378  17.060   9.681  0.00  0.00    -0.383 N 
HETATM   15  H   UNK N   1      30.349  16.192  10.145  0.00  0.00     0.157 HD
HETATM   16  H   UNK N   1      29.985  17.857  10.104  0.00  0.00     0.157 HD
ENDBRANCH   6  14
TORSDOF 1
ENDMDL
