REMARK  25 active torsions:
REMARK  status: ('A' for Active; 'I' for Inactive)
REMARK    1  A    between atoms: O_1  and  C_2 
REMARK    2  A    between atoms: C_2  and  C_4 
REMARK    3  A    between atoms: C_4  and  N_5 
REMARK    4  A    between atoms: N_5  and  C_6 
REMARK    5  A    between atoms: N_5  and  C_20 
REMARK    6  A    between atoms: C_6  and  C_7 
REMARK    7  A    between atoms: C_7  and  N_8 
REMARK    8  A    between atoms: N_8  and  C_9 
REMARK    9  A    between atoms: N_8  and  C_13 
REMARK   10  A    between atoms: C_9  and  C_10 
REMARK   11  A    between atoms: C_10  and  O_11 
REMARK   12  A    between atoms: C_13  and  C_14 
REMARK       I    between atoms: C_14  and  N_16 
REMARK   13  A    between atoms: N_16  and  C_17 
REMARK   14  A    between atoms: C_17  and  C_18 
REMARK   15  A    between atoms: C_18  and  S_19 
REMARK   16  A    between atoms: C_20  and  C_21 
REMARK   17  A    between atoms: C_21  and  N_22 
REMARK   18  A    between atoms: N_22  and  C_23 
REMARK   19  A    between atoms: N_22  and  C_27 
REMARK   20  A    between atoms: C_23  and  C_24 
REMARK   21  A    between atoms: C_24  and  O_25 
REMARK   22  A    between atoms: C_27  and  C_28 
REMARK       I    between atoms: C_28  and  N_30 
REMARK   23  A    between atoms: N_30  and  C_31 
REMARK   24  A    between atoms: C_31  and  C_32 
REMARK   25  A    between atoms: C_32  and  S_33 
ROOT
HETATM    1  N   UNK N   1      14.974   4.603  -0.246  0.00  0.00     0.101 N 
ENDROOT
BRANCH   1   2
HETATM    2  C   UNK N   1      14.090   3.710   0.492  0.00  0.00     0.381 C 
BRANCH   2   3
HETATM    3  C   UNK N   1      14.252   2.302   0.014  0.00  0.00     0.169 C 
HETATM    4  O   UNK N   1      15.335   1.745   0.095  0.00  0.00    -0.649 OA
BRANCH   3   5
HETATM    5  O   UNK N   1      13.194   1.640  -0.490  0.00  0.00    -0.775 OA
HETATM    6  H   UNK N   1      12.427   2.048  -0.841  0.00  0.00     0.167 HD
ENDBRANCH   3   5
ENDBRANCH   2   3
ENDBRANCH   1   2
BRANCH   1   7
HETATM    7  C   UNK N   1      14.172   5.709  -0.790  0.00  0.00     0.303 C 
BRANCH   7   8
HETATM    8  C   UNK N   1      13.909   6.834   0.224  0.00  0.00     0.303 C 
BRANCH   8   9
HETATM    9  N   UNK N   1      12.561   7.354   0.099  0.00  0.00     0.108 N 
BRANCH   9  10
HETATM   10  C   UNK N   1      12.517   8.638   0.792  0.00  0.00     0.382 C 
BRANCH  10  11
HETATM   11  C   UNK N   1      13.062   9.743  -0.056  0.00  0.00     0.169 C 
HETATM   12  O   UNK N   1      14.265   9.936  -0.115  0.00  0.00    -0.649 OA
BRANCH  11  13
HETATM   13  O   UNK N   1      12.218  10.559  -0.712  0.00  0.00    -0.775 OA
HETATM   14  H   UNK N   1      12.416  11.352  -1.170  0.00  0.00     0.167 HD
ENDBRANCH  11  13
ENDBRANCH  10  11
ENDBRANCH   9  10
BRANCH   9  15
HETATM   15  C   UNK N   1      11.710   6.470   0.879  0.00  0.00     0.375 C 
BRANCH  15  16
HETATM   16  C   UNK N   1      10.471   6.132   0.125  0.00  0.00     0.246 C 
HETATM   17  O   UNK N   1       9.765   7.027  -0.314  0.00  0.00    -0.272 OA
HETATM   18  N   UNK N   1      10.127   4.832  -0.038  0.00  0.00    -0.359 N 
HETATM   19  H   UNK N   1      10.727   4.136   0.313  0.00  0.00     0.162 HD
BRANCH  18  20
HETATM   20  C   UNK N   1       8.913   4.429  -0.708  0.00  0.00     0.132 C 
BRANCH  20  21
HETATM   21  C   UNK N   1       7.733   4.505   0.248  0.00  0.00     0.090 C 
BRANCH  21  22
HETATM   22  S   UNK N   1       6.819   6.056   0.002  0.00  0.00    -0.181 SA
HETATM   23  H   UNK N   1       7.482   7.229  -0.182  0.00  0.00     0.101 HD
ENDBRANCH  21  22
ENDBRANCH  20  21
ENDBRANCH  18  20
ENDBRANCH  15  16
ENDBRANCH   9  15
ENDBRANCH   8   9
ENDBRANCH   7   8
ENDBRANCH   1   7
BRANCH   1  24
HETATM   24  C   UNK N   1      15.976   5.101   0.689  0.00  0.00     0.303 C 
BRANCH  24  25
HETATM   25  C   UNK N   1      17.366   4.618   0.317  0.00  0.00     0.303 C 
BRANCH  25  26
HETATM   26  N   UNK N   1      18.290   5.691  -0.066  0.00  0.00     0.108 N 
BRANCH  26  27
HETATM   27  C   UNK N   1      18.192   6.808   0.879  0.00  0.00     0.382 C 
BRANCH  27  28
HETATM   28  C   UNK N   1      17.793   8.058   0.154  0.00  0.00     0.169 C 
HETATM   29  O   UNK N   1      18.517   9.038   0.186  0.00  0.00    -0.649 OA
BRANCH  28  30
HETATM   30  O   UNK N   1      16.636   8.104  -0.534  0.00  0.00    -0.775 OA
HETATM   31  H   UNK N   1      16.262   8.817  -1.013  0.00  0.00     0.167 HD
ENDBRANCH  28  30
ENDBRANCH  27  28
ENDBRANCH  26  27
BRANCH  26  32
HETATM   32  C   UNK N   1      19.592   5.053   0.104  0.00  0.00     0.375 C 
BRANCH  32  33
HETATM   33  C   UNK N   1      20.792   5.887  -0.235  0.00  0.00     0.246 C 
HETATM   34  O   UNK N   1      20.675   7.036  -0.648  0.00  0.00    -0.272 OA
HETATM   35  N   UNK N   1      22.012   5.343  -0.047  0.00  0.00    -0.359 N 
HETATM   36  H   UNK N   1      22.064   4.413   0.273  0.00  0.00     0.162 HD
BRANCH  35  37
HETATM   37  C   UNK N   1      23.240   6.049  -0.291  0.00  0.00     0.132 C 
BRANCH  37  38
HETATM   38  C   UNK N   1      24.391   5.119   0.034  0.00  0.00     0.090 C 
BRANCH  38  39
HETATM   39  S   UNK N   1      25.961   6.020  -0.045  0.00  0.00    -0.181 SA
HETATM   40  H   UNK N   1      27.136   5.337  -0.105  0.00  0.00     0.101 HD
ENDBRANCH  38  39
ENDBRANCH  37  38
ENDBRANCH  35  37
ENDBRANCH  32  33
ENDBRANCH  26  32
ENDBRANCH  25  26
ENDBRANCH  24  25
ENDBRANCH   1  24
TORSDOF 25
