REMARK  1 active torsions:
REMARK  status: ('A' for Active; 'I' for Inactive)
REMARK    1  A    between atoms: C_2  and  C_5 
ROOT
HETATM    1  C   UNK N   1       0.182   2.349   0.000  0.00  0.00     0.075 C 
HETATM    2  C   UNK N   1       1.226   1.279   0.000  0.00  0.00     0.076 C 
HETATM    3  N   UNK N   1       2.462   1.613  -0.000  0.00  0.00    -0.397 N 
ATOM      4  HN  UNK N   1       2.725   2.598  -0.000  1.00  0.00     0.156 HD
HETATM    5  H   UNK N   1       3.159   0.918  -0.000  0.00  0.00     0.156 HD
ENDROOT
BRANCH   2   6
HETATM    6  C   UNK N   1       0.850  -0.150   0.000  0.00  0.00     0.221 C 
HETATM    7  O   UNK N   1       1.812  -1.095  -0.000  0.00  0.00    -0.643 OA
HETATM    8  O   UNK N   1      -0.323  -0.484   0.000  0.00  0.00    -0.643 OA
ENDBRANCH   2   6
TORSDOF 1
