MODEL 1
REMARK VINA RESULT:      -4.7      0.000      0.000
REMARK  2 active torsions:
REMARK  status: ('A' for Active; 'I' for Inactive)
REMARK    1  A    between atoms: C_3  and  O_9 
REMARK    2  A    between atoms: O_10  and  C_4 
ROOT
HETATM    1  C   UNK N   1      21.879  19.551   3.566  0.00  0.00     0.134 A 
HETATM    2  C   UNK N   1      22.118  20.308   2.484  0.00  0.00     0.157 A 
HETATM    3  C   UNK N   1      21.095  20.331   1.323  0.00  0.00     0.285 A 
HETATM    4  C   UNK N   1      19.804  18.720   2.771  0.00  0.00     0.219 A 
HETATM    5  F   UNK N   1      23.288  21.030   2.481  0.00  0.00    -0.205 F 
HETATM    6  N   UNK N   1      20.706  18.759   3.688  0.00  0.00    -0.330 N 
ATOM      7  HN  UNK N   1      20.573  18.202   4.533  1.00  0.00     0.168 HD
HETATM    8  N   UNK N   1      19.951  19.481   1.581  0.00  0.00    -0.324 N 
HETATM    9  H   UNK N   1      19.242  19.428   0.900  0.00  0.00     0.166 HD
ENDROOT
BRANCH   3  10
HETATM   10  O   UNK N   1      20.856  20.890   0.071  0.00  0.00    -0.370 OA
HETATM   11  H   UNK N   1      21.596  21.216  -0.464  0.00  0.00     0.212 HD
ENDBRANCH   3  10
BRANCH   4  12
HETATM   12  O   UNK N   1      18.712  17.953   2.938  0.00  0.00    -0.332 OA
HETATM   13  H   UNK N   1      18.071  18.185   3.580  0.00  0.00     0.220 HD
ENDBRANCH   4  12
TORSDOF 2
ENDMDL
MODEL 2
REMARK VINA RESULT:      -4.5     10.789     11.644
REMARK  2 active torsions:
REMARK  status: ('A' for Active; 'I' for Inactive)
REMARK    1  A    between atoms: C_3  and  O_9 
REMARK    2  A    between atoms: O_10  and  C_4 
ROOT
HETATM    1  C   UNK N   1      22.610  13.535   9.578  0.00  0.00     0.134 A 
HETATM    2  C   UNK N   1      21.395  13.168  10.010  0.00  0.00     0.157 A 
HETATM    3  C   UNK N   1      21.266  12.252  11.251  0.00  0.00     0.285 A 
HETATM    4  C   UNK N   1      23.786  12.347  11.260  0.00  0.00     0.219 A 
HETATM    5  F   UNK N   1      20.316  13.644   9.302  0.00  0.00    -0.205 F 
HETATM    6  N   UNK N   1      23.802  13.109  10.224  0.00  0.00    -0.330 N 
ATOM      7  HN  UNK N   1      24.700  13.418   9.853  1.00  0.00     0.168 HD
HETATM    8  N   UNK N   1      22.556  11.896  11.807  0.00  0.00    -0.324 N 
HETATM    9  H   UNK N   1      22.581  11.314  12.601  0.00  0.00     0.166 HD
ENDROOT
BRANCH   3  10
HETATM   10  O   UNK N   1      20.333  11.616  12.065  0.00  0.00    -0.370 OA
HETATM   11  H   UNK N   1      19.701  10.990  11.680  0.00  0.00     0.212 HD
ENDBRANCH   3  10
BRANCH   4  12
HETATM   12  O   UNK N   1      24.944  11.974  11.833  0.00  0.00    -0.332 OA
HETATM   13  H   UNK N   1      24.942  11.594  12.689  0.00  0.00     0.220 HD
ENDBRANCH   4  12
TORSDOF 2
ENDMDL
MODEL 3
REMARK VINA RESULT:      -4.4     11.234     12.025
REMARK  2 active torsions:
REMARK  status: ('A' for Active; 'I' for Inactive)
REMARK    1  A    between atoms: C_3  and  O_9 
REMARK    2  A    between atoms: O_10  and  C_4 
ROOT
HETATM    1  C   UNK N   1      21.529  11.973  11.080  0.00  0.00     0.134 A 
HETATM    2  C   UNK N   1      22.299  12.348  10.048  0.00  0.00     0.157 A 
HETATM    3  C   UNK N   1      23.806  12.620  10.274  0.00  0.00     0.285 A 
HETATM    4  C   UNK N   1      23.291  12.017  12.668  0.00  0.00     0.219 A 
HETATM    5  F   UNK N   1      21.680  12.469   8.826  0.00  0.00    -0.205 F 
HETATM    6  N   UNK N   1      22.051  11.812  12.392  0.00  0.00    -0.330 N 
ATOM      7  HN  UNK N   1      21.421  11.525  13.141  1.00  0.00     0.168 HD
HETATM    8  N   UNK N   1      24.200  12.419  11.654  0.00  0.00    -0.324 N 
HETATM    9  H   UNK N   1      25.141  12.567  11.900  0.00  0.00     0.166 HD
ENDROOT
BRANCH   3  10
HETATM   10  O   UNK N   1      24.972  13.002   9.617  0.00  0.00    -0.370 OA
HETATM   11  H   UNK N   1      25.396  13.847   9.833  0.00  0.00     0.212 HD
ENDBRANCH   3  10
BRANCH   4  12
HETATM   12  O   UNK N   1      23.732  11.851  13.927  0.00  0.00    -0.332 OA
HETATM   13  H   UNK N   1      23.150  11.535  14.590  0.00  0.00     0.220 HD
ENDBRANCH   4  12
TORSDOF 2
ENDMDL
MODEL 4
REMARK VINA RESULT:      -4.4      1.606      1.767
REMARK  2 active torsions:
REMARK  status: ('A' for Active; 'I' for Inactive)
REMARK    1  A    between atoms: C_3  and  O_9 
REMARK    2  A    between atoms: O_10  and  C_4 
ROOT
HETATM    1  C   UNK N   1      21.445  17.866   3.674  0.00  0.00     0.134 A 
HETATM    2  C   UNK N   1      22.164  18.994   3.586  0.00  0.00     0.157 A 
HETATM    3  C   UNK N   1      21.521  20.268   2.986  0.00  0.00     0.285 A 
HETATM    4  C   UNK N   1      19.486  18.803   2.722  0.00  0.00     0.219 A 
HETATM    5  F   UNK N   1      23.459  18.941   4.047  0.00  0.00    -0.205 F 
HETATM    6  N   UNK N   1      20.097  17.792   3.233  0.00  0.00    -0.330 N 
ATOM      7  HN  UNK N   1      19.596  16.908   3.323  1.00  0.00     0.168 HD
HETATM    8  N   UNK N   1      20.148  20.051   2.579  0.00  0.00    -0.324 N 
HETATM    9  H   UNK N   1      19.650  20.803   2.185  0.00  0.00     0.166 HD
ENDROOT
BRANCH   3  10
HETATM   10  O   UNK N   1      21.783  21.601   2.681  0.00  0.00    -0.370 OA
HETATM   11  H   UNK N   1      21.142  22.288   2.920  0.00  0.00     0.212 HD
ENDBRANCH   3  10
BRANCH   4  12
HETATM   12  O   UNK N   1      18.208  18.679   2.320  0.00  0.00    -0.332 OA
HETATM   13  H   UNK N   1      17.510  18.875   2.912  0.00  0.00     0.220 HD
ENDBRANCH   4  12
TORSDOF 2
ENDMDL
MODEL 5
REMARK VINA RESULT:      -4.4     14.368     14.820
REMARK  2 active torsions:
REMARK  status: ('A' for Active; 'I' for Inactive)
REMARK    1  A    between atoms: C_3  and  O_9 
REMARK    2  A    between atoms: O_10  and  C_4 
ROOT
HETATM    1  C   UNK N   1      33.223  16.254   7.275  0.00  0.00     0.134 A 
HETATM    2  C   UNK N   1      33.834  17.428   7.062  0.00  0.00     0.157 A 
HETATM    3  C   UNK N   1      34.561  18.138   8.230  0.00  0.00     0.285 A 
HETATM    4  C   UNK N   1      33.796  16.146   9.574  0.00  0.00     0.219 A 
HETATM    5  F   UNK N   1      33.772  17.936   5.785  0.00  0.00    -0.205 F 
HETATM    6  N   UNK N   1      33.216  15.626   8.550  0.00  0.00    -0.330 N 
ATOM      7  HN  UNK N   1      32.736  14.732   8.656  1.00  0.00     0.168 HD
HETATM    8  N   UNK N   1      34.475  17.389   9.467  0.00  0.00    -0.324 N 
HETATM    9  H   UNK N   1      34.907  17.757  10.271  0.00  0.00     0.166 HD
ENDROOT
BRANCH   3  10
HETATM   10  O   UNK N   1      35.297  19.276   8.547  0.00  0.00    -0.370 OA
HETATM   11  H   UNK N   1      35.050  19.815   9.313  0.00  0.00     0.212 HD
ENDBRANCH   3  10
BRANCH   4  12
HETATM   12  O   UNK N   1      33.759  15.509  10.758  0.00  0.00    -0.332 OA
HETATM   13  H   UNK N   1      33.497  14.611  10.799  0.00  0.00     0.220 HD
ENDBRANCH   4  12
TORSDOF 2
ENDMDL
MODEL 6
REMARK VINA RESULT:      -4.3      2.349      3.327
REMARK  2 active torsions:
REMARK  status: ('A' for Active; 'I' for Inactive)
REMARK    1  A    between atoms: C_3  and  O_9 
REMARK    2  A    between atoms: O_10  and  C_4 
ROOT
HETATM    1  C   UNK N   1      21.852  18.159   3.591  0.00  0.00     0.134 A 
HETATM    2  C   UNK N   1      20.621  17.699   3.325  0.00  0.00     0.157 A 
HETATM    3  C   UNK N   1      19.554  18.656   2.741  0.00  0.00     0.285 A 
HETATM    4  C   UNK N   1      21.396  20.372   2.871  0.00  0.00     0.219 A 
HETATM    5  F   UNK N   1      20.384  16.371   3.597  0.00  0.00    -0.205 F 
HETATM    6  N   UNK N   1      22.220  19.511   3.354  0.00  0.00    -0.330 N 
ATOM      7  HN  UNK N   1      23.171  19.808   3.574  1.00  0.00     0.168 HD
HETATM    8  N   UNK N   1      20.064  19.998   2.551  0.00  0.00    -0.324 N 
HETATM    9  H   UNK N   1      19.460  20.682   2.184  0.00  0.00     0.166 HD
ENDROOT
BRANCH   3  10
HETATM   10  O   UNK N   1      18.230  18.707   2.313  0.00  0.00    -0.370 OA
HETATM   11  H   UNK N   1      17.563  19.158   2.854  0.00  0.00     0.212 HD
ENDBRANCH   3  10
BRANCH   4  12
HETATM   12  O   UNK N   1      21.796  21.640   2.666  0.00  0.00    -0.332 OA
HETATM   13  H   UNK N   1      21.248  22.234   2.193  0.00  0.00     0.220 HD
ENDBRANCH   4  12
TORSDOF 2
ENDMDL
MODEL 7
REMARK VINA RESULT:      -4.2     10.485     11.687
REMARK  2 active torsions:
REMARK  status: ('A' for Active; 'I' for Inactive)
REMARK    1  A    between atoms: C_3  and  O_9 
REMARK    2  A    between atoms: O_10  and  C_4 
ROOT
HETATM    1  C   UNK N   1      23.344  12.935   9.809  0.00  0.00     0.134 A 
HETATM    2  C   UNK N   1      23.751  12.264  10.896  0.00  0.00     0.157 A 
HETATM    3  C   UNK N   1      22.713  11.802  11.947  0.00  0.00     0.285 A 
HETATM    4  C   UNK N   1      21.048  12.898  10.403  0.00  0.00     0.219 A 
HETATM    5  F   UNK N   1      25.102  12.025  11.006  0.00  0.00    -0.205 F 
HETATM    6  N   UNK N   1      21.976  13.244   9.581  0.00  0.00    -0.330 N 
ATOM      7  HN  UNK N   1      21.720  13.757   8.738  1.00  0.00     0.168 HD
HETATM    8  N   UNK N   1      21.363  12.183  11.589  0.00  0.00    -0.324 N 
HETATM    9  H   UNK N   1      20.628  11.934  12.195  0.00  0.00     0.166 HD
ENDROOT
BRANCH   3  10
HETATM   10  O   UNK N   1      22.591  11.129  13.159  0.00  0.00    -0.370 OA
HETATM   11  H   UNK N   1      22.855  10.199  13.226  0.00  0.00     0.212 HD
ENDBRANCH   3  10
BRANCH   4  12
HETATM   12  O   UNK N   1      19.768  13.216  10.139  0.00  0.00    -0.332 OA
HETATM   13  H   UNK N   1      19.560  14.047   9.762  0.00  0.00     0.220 HD
ENDBRANCH   4  12
TORSDOF 2
ENDMDL
MODEL 8
REMARK VINA RESULT:      -4.2     10.869     12.051
REMARK  2 active torsions:
REMARK  status: ('A' for Active; 'I' for Inactive)
REMARK    1  A    between atoms: C_3  and  O_9 
REMARK    2  A    between atoms: O_10  and  C_4 
ROOT
HETATM    1  C   UNK N   1      21.671  12.499  10.059  0.00  0.00     0.134 A 
HETATM    2  C   UNK N   1      21.703  12.161  11.357  0.00  0.00     0.157 A 
HETATM    3  C   UNK N   1      23.052  12.151  12.115  0.00  0.00     0.285 A 
HETATM    4  C   UNK N   1      24.008  12.873   9.896  0.00  0.00     0.219 A 
HETATM    5  F   UNK N   1      20.500  11.836  11.941  0.00  0.00    -0.205 F 
HETATM    6  N   UNK N   1      22.846  12.855   9.343  0.00  0.00    -0.330 N 
ATOM      7  HN  UNK N   1      22.765  13.104   8.357  1.00  0.00     0.168 HD
HETATM    8  N   UNK N   1      24.162  12.532  11.266  0.00  0.00    -0.324 N 
HETATM    9  H   UNK N   1      25.065  12.557  11.656  0.00  0.00     0.166 HD
ENDROOT
BRANCH   3  10
HETATM   10  O   UNK N   1      23.619  11.901  13.361  0.00  0.00    -0.370 OA
HETATM   11  H   UNK N   1      23.243  12.311  14.156  0.00  0.00     0.212 HD
ENDBRANCH   3  10
BRANCH   4  12
HETATM   12  O   UNK N   1      25.087  13.217   9.171  0.00  0.00    -0.332 OA
HETATM   13  H   UNK N   1      25.294  14.121   9.040  0.00  0.00     0.220 HD
ENDBRANCH   4  12
TORSDOF 2
ENDMDL
MODEL 9
REMARK VINA RESULT:      -4.2     22.623     23.460
REMARK  2 active torsions:
REMARK  status: ('A' for Active; 'I' for Inactive)
REMARK    1  A    between atoms: C_3  and  O_9 
REMARK    2  A    between atoms: O_10  and  C_4 
ROOT
HETATM    1  C   UNK N   1      44.535  21.670   3.944  0.00  0.00     0.134 A 
HETATM    2  C   UNK N   1      43.248  21.790   3.586  0.00  0.00     0.157 A 
HETATM    3  C   UNK N   1      42.792  23.017   2.760  0.00  0.00     0.285 A 
HETATM    4  C   UNK N   1      45.218  23.690   2.905  0.00  0.00     0.219 A 
HETATM    5  F   UNK N   1      42.398  20.786   3.988  0.00  0.00    -0.205 F 
HETATM    6  N   UNK N   1      45.510  22.640   3.590  0.00  0.00    -0.330 N 
ATOM      7  HN  UNK N   1      46.476  22.500   3.889  1.00  0.00     0.168 HD
HETATM    8  N   UNK N   1      43.886  23.921   2.471  0.00  0.00    -0.324 N 
HETATM    9  H   UNK N   1      43.698  24.734   1.949  0.00  0.00     0.166 HD
ENDROOT
BRANCH   3  10
HETATM   10  O   UNK N   1      41.675  23.598   2.167  0.00  0.00    -0.370 OA
HETATM   11  H   UNK N   1      40.988  23.038   1.774  0.00  0.00     0.212 HD
ENDBRANCH   3  10
BRANCH   4  12
HETATM   12  O   UNK N   1      46.181  24.577   2.597  0.00  0.00    -0.332 OA
HETATM   13  H   UNK N   1      46.699  24.960   3.276  0.00  0.00     0.220 HD
ENDBRANCH   4  12
TORSDOF 2
ENDMDL
