MODEL 1
REMARK VINA RESULT:      -7.8      0.000      0.000
REMARK  22 active torsions:
REMARK  status: ('A' for Active; 'I' for Inactive)
REMARK    1  A    between atoms: C_19  and  C_12 
REMARK    2  A    between atoms: C_20  and  C_12 
REMARK    3  A    between atoms: C_28  and  C_19 
REMARK    4  A    between atoms: C_31  and  C_20 
REMARK    5  A    between atoms: C_29  and  C_23 
REMARK    6  A    between atoms: C_36  and  C_23 
REMARK    7  A    between atoms: C_32  and  C_24 
REMARK    8  A    between atoms: C_35  and  C_24 
REMARK    9  A    between atoms: C_30  and  C_26 
REMARK   10  A    between atoms: O_52  and  C_26 
REMARK   11  A    between atoms: C_31  and  C_27 
REMARK   12  A    between atoms: P_53  and  C_27 
REMARK   13  A    between atoms: C_31  and  C_38 
REMARK   14  A    between atoms: C_37  and  C_35 
REMARK   15  A    between atoms: C_35  and  N_43 
REMARK   16  A    between atoms: C_36  and  N_45 
REMARK   17  A    between atoms: P_53  and  C_36 
REMARK   18  A    between atoms: O_47  and  C_37 
REMARK   19  A    between atoms: C_38  and  O_48 
REMARK   20  A    between atoms: C_39  and  O_49 
REMARK   21  A    between atoms: O_52  and  C_39 
REMARK   22  A    between atoms: P_53  and  O_50 
ROOT
HETATM    1  C   UNK N   1      33.793  16.437   8.234  0.00  0.00     0.069 C 
ENDROOT
BRANCH   1   2
HETATM    2  C   UNK N   1      33.733  17.483   7.117  0.00  0.00     0.013 C 
BRANCH   2   3
HETATM    3  C   UNK N   1      33.735  16.909   5.696  0.00  0.00     0.005 C 
BRANCH   3   4
HETATM    4  C   UNK N   1      32.679  17.530   4.775  0.00  0.00     0.038 C 
BRANCH   4   5
HETATM    5  C   UNK N   1      31.458  16.681   4.575  0.00  0.00    -0.058 A 
HETATM    6  C   UNK N   1      30.522  16.972   3.569  0.00  0.00     0.007 A 
HETATM    7  C   UNK N   1      29.410  16.152   3.378  0.00  0.00     0.001 A 
HETATM    8  C   UNK N   1      29.230  15.028   4.185  0.00  0.00     0.000 A 
HETATM    9  C   UNK N   1      30.164  14.726   5.181  0.00  0.00     0.001 A 
HETATM   10  C   UNK N   1      31.277  15.550   5.374  0.00  0.00     0.007 A 
ENDBRANCH   4   5
ENDBRANCH   3   4
ENDBRANCH   2   3
ENDBRANCH   1   2
BRANCH   1  11
HETATM   11  C   UNK N   1      34.765  16.925   9.316  0.00  0.00     0.109 C 
BRANCH  11  12
HETATM   12  P   UNK N   1      35.521  15.570  10.289  0.00  0.00     0.122 P 
HETATM   13  O   UNK N   1      34.782  15.594  11.655  0.00  0.00    -0.672 OA
BRANCH  12  14
HETATM   14  C   UNK N   1      35.390  13.847   9.582  0.00  0.00     0.172 C 
BRANCH  14  15
HETATM   15  C   UNK N   1      36.342  13.776   8.388  0.00  0.00     0.073 C 
BRANCH  15  16
HETATM   16  C   UNK N   1      35.677  13.613   7.055  0.00  0.00    -0.056 A 
HETATM   17  C   UNK N   1      34.398  13.042   6.993  0.00  0.00     0.007 A 
HETATM   18  C   UNK N   1      33.738  12.924   5.765  0.00  0.00     0.001 A 
HETATM   19  C   UNK N   1      34.349  13.386   4.597  0.00  0.00     0.000 A 
HETATM   20  C   UNK N   1      35.624  13.960   4.655  0.00  0.00     0.001 A 
HETATM   21  C   UNK N   1      36.288  14.075   5.882  0.00  0.00     0.007 A 
ENDBRANCH  15  16
ENDBRANCH  14  15
BRANCH  14  22
HETATM   22  N   UNK N   1      35.787  12.956  10.645  0.00  0.00    -0.337 N 
HETATM   23  C   UNK N   1      34.985  12.052  11.112  0.00  0.00     0.259 C 
ATOM     24  HN  UNK N   1      36.723  13.041  11.041  1.00  0.00     0.164 HD
BRANCH  23  25
HETATM   25  O   UNK N   1      33.826  11.767  10.481  0.00  0.00    -0.327 OA
HETATM   26  H   UNK N   1      33.234  11.058  10.321  0.00  0.00     0.221 HD
ENDBRANCH  23  25
BRANCH  23  27
HETATM   27  O   UNK N   1      35.250  11.416  12.265  0.00  0.00    -0.312 OA
BRANCH  27  28
HETATM   28  C   UNK N   1      34.255  10.918  13.064  0.00  0.00     0.218 C 
BRANCH  28  29
HETATM   29  C   UNK N   1      34.677  11.213  14.436  0.00  0.00    -0.034 A 
HETATM   30  C   UNK N   1      34.731  10.177  15.369  0.00  0.00     0.009 A 
HETATM   31  C   UNK N   1      34.977  10.468  16.709  0.00  0.00     0.001 A 
HETATM   32  C   UNK N   1      35.157  11.794  17.114  0.00  0.00     0.000 A 
HETATM   33  C   UNK N   1      35.097  12.831  16.177  0.00  0.00     0.001 A 
HETATM   34  C   UNK N   1      34.844  12.540  14.838  0.00  0.00     0.009 A 
ENDBRANCH  28  29
ENDBRANCH  27  28
ENDBRANCH  23  27
ENDBRANCH  14  22
ENDBRANCH  12  14
BRANCH  12  35
HETATM   35  O   UNK N   1      37.143  15.952  10.780  0.00  0.00    -0.348 OA
HETATM   36  H   UNK N   1      37.844  16.220  11.393  0.00  0.00     0.218 HD
ENDBRANCH  12  35
ENDBRANCH  11  12
ENDBRANCH   1  11
BRANCH   1  37
HETATM   37  C   UNK N   1      32.404  16.334   8.804  0.00  0.00     0.116 C 
HETATM   38  N   UNK N   1      31.510  17.123   8.324  0.00  0.00    -0.362 N 
ATOM     39  HN  UNK N   1      31.849  17.840   7.682  1.00  0.00     0.162 HD
BRANCH  38  40
HETATM   40  C   UNK N   1      30.091  17.128   8.572  0.00  0.00     0.161 C 
BRANCH  40  41
HETATM   41  C   UNK N   1      29.555  18.134   7.569  0.00  0.00     0.074 C 
BRANCH  41  42
HETATM   42  C   UNK N   1      28.341  17.695   6.840  0.00  0.00    -0.028 A 
HETATM   43  C   UNK N   1      27.527  16.616   7.147  0.00  0.00     0.096 A 
HETATM   44  N   UNK N   1      26.487  16.578   6.276  0.00  0.00    -0.365 N 
HETATM   45  C   UNK N   1      26.658  17.621   5.443  0.00  0.00     0.042 A 
HETATM   46  H   UNK N   1      25.754  15.919   6.257  0.00  0.00     0.165 HD
HETATM   47  C   UNK N   1      25.834  17.995   4.385  0.00  0.00     0.030 A 
HETATM   48  C   UNK N   1      27.783  18.321   5.760  0.00  0.00    -0.002 A 
HETATM   49  C   UNK N   1      26.203  19.130   3.636  0.00  0.00     0.002 A 
HETATM   50  C   UNK N   1      27.374  19.853   3.962  0.00  0.00     0.001 A 
HETATM   51  C   UNK N   1      28.179  19.449   5.042  0.00  0.00     0.014 A 
ENDBRANCH  41  42
ENDBRANCH  40  41
BRANCH  40  52
HETATM   52  C   UNK N   1      29.709  17.559   9.964  0.00  0.00     0.132 C 
HETATM   53  N   UNK N   1      29.344  16.685  10.829  0.00  0.00    -0.382 N 
HETATM   54  H   UNK N   1      28.717  15.934  10.723  0.00  0.00     0.158 HD
ATOM     55  HN  UNK N   1      29.762  16.781  11.754  1.00  0.00     0.158 HD
BRANCH  52  56
HETATM   56  O   UNK N   1      29.704  18.865  10.296  0.00  0.00    -0.348 OA
HETATM   57  H   UNK N   1      30.034  19.734  10.414  0.00  0.00     0.219 HD
ENDBRANCH  52  56
ENDBRANCH  40  52
ENDBRANCH  38  40
BRANCH  37  58
HETATM   58  O   UNK N   1      32.098  15.413   9.743  0.00  0.00    -0.349 OA
HETATM   59  H   UNK N   1      32.677  14.749  10.062  0.00  0.00     0.219 HD
ENDBRANCH  37  58
ENDBRANCH   1  37
TORSDOF 22
ENDMDL
MODEL 2
REMARK VINA RESULT:      -7.7      5.639     10.454
REMARK  22 active torsions:
REMARK  status: ('A' for Active; 'I' for Inactive)
REMARK    1  A    between atoms: C_19  and  C_12 
REMARK    2  A    between atoms: C_20  and  C_12 
REMARK    3  A    between atoms: C_28  and  C_19 
REMARK    4  A    between atoms: C_31  and  C_20 
REMARK    5  A    between atoms: C_29  and  C_23 
REMARK    6  A    between atoms: C_36  and  C_23 
REMARK    7  A    between atoms: C_32  and  C_24 
REMARK    8  A    between atoms: C_35  and  C_24 
REMARK    9  A    between atoms: C_30  and  C_26 
REMARK   10  A    between atoms: O_52  and  C_26 
REMARK   11  A    between atoms: C_31  and  C_27 
REMARK   12  A    between atoms: P_53  and  C_27 
REMARK   13  A    between atoms: C_31  and  C_38 
REMARK   14  A    between atoms: C_37  and  C_35 
REMARK   15  A    between atoms: C_35  and  N_43 
REMARK   16  A    between atoms: C_36  and  N_45 
REMARK   17  A    between atoms: P_53  and  C_36 
REMARK   18  A    between atoms: O_47  and  C_37 
REMARK   19  A    between atoms: C_38  and  O_48 
REMARK   20  A    between atoms: C_39  and  O_49 
REMARK   21  A    between atoms: O_52  and  C_39 
REMARK   22  A    between atoms: P_53  and  O_50 
ROOT
HETATM    1  C   UNK N   1      23.781  18.930   3.959  0.00  0.00     0.069 C 
ENDROOT
BRANCH   1   2
HETATM    2  C   UNK N   1      23.309  17.478   3.846  0.00  0.00     0.013 C 
BRANCH   2   3
HETATM    3  C   UNK N   1      23.245  16.716   5.175  0.00  0.00     0.005 C 
BRANCH   3   4
HETATM    4  C   UNK N   1      22.167  17.232   6.135  0.00  0.00     0.038 C 
BRANCH   4   5
HETATM    5  C   UNK N   1      21.713  16.226   7.151  0.00  0.00    -0.058 A 
HETATM    6  C   UNK N   1      20.638  16.494   8.014  0.00  0.00     0.007 A 
HETATM    7  C   UNK N   1      20.208  15.534   8.930  0.00  0.00     0.001 A 
HETATM    8  C   UNK N   1      20.846  14.293   8.985  0.00  0.00     0.000 A 
HETATM    9  C   UNK N   1      21.911  14.016   8.122  0.00  0.00     0.001 A 
HETATM   10  C   UNK N   1      22.341  14.980   7.205  0.00  0.00     0.007 A 
ENDBRANCH   4   5
ENDBRANCH   3   4
ENDBRANCH   2   3
ENDBRANCH   1   2
BRANCH   1  11
HETATM   11  C   UNK N   1      25.121  19.072   3.225  0.00  0.00     0.109 C 
BRANCH  11  12
HETATM   12  P   UNK N   1      26.577  18.990   4.333  0.00  0.00     0.122 P 
HETATM   13  O   UNK N   1      26.174  19.805   5.591  0.00  0.00    -0.672 OA
BRANCH  12  14
HETATM   14  C   UNK N   1      27.123  17.291   4.886  0.00  0.00     0.172 C 
BRANCH  14  15
HETATM   15  C   UNK N   1      27.446  16.489   3.624  0.00  0.00     0.073 C 
BRANCH  15  16
HETATM   16  C   UNK N   1      26.390  15.511   3.209  0.00  0.00    -0.056 A 
HETATM   17  C   UNK N   1      25.914  14.578   4.141  0.00  0.00     0.007 A 
HETATM   18  C   UNK N   1      24.895  13.686   3.789  0.00  0.00     0.001 A 
HETATM   19  C   UNK N   1      24.340  13.731   2.508  0.00  0.00     0.000 A 
HETATM   20  C   UNK N   1      24.809  14.663   1.576  0.00  0.00     0.001 A 
HETATM   21  C   UNK N   1      25.832  15.553   1.924  0.00  0.00     0.007 A 
ENDBRANCH  15  16
ENDBRANCH  14  15
BRANCH  14  22
HETATM   22  N   UNK N   1      28.291  17.504   5.706  0.00  0.00    -0.337 N 
HETATM   23  C   UNK N   1      28.249  17.385   6.995  0.00  0.00     0.259 C 
ATOM     24  HN  UNK N   1      29.173  17.754   5.259  1.00  0.00     0.164 HD
BRANCH  23  25
HETATM   25  O   UNK N   1      27.167  16.854   7.604  0.00  0.00    -0.327 OA
HETATM   26  H   UNK N   1      26.303  17.078   7.888  0.00  0.00     0.221 HD
ENDBRANCH  23  25
BRANCH  23  27
HETATM   27  O   UNK N   1      29.248  17.843   7.769  0.00  0.00    -0.312 OA
BRANCH  27  28
HETATM   28  C   UNK N   1      30.145  17.000   8.370  0.00  0.00     0.218 C 
BRANCH  28  29
HETATM   29  C   UNK N   1      31.437  17.306   7.752  0.00  0.00    -0.034 A 
HETATM   30  C   UNK N   1      31.775  16.695   6.544  0.00  0.00     0.009 A 
HETATM   31  C   UNK N   1      33.058  16.854   6.026  0.00  0.00     0.001 A 
HETATM   32  C   UNK N   1      34.004  17.613   6.723  0.00  0.00     0.000 A 
HETATM   33  C   UNK N   1      33.663  18.220   7.936  0.00  0.00     0.001 A 
HETATM   34  C   UNK N   1      32.381  18.055   8.457  0.00  0.00     0.009 A 
ENDBRANCH  28  29
ENDBRANCH  27  28
ENDBRANCH  23  27
ENDBRANCH  14  22
ENDBRANCH  12  14
BRANCH  12  35
HETATM   35  O   UNK N   1      27.903  19.938   3.732  0.00  0.00    -0.348 OA
HETATM   36  H   UNK N   1      28.726  20.106   3.249  0.00  0.00     0.218 HD
ENDBRANCH  12  35
ENDBRANCH  11  12
ENDBRANCH   1  11
BRANCH   1  37
HETATM   37  C   UNK N   1      22.737  19.777   3.283  0.00  0.00     0.116 C 
HETATM   38  N   UNK N   1      21.585  19.243   3.080  0.00  0.00    -0.362 N 
ATOM     39  HN  UNK N   1      21.517  18.245   3.283  1.00  0.00     0.162 HD
BRANCH  38  40
HETATM   40  C   UNK N   1      20.378  19.868   2.605  0.00  0.00     0.161 C 
BRANCH  40  41
HETATM   41  C   UNK N   1      19.378  18.725   2.556  0.00  0.00     0.074 C 
BRANCH  41  42
HETATM   42  C   UNK N   1      19.983  17.381   2.400  0.00  0.00    -0.028 A 
HETATM   43  C   UNK N   1      20.823  16.955   1.382  0.00  0.00     0.096 A 
HETATM   44  N   UNK N   1      21.207  15.676   1.624  0.00  0.00    -0.365 N 
HETATM   45  C   UNK N   1      20.612  15.318   2.777  0.00  0.00     0.042 A 
HETATM   46  H   UNK N   1      21.802  15.121   1.069  0.00  0.00     0.165 HD
HETATM   47  C   UNK N   1      20.716  14.094   3.432  0.00  0.00     0.030 A 
HETATM   48  C   UNK N   1      19.856  16.337   3.275  0.00  0.00    -0.002 A 
HETATM   49  C   UNK N   1      20.003  13.932   4.636  0.00  0.00     0.002 A 
HETATM   50  C   UNK N   1      19.214  14.987   5.149  0.00  0.00     0.001 A 
HETATM   51  C   UNK N   1      19.137  16.213   4.463  0.00  0.00     0.014 A 
ENDBRANCH  41  42
ENDBRANCH  40  41
BRANCH  40  52
HETATM   52  C   UNK N   1      20.499  20.483   1.235  0.00  0.00     0.132 C 
HETATM   53  N   UNK N   1      20.458  21.758   1.099  0.00  0.00    -0.382 N 
HETATM   54  H   UNK N   1      19.836  22.404   1.503  0.00  0.00     0.158 HD
ATOM     55  HN  UNK N   1      21.170  22.157   0.487  1.00  0.00     0.158 HD
BRANCH  52  56
HETATM   56  O   UNK N   1      20.605  19.701   0.143  0.00  0.00    -0.348 OA
HETATM   57  H   UNK N   1      20.977  19.346  -0.640  0.00  0.00     0.219 HD
ENDBRANCH  52  56
ENDBRANCH  40  52
ENDBRANCH  38  40
BRANCH  37  58
HETATM   58  O   UNK N   1      22.983  21.064   2.954  0.00  0.00    -0.349 OA
HETATM   59  H   UNK N   1      23.086  21.392   2.083  0.00  0.00     0.219 HD
ENDBRANCH  37  58
ENDBRANCH   1  37
TORSDOF 22
ENDMDL
MODEL 3
REMARK VINA RESULT:      -7.6      7.516     11.133
REMARK  22 active torsions:
REMARK  status: ('A' for Active; 'I' for Inactive)
REMARK    1  A    between atoms: C_19  and  C_12 
REMARK    2  A    between atoms: C_20  and  C_12 
REMARK    3  A    between atoms: C_28  and  C_19 
REMARK    4  A    between atoms: C_31  and  C_20 
REMARK    5  A    between atoms: C_29  and  C_23 
REMARK    6  A    between atoms: C_36  and  C_23 
REMARK    7  A    between atoms: C_32  and  C_24 
REMARK    8  A    between atoms: C_35  and  C_24 
REMARK    9  A    between atoms: C_30  and  C_26 
REMARK   10  A    between atoms: O_52  and  C_26 
REMARK   11  A    between atoms: C_31  and  C_27 
REMARK   12  A    between atoms: P_53  and  C_27 
REMARK   13  A    between atoms: C_31  and  C_38 
REMARK   14  A    between atoms: C_37  and  C_35 
REMARK   15  A    between atoms: C_35  and  N_43 
REMARK   16  A    between atoms: C_36  and  N_45 
REMARK   17  A    between atoms: P_53  and  C_36 
REMARK   18  A    between atoms: O_47  and  C_37 
REMARK   19  A    between atoms: C_38  and  O_48 
REMARK   20  A    between atoms: C_39  and  O_49 
REMARK   21  A    between atoms: O_52  and  C_39 
REMARK   22  A    between atoms: P_53  and  O_50 
ROOT
HETATM    1  C   UNK N   1      24.362  18.511   3.865  0.00  0.00     0.069 C 
ENDROOT
BRANCH   1   2
HETATM    2  C   UNK N   1      24.983  17.576   2.824  0.00  0.00     0.013 C 
BRANCH   2   3
HETATM    3  C   UNK N   1      25.123  16.116   3.270  0.00  0.00     0.005 C 
BRANCH   3   4
HETATM    4  C   UNK N   1      25.913  15.241   2.290  0.00  0.00     0.038 C 
BRANCH   4   5
HETATM    5  C   UNK N   1      25.119  14.119   1.687  0.00  0.00    -0.058 A 
HETATM    6  C   UNK N   1      24.041  14.369   0.823  0.00  0.00     0.007 A 
HETATM    7  C   UNK N   1      23.335  13.314   0.246  0.00  0.00     0.001 A 
HETATM    8  C   UNK N   1      23.709  11.997   0.521  0.00  0.00     0.000 A 
HETATM    9  C   UNK N   1      24.789  11.741   1.372  0.00  0.00     0.001 A 
HETATM   10  C   UNK N   1      25.494  12.800   1.952  0.00  0.00     0.007 A 
ENDBRANCH   4   5
ENDBRANCH   3   4
ENDBRANCH   2   3
ENDBRANCH   1   2
BRANCH   1  11
HETATM   11  C   UNK N   1      23.717  17.662   4.968  0.00  0.00     0.109 C 
BRANCH  11  12
HETATM   12  P   UNK N   1      21.912  17.924   5.135  0.00  0.00     0.122 P 
HETATM   13  O   UNK N   1      21.596  19.147   4.229  0.00  0.00    -0.672 OA
BRANCH  12  14
HETATM   14  C   UNK N   1      20.802  16.513   4.621  0.00  0.00     0.172 C 
BRANCH  14  15
HETATM   15  C   UNK N   1      21.463  15.834   3.421  0.00  0.00     0.073 C 
BRANCH  15  16
HETATM   16  C   UNK N   1      21.667  14.356   3.563  0.00  0.00    -0.056 A 
HETATM   17  C   UNK N   1      22.698  13.882   4.386  0.00  0.00     0.007 A 
HETATM   18  C   UNK N   1      22.877  12.507   4.571  0.00  0.00     0.001 A 
HETATM   19  C   UNK N   1      22.019  11.601   3.942  0.00  0.00     0.000 A 
HETATM   20  C   UNK N   1      20.987  12.070   3.122  0.00  0.00     0.001 A 
HETATM   21  C   UNK N   1      20.809  13.446   2.932  0.00  0.00     0.007 A 
ENDBRANCH  15  16
ENDBRANCH  14  15
BRANCH  14  22
HETATM   22  N   UNK N   1      20.728  15.637   5.766  0.00  0.00    -0.337 N 
HETATM   23  C   UNK N   1      19.647  15.529   6.472  0.00  0.00     0.259 C 
ATOM     24  HN  UNK N   1      21.548  15.089   6.026  1.00  0.00     0.164 HD
BRANCH  23  25
HETATM   25  O   UNK N   1      18.487  16.069   6.043  0.00  0.00    -0.327 OA
HETATM   26  H   UNK N   1      18.028  16.287   5.256  0.00  0.00     0.221 HD
ENDBRANCH  23  25
BRANCH  23  27
HETATM   27  O   UNK N   1      19.661  14.936   7.678  0.00  0.00    -0.312 OA
BRANCH  27  28
HETATM   28  C   UNK N   1      20.566  15.279   8.646  0.00  0.00     0.218 C 
BRANCH  28  29
HETATM   29  C   UNK N   1      21.221  14.025   9.026  0.00  0.00    -0.034 A 
HETATM   30  C   UNK N   1      20.845  13.395  10.213  0.00  0.00     0.009 A 
HETATM   31  C   UNK N   1      21.564  12.290  10.664  0.00  0.00     0.001 A 
HETATM   32  C   UNK N   1      22.664  11.826   9.934  0.00  0.00     0.000 A 
HETATM   33  C   UNK N   1      23.040  12.464   8.748  0.00  0.00     0.001 A 
HETATM   34  C   UNK N   1      22.325  13.573   8.300  0.00  0.00     0.009 A 
ENDBRANCH  28  29
ENDBRANCH  27  28
ENDBRANCH  23  27
ENDBRANCH  14  22
ENDBRANCH  12  14
BRANCH  12  35
HETATM   35  O   UNK N   1      21.489  18.551   6.699  0.00  0.00    -0.348 OA
HETATM   36  H   UNK N   1      21.110  19.182   7.329  0.00  0.00     0.218 HD
ENDBRANCH  12  35
ENDBRANCH  11  12
ENDBRANCH   1  11
BRANCH   1  37
HETATM   37  C   UNK N   1      25.489  19.325   4.441  0.00  0.00     0.116 C 
HETATM   38  N   UNK N   1      26.166  18.800   5.400  0.00  0.00    -0.362 N 
ATOM     39  HN  UNK N   1      25.799  17.924   5.774  1.00  0.00     0.162 HD
BRANCH  38  40
HETATM   40  C   UNK N   1      27.373  19.285   6.017  0.00  0.00     0.161 C 
BRANCH  40  41
HETATM   41  C   UNK N   1      27.849  18.107   6.849  0.00  0.00     0.074 C 
BRANCH  41  42
HETATM   42  C   UNK N   1      28.114  16.871   6.076  0.00  0.00    -0.028 A 
HETATM   43  C   UNK N   1      29.193  16.620   5.243  0.00  0.00     0.096 A 
HETATM   44  N   UNK N   1      29.104  15.355   4.761  0.00  0.00    -0.365 N 
HETATM   45  C   UNK N   1      27.982  14.832   5.291  0.00  0.00     0.042 A 
HETATM   46  H   UNK N   1      29.732  14.909   4.148  0.00  0.00     0.165 HD
HETATM   47  C   UNK N   1      27.478  13.550   5.092  0.00  0.00     0.030 A 
HETATM   48  C   UNK N   1      27.354  15.733   6.096  0.00  0.00    -0.002 A 
HETATM   49  C   UNK N   1      26.280  13.206   5.748  0.00  0.00     0.002 A 
HETATM   50  C   UNK N   1      25.625  14.144   6.579  0.00  0.00     0.001 A 
HETATM   51  C   UNK N   1      26.168  15.430   6.763  0.00  0.00     0.014 A 
ENDBRANCH  41  42
ENDBRANCH  40  41
BRANCH  40  52
HETATM   52  C   UNK N   1      27.172  20.480   6.913  0.00  0.00     0.132 C 
HETATM   53  N   UNK N   1      27.459  21.656   6.488  0.00  0.00    -0.382 N 
HETATM   54  H   UNK N   1      28.259  21.960   6.002  0.00  0.00     0.158 HD
ATOM     55  HN  UNK N   1      26.761  22.374   6.678  1.00  0.00     0.158 HD
BRANCH  52  56
HETATM   56  O   UNK N   1      26.735  20.319   8.177  0.00  0.00    -0.348 OA
HETATM   57  H   UNK N   1      26.762  20.084   9.083  0.00  0.00     0.219 HD
ENDBRANCH  52  56
ENDBRANCH  40  52
ENDBRANCH  38  40
BRANCH  37  58
HETATM   58  O   UNK N   1      25.811  20.534   3.933  0.00  0.00    -0.349 OA
HETATM   59  H   UNK N   1      25.848  20.749   3.022  0.00  0.00     0.219 HD
ENDBRANCH  37  58
ENDBRANCH   1  37
TORSDOF 22
ENDMDL
MODEL 4
REMARK VINA RESULT:      -7.6      5.409      9.902
REMARK  22 active torsions:
REMARK  status: ('A' for Active; 'I' for Inactive)
REMARK    1  A    between atoms: C_19  and  C_12 
REMARK    2  A    between atoms: C_20  and  C_12 
REMARK    3  A    between atoms: C_28  and  C_19 
REMARK    4  A    between atoms: C_31  and  C_20 
REMARK    5  A    between atoms: C_29  and  C_23 
REMARK    6  A    between atoms: C_36  and  C_23 
REMARK    7  A    between atoms: C_32  and  C_24 
REMARK    8  A    between atoms: C_35  and  C_24 
REMARK    9  A    between atoms: C_30  and  C_26 
REMARK   10  A    between atoms: O_52  and  C_26 
REMARK   11  A    between atoms: C_31  and  C_27 
REMARK   12  A    between atoms: P_53  and  C_27 
REMARK   13  A    between atoms: C_31  and  C_38 
REMARK   14  A    between atoms: C_37  and  C_35 
REMARK   15  A    between atoms: C_35  and  N_43 
REMARK   16  A    between atoms: C_36  and  N_45 
REMARK   17  A    between atoms: P_53  and  C_36 
REMARK   18  A    between atoms: O_47  and  C_37 
REMARK   19  A    between atoms: C_38  and  O_48 
REMARK   20  A    between atoms: C_39  and  O_49 
REMARK   21  A    between atoms: O_52  and  C_39 
REMARK   22  A    between atoms: P_53  and  O_50 
ROOT
HETATM    1  C   UNK N   1      24.237  18.043   4.779  0.00  0.00     0.069 C 
ENDROOT
BRANCH   1   2
HETATM    2  C   UNK N   1      24.524  17.261   3.494  0.00  0.00     0.013 C 
BRANCH   2   3
HETATM    3  C   UNK N   1      24.017  15.814   3.493  0.00  0.00     0.005 C 
BRANCH   3   4
HETATM    4  C   UNK N   1      23.044  15.497   4.634  0.00  0.00     0.038 C 
BRANCH   4   5
HETATM    5  C   UNK N   1      22.600  14.065   4.685  0.00  0.00    -0.058 A 
HETATM    6  C   UNK N   1      23.023  13.133   3.723  0.00  0.00     0.007 A 
HETATM    7  C   UNK N   1      22.626  11.799   3.806  0.00  0.00     0.001 A 
HETATM    8  C   UNK N   1      21.808  11.382   4.858  0.00  0.00     0.000 A 
HETATM    9  C   UNK N   1      21.392  12.302   5.825  0.00  0.00     0.001 A 
HETATM   10  C   UNK N   1      21.789  13.640   5.740  0.00  0.00     0.007 A 
ENDBRANCH   4   5
ENDBRANCH   3   4
ENDBRANCH   2   3
ENDBRANCH   1   2
BRANCH   1  11
HETATM   11  C   UNK N   1      25.245  19.194   4.892  0.00  0.00     0.109 C 
BRANCH  11  12
HETATM   12  P   UNK N   1      26.956  18.639   5.241  0.00  0.00     0.122 P 
HETATM   13  O   UNK N   1      27.641  19.852   5.930  0.00  0.00    -0.672 OA
BRANCH  12  14
HETATM   14  C   UNK N   1      27.150  17.149   6.350  0.00  0.00     0.172 C 
BRANCH  14  15
HETATM   15  C   UNK N   1      27.090  15.910   5.456  0.00  0.00     0.073 C 
BRANCH  15  16
HETATM   16  C   UNK N   1      26.374  14.736   6.049  0.00  0.00    -0.056 A 
HETATM   17  C   UNK N   1      25.635  14.907   7.228  0.00  0.00     0.007 A 
HETATM   18  C   UNK N   1      24.919  13.836   7.774  0.00  0.00     0.001 A 
HETATM   19  C   UNK N   1      24.931  12.592   7.137  0.00  0.00     0.000 A 
HETATM   20  C   UNK N   1      25.664  12.418   5.957  0.00  0.00     0.001 A 
HETATM   21  C   UNK N   1      26.384  13.488   5.413  0.00  0.00     0.007 A 
ENDBRANCH  15  16
ENDBRANCH  14  15
BRANCH  14  22
HETATM   22  N   UNK N   1      28.440  17.298   6.983  0.00  0.00    -0.337 N 
HETATM   23  C   UNK N   1      28.585  17.963   8.085  0.00  0.00     0.259 C 
ATOM     24  HN  UNK N   1      29.257  16.869   6.550  1.00  0.00     0.164 HD
BRANCH  23  25
HETATM   25  O   UNK N   1      27.510  18.363   8.796  0.00  0.00    -0.327 OA
HETATM   26  H   UNK N   1      27.070  18.208   9.609  0.00  0.00     0.221 HD
ENDBRANCH  23  25
BRANCH  23  27
HETATM   27  O   UNK N   1      29.802  18.329   8.520  0.00  0.00    -0.312 OA
BRANCH  27  28
HETATM   28  C   UNK N   1      30.709  17.417   8.992  0.00  0.00     0.218 C 
BRANCH  28  29
HETATM   29  C   UNK N   1      31.829  17.462   8.049  0.00  0.00    -0.034 A 
HETATM   30  C   UNK N   1      31.792  16.659   6.909  0.00  0.00     0.009 A 
HETATM   31  C   UNK N   1      32.914  16.574   6.088  0.00  0.00     0.001 A 
HETATM   32  C   UNK N   1      34.075  17.283   6.415  0.00  0.00     0.000 A 
HETATM   33  C   UNK N   1      34.110  18.083   7.563  0.00  0.00     0.001 A 
HETATM   34  C   UNK N   1      32.989  18.163   8.387  0.00  0.00     0.009 A 
ENDBRANCH  28  29
ENDBRANCH  27  28
ENDBRANCH  23  27
ENDBRANCH  14  22
ENDBRANCH  12  14
BRANCH  12  35
HETATM   35  O   UNK N   1      27.901  18.501   3.791  0.00  0.00    -0.348 OA
HETATM   36  H   UNK N   1      28.256  18.066   3.001  0.00  0.00     0.218 HD
ENDBRANCH  12  35
ENDBRANCH  11  12
ENDBRANCH   1  11
BRANCH   1  37
HETATM   37  C   UNK N   1      22.844  18.597   4.645  0.00  0.00     0.116 C 
HETATM   38  N   UNK N   1      22.442  18.901   3.463  0.00  0.00    -0.362 N 
ATOM     39  HN  UNK N   1      23.149  18.859   2.729  1.00  0.00     0.162 HD
BRANCH  38  40
HETATM   40  C   UNK N   1      21.123  19.295   3.038  0.00  0.00     0.161 C 
BRANCH  40  41
HETATM   41  C   UNK N   1      20.711  18.191   2.080  0.00  0.00     0.074 C 
BRANCH  41  42
HETATM   42  C   UNK N   1      20.164  16.978   2.734  0.00  0.00    -0.028 A 
HETATM   43  C   UNK N   1      19.492  16.911   3.944  0.00  0.00     0.096 A 
HETATM   44  N   UNK N   1      19.104  15.631   4.172  0.00  0.00    -0.365 N 
HETATM   45  C   UNK N   1      19.533  14.917   3.114  0.00  0.00     0.042 A 
HETATM   46  H   UNK N   1      18.610  15.292   4.953  0.00  0.00     0.165 HD
HETATM   47  C   UNK N   1      19.360  13.553   2.896  0.00  0.00     0.030 A 
HETATM   48  C   UNK N   1      20.185  15.710   2.219  0.00  0.00    -0.002 A 
HETATM   49  C   UNK N   1      19.892  13.005   1.712  0.00  0.00     0.002 A 
HETATM   50  C   UNK N   1      20.575  13.828   0.787  0.00  0.00     0.001 A 
HETATM   51  C   UNK N   1      20.725  15.205   1.037  0.00  0.00     0.014 A 
ENDBRANCH  41  42
ENDBRANCH  40  41
BRANCH  40  52
HETATM   52  C   UNK N   1      21.075  20.620   2.322  0.00  0.00     0.132 C 
HETATM   53  N   UNK N   1      20.446  20.724   1.208  0.00  0.00    -0.382 N 
HETATM   54  H   UNK N   1      20.469  20.127   0.426  0.00  0.00     0.158 HD
ATOM     55  HN  UNK N   1      19.838  21.538   1.122  1.00  0.00     0.158 HD
BRANCH  52  56
HETATM   56  O   UNK N   1      21.726  21.689   2.819  0.00  0.00    -0.348 OA
HETATM   57  H   UNK N   1      22.345  22.168   3.334  0.00  0.00     0.219 HD
ENDBRANCH  52  56
ENDBRANCH  40  52
ENDBRANCH  38  40
BRANCH  37  58
HETATM   58  O   UNK N   1      22.031  18.715   5.717  0.00  0.00    -0.349 OA
HETATM   59  H   UNK N   1      21.898  18.060   6.373  0.00  0.00     0.219 HD
ENDBRANCH  37  58
ENDBRANCH   1  37
TORSDOF 22
ENDMDL
MODEL 5
REMARK VINA RESULT:      -7.5      6.638     11.652
REMARK  22 active torsions:
REMARK  status: ('A' for Active; 'I' for Inactive)
REMARK    1  A    between atoms: C_19  and  C_12 
REMARK    2  A    between atoms: C_20  and  C_12 
REMARK    3  A    between atoms: C_28  and  C_19 
REMARK    4  A    between atoms: C_31  and  C_20 
REMARK    5  A    between atoms: C_29  and  C_23 
REMARK    6  A    between atoms: C_36  and  C_23 
REMARK    7  A    between atoms: C_32  and  C_24 
REMARK    8  A    between atoms: C_35  and  C_24 
REMARK    9  A    between atoms: C_30  and  C_26 
REMARK   10  A    between atoms: O_52  and  C_26 
REMARK   11  A    between atoms: C_31  and  C_27 
REMARK   12  A    between atoms: P_53  and  C_27 
REMARK   13  A    between atoms: C_31  and  C_38 
REMARK   14  A    between atoms: C_37  and  C_35 
REMARK   15  A    between atoms: C_35  and  N_43 
REMARK   16  A    between atoms: C_36  and  N_45 
REMARK   17  A    between atoms: P_53  and  C_36 
REMARK   18  A    between atoms: O_47  and  C_37 
REMARK   19  A    between atoms: C_38  and  O_48 
REMARK   20  A    between atoms: C_39  and  O_49 
REMARK   21  A    between atoms: O_52  and  C_39 
REMARK   22  A    between atoms: P_53  and  O_50 
ROOT
HETATM    1  C   UNK N   1      23.983  18.818   3.960  0.00  0.00     0.069 C 
ENDROOT
BRANCH   1   2
HETATM    2  C   UNK N   1      23.351  17.444   3.720  0.00  0.00     0.013 C 
BRANCH   2   3
HETATM    3  C   UNK N   1      23.152  16.596   4.981  0.00  0.00     0.005 C 
BRANCH   3   4
HETATM    4  C   UNK N   1      22.302  17.277   6.060  0.00  0.00     0.038 C 
BRANCH   4   5
HETATM    5  C   UNK N   1      21.693  16.332   7.054  0.00  0.00    -0.058 A 
HETATM    6  C   UNK N   1      20.634  16.730   7.886  0.00  0.00     0.007 A 
HETATM    7  C   UNK N   1      20.059  15.828   8.781  0.00  0.00     0.001 A 
HETATM    8  C   UNK N   1      20.532  14.517   8.845  0.00  0.00     0.000 A 
HETATM    9  C   UNK N   1      21.579  14.111   8.012  0.00  0.00     0.001 A 
HETATM   10  C   UNK N   1      22.157  15.017   7.116  0.00  0.00     0.007 A 
ENDBRANCH   4   5
ENDBRANCH   3   4
ENDBRANCH   2   3
ENDBRANCH   1   2
BRANCH   1  11
HETATM   11  C   UNK N   1      25.347  18.862   3.259  0.00  0.00     0.109 C 
BRANCH  11  12
HETATM   12  P   UNK N   1      26.763  18.971   4.416  0.00  0.00     0.122 P 
HETATM   13  O   UNK N   1      26.220  19.744   5.649  0.00  0.00    -0.672 OA
BRANCH  12  14
HETATM   14  C   UNK N   1      27.493  17.358   5.010  0.00  0.00     0.172 C 
BRANCH  14  15
HETATM   15  C   UNK N   1      27.323  17.319   6.529  0.00  0.00     0.073 C 
BRANCH  15  16
HETATM   16  C   UNK N   1      28.560  17.633   7.314  0.00  0.00    -0.056 A 
HETATM   17  C   UNK N   1      28.452  18.381   8.495  0.00  0.00     0.007 A 
HETATM   18  C   UNK N   1      29.588  18.646   9.268  0.00  0.00     0.001 A 
HETATM   19  C   UNK N   1      30.833  18.155   8.869  0.00  0.00     0.000 A 
HETATM   20  C   UNK N   1      30.945  17.404   7.694  0.00  0.00     0.001 A 
HETATM   21  C   UNK N   1      29.810  17.143   6.916  0.00  0.00     0.007 A 
ENDBRANCH  15  16
ENDBRANCH  14  15
BRANCH  14  22
HETATM   22  N   UNK N   1      26.736  16.320   4.353  0.00  0.00    -0.337 N 
HETATM   23  C   UNK N   1      27.145  15.769   3.255  0.00  0.00     0.259 C 
ATOM     24  HN  UNK N   1      25.855  16.012   4.765  1.00  0.00     0.164 HD
BRANCH  23  25
HETATM   25  O   UNK N   1      28.394  15.994   2.795  0.00  0.00    -0.327 OA
HETATM   26  H   UNK N   1      29.138  15.544   2.445  0.00  0.00     0.221 HD
ENDBRANCH  23  25
BRANCH  23  27
HETATM   27  O   UNK N   1      26.323  15.012   2.508  0.00  0.00    -0.312 OA
BRANCH  27  28
HETATM   28  C   UNK N   1      26.314  13.645   2.598  0.00  0.00     0.218 C 
BRANCH  28  29
HETATM   29  C   UNK N   1      25.206  13.209   1.746  0.00  0.00    -0.034 A 
HETATM   30  C   UNK N   1      25.223  11.919   1.216  0.00  0.00     0.009 A 
HETATM   31  C   UNK N   1      24.259  11.544   0.282  0.00  0.00     0.001 A 
HETATM   32  C   UNK N   1      23.289  12.464  -0.128  0.00  0.00     0.000 A 
HETATM   33  C   UNK N   1      23.278  13.759   0.402  0.00  0.00     0.001 A 
HETATM   34  C   UNK N   1      24.246  14.135   1.331  0.00  0.00     0.009 A 
ENDBRANCH  28  29
ENDBRANCH  27  28
ENDBRANCH  23  27
ENDBRANCH  14  22
ENDBRANCH  12  14
BRANCH  12  35
HETATM   35  O   UNK N   1      27.983  20.068   3.845  0.00  0.00    -0.348 OA
HETATM   36  H   UNK N   1      28.861  20.335   3.534  0.00  0.00     0.218 HD
ENDBRANCH  12  35
ENDBRANCH  11  12
ENDBRANCH   1  11
BRANCH   1  37
HETATM   37  C   UNK N   1      23.059  19.832   3.344  0.00  0.00     0.116 C 
HETATM   38  N   UNK N   1      21.854  19.458   3.095  0.00  0.00    -0.362 N 
ATOM     39  HN  UNK N   1      21.663  18.464   3.221  1.00  0.00     0.162 HD
BRANCH  38  40
HETATM   40  C   UNK N   1      20.738  20.258   2.660  0.00  0.00     0.161 C 
BRANCH  40  41
HETATM   41  C   UNK N   1      19.570  19.288   2.688  0.00  0.00     0.074 C 
BRANCH  41  42
HETATM   42  C   UNK N   1      19.892  17.918   2.221  0.00  0.00    -0.028 A 
HETATM   43  C   UNK N   1      20.397  17.554   0.982  0.00  0.00     0.096 A 
HETATM   44  N   UNK N   1      20.608  16.214   0.960  0.00  0.00    -0.365 N 
HETATM   45  C   UNK N   1      20.237  15.757   2.171  0.00  0.00     0.042 A 
HETATM   46  H   UNK N   1      20.961  15.682   0.210  0.00  0.00     0.165 HD
HETATM   47  C   UNK N   1      20.283  14.441   2.623  0.00  0.00     0.030 A 
HETATM   48  C   UNK N   1      19.794  16.773   2.963  0.00  0.00    -0.002 A 
HETATM   49  C   UNK N   1      19.844  14.183   3.936  0.00  0.00     0.002 A 
HETATM   50  C   UNK N   1      19.378  15.237   4.755  0.00  0.00     0.001 A 
HETATM   51  C   UNK N   1      19.352  16.556   4.268  0.00  0.00     0.014 A 
ENDBRANCH  41  42
ENDBRANCH  40  41
BRANCH  40  52
HETATM   52  C   UNK N   1      20.886  20.821   1.270  0.00  0.00     0.132 C 
HETATM   53  N   UNK N   1      19.920  21.478   0.739  0.00  0.00    -0.382 N 
HETATM   54  H   UNK N   1      18.961  21.258   0.715  0.00  0.00     0.158 HD
ATOM     55  HN  UNK N   1      20.184  22.349   0.278  1.00  0.00     0.158 HD
BRANCH  52  56
HETATM   56  O   UNK N   1      22.009  20.600   0.561  0.00  0.00    -0.348 OA
HETATM   57  H   UNK N   1      22.855  20.252   0.356  0.00  0.00     0.219 HD
ENDBRANCH  52  56
ENDBRANCH  40  52
ENDBRANCH  38  40
BRANCH  37  58
HETATM   58  O   UNK N   1      23.463  21.100   3.114  0.00  0.00    -0.349 OA
HETATM   59  H   UNK N   1      24.088  21.573   3.627  0.00  0.00     0.219 HD
ENDBRANCH  37  58
ENDBRANCH   1  37
TORSDOF 22
ENDMDL
MODEL 6
REMARK VINA RESULT:      -7.5      9.178     12.569
REMARK  22 active torsions:
REMARK  status: ('A' for Active; 'I' for Inactive)
REMARK    1  A    between atoms: C_19  and  C_12 
REMARK    2  A    between atoms: C_20  and  C_12 
REMARK    3  A    between atoms: C_28  and  C_19 
REMARK    4  A    between atoms: C_31  and  C_20 
REMARK    5  A    between atoms: C_29  and  C_23 
REMARK    6  A    between atoms: C_36  and  C_23 
REMARK    7  A    between atoms: C_32  and  C_24 
REMARK    8  A    between atoms: C_35  and  C_24 
REMARK    9  A    between atoms: C_30  and  C_26 
REMARK   10  A    between atoms: O_52  and  C_26 
REMARK   11  A    between atoms: C_31  and  C_27 
REMARK   12  A    between atoms: P_53  and  C_27 
REMARK   13  A    between atoms: C_31  and  C_38 
REMARK   14  A    between atoms: C_37  and  C_35 
REMARK   15  A    between atoms: C_35  and  N_43 
REMARK   16  A    between atoms: C_36  and  N_45 
REMARK   17  A    between atoms: P_53  and  C_36 
REMARK   18  A    between atoms: O_47  and  C_37 
REMARK   19  A    between atoms: C_38  and  O_48 
REMARK   20  A    between atoms: C_39  and  O_49 
REMARK   21  A    between atoms: O_52  and  C_39 
REMARK   22  A    between atoms: P_53  and  O_50 
ROOT
HETATM    1  C   UNK N   1      21.624  17.839   5.007  0.00  0.00     0.069 C 
ENDROOT
BRANCH   1   2
HETATM    2  C   UNK N   1      23.119  18.147   5.124  0.00  0.00     0.013 C 
BRANCH   2   3
HETATM    3  C   UNK N   1      24.039  17.171   4.382  0.00  0.00     0.005 C 
BRANCH   3   4
HETATM    4  C   UNK N   1      24.913  16.317   5.308  0.00  0.00     0.038 C 
BRANCH   4   5
HETATM    5  C   UNK N   1      25.743  15.289   4.598  0.00  0.00    -0.058 A 
HETATM    6  C   UNK N   1      25.616  15.075   3.215  0.00  0.00     0.007 A 
HETATM    7  C   UNK N   1      26.419  14.138   2.566  0.00  0.00     0.001 A 
HETATM    8  C   UNK N   1      27.363  13.411   3.294  0.00  0.00     0.000 A 
HETATM    9  C   UNK N   1      27.502  13.626   4.669  0.00  0.00     0.001 A 
HETATM   10  C   UNK N   1      26.695  14.565   5.318  0.00  0.00     0.007 A 
ENDBRANCH   4   5
ENDBRANCH   3   4
ENDBRANCH   2   3
ENDBRANCH   1   2
BRANCH   1  11
HETATM   11  C   UNK N   1      21.454  16.457   4.362  0.00  0.00     0.109 C 
BRANCH  11  12
HETATM   12  P   UNK N   1      20.157  16.405   3.070  0.00  0.00     0.122 P 
HETATM   13  O   UNK N   1      20.801  17.072   1.824  0.00  0.00    -0.672 OA
BRANCH  12  14
HETATM   14  C   UNK N   1      19.529  14.718   2.572  0.00  0.00     0.172 C 
BRANCH  14  15
HETATM   15  C   UNK N   1      19.951  14.490   1.120  0.00  0.00     0.073 C 
BRANCH  15  16
HETATM   16  C   UNK N   1      21.151  13.612   0.939  0.00  0.00    -0.056 A 
HETATM   17  C   UNK N   1      20.975  12.226   0.820  0.00  0.00     0.007 A 
HETATM   18  C   UNK N   1      22.076  11.391   0.604  0.00  0.00     0.001 A 
HETATM   19  C   UNK N   1      23.357  11.940   0.495  0.00  0.00     0.000 A 
HETATM   20  C   UNK N   1      23.537  13.322   0.610  0.00  0.00     0.001 A 
HETATM   21  C   UNK N   1      22.436  14.159   0.831  0.00  0.00     0.007 A 
ENDBRANCH  15  16
ENDBRANCH  14  15
BRANCH  14  22
HETATM   22  N   UNK N   1      20.161  13.783   3.472  0.00  0.00    -0.337 N 
HETATM   23  C   UNK N   1      19.564  13.357   4.540  0.00  0.00     0.259 C 
ATOM     24  HN  UNK N   1      21.102  13.451   3.263  1.00  0.00     0.164 HD
BRANCH  23  25
HETATM   25  O   UNK N   1      18.253  13.603   4.742  0.00  0.00    -0.327 OA
HETATM   26  H   UNK N   1      17.668  14.001   5.357  0.00  0.00     0.221 HD
ENDBRANCH  23  25
BRANCH  23  27
HETATM   27  O   UNK N   1      20.242  12.713   5.505  0.00  0.00    -0.312 OA
BRANCH  27  28
HETATM   28  C   UNK N   1      20.566  11.387   5.404  0.00  0.00     0.218 C 
BRANCH  28  29
HETATM   29  C   UNK N   1      22.029  11.339   5.471  0.00  0.00    -0.034 A 
HETATM   30  C   UNK N   1      22.776  11.986   4.487  0.00  0.00     0.009 A 
HETATM   31  C   UNK N   1      24.159  11.819   4.449  0.00  0.00     0.001 A 
HETATM   32  C   UNK N   1      24.789  10.996   5.389  0.00  0.00     0.000 A 
HETATM   33  C   UNK N   1      24.035  10.345   6.371  0.00  0.00     0.001 A 
HETATM   34  C   UNK N   1      22.652  10.507   6.404  0.00  0.00     0.009 A 
ENDBRANCH  28  29
ENDBRANCH  27  28
ENDBRANCH  23  27
ENDBRANCH  14  22
ENDBRANCH  12  14
BRANCH  12  35
HETATM   35  O   UNK N   1      18.861  17.510   3.408  0.00  0.00    -0.348 OA
HETATM   36  H   UNK N   1      17.950  17.776   3.607  0.00  0.00     0.218 HD
ENDBRANCH  12  35
ENDBRANCH  11  12
ENDBRANCH   1  11
BRANCH   1  37
HETATM   37  C   UNK N   1      21.076  17.818   6.408  0.00  0.00     0.116 C 
HETATM   38  N   UNK N   1      20.657  16.690   6.861  0.00  0.00    -0.362 N 
ATOM     39  HN  UNK N   1      20.615  15.928   6.184  1.00  0.00     0.162 HD
BRANCH  38  40
HETATM   40  C   UNK N   1      20.237  16.360   8.199  0.00  0.00     0.161 C 
BRANCH  40  41
HETATM   41  C   UNK N   1      20.017  14.858   8.145  0.00  0.00     0.074 C 
BRANCH  41  42
HETATM   42  C   UNK N   1      20.899  14.072   9.040  0.00  0.00    -0.028 A 
HETATM   43  C   UNK N   1      20.545  13.450  10.228  0.00  0.00     0.096 A 
HETATM   44  N   UNK N   1      21.619  12.786  10.724  0.00  0.00    -0.365 N 
HETATM   45  C   UNK N   1      22.623  12.996   9.853  0.00  0.00     0.042 A 
HETATM   46  H   UNK N   1      21.657  12.257  11.554  0.00  0.00     0.165 HD
HETATM   47  C   UNK N   1      23.923  12.504   9.934  0.00  0.00     0.030 A 
HETATM   48  C   UNK N   1      22.216  13.779   8.815  0.00  0.00    -0.002 A 
HETATM   49  C   UNK N   1      24.821  12.848   8.905  0.00  0.00     0.002 A 
HETATM   50  C   UNK N   1      24.399  13.666   7.831  0.00  0.00     0.001 A 
HETATM   51  C   UNK N   1      23.076  14.140   7.778  0.00  0.00     0.014 A 
ENDBRANCH  41  42
ENDBRANCH  40  41
BRANCH  40  52
HETATM   52  C   UNK N   1      18.961  17.035   8.630  0.00  0.00     0.132 C 
HETATM   53  N   UNK N   1      19.008  18.155   9.255  0.00  0.00    -0.382 N 
HETATM   54  H   UNK N   1      19.585  18.420  10.007  0.00  0.00     0.158 HD
ATOM     55  HN  UNK N   1      18.358  18.869   8.926  1.00  0.00     0.158 HD
BRANCH  52  56
HETATM   56  O   UNK N   1      17.769  16.449   8.404  0.00  0.00    -0.348 OA
HETATM   57  H   UNK N   1      16.838  16.367   8.343  0.00  0.00     0.219 HD
ENDBRANCH  52  56
ENDBRANCH  40  52
ENDBRANCH  38  40
BRANCH  37  58
HETATM   58  O   UNK N   1      21.077  18.928   7.178  0.00  0.00    -0.349 OA
HETATM   59  H   UNK N   1      21.100  18.940   8.114  0.00  0.00     0.219 HD
ENDBRANCH  37  58
ENDBRANCH   1  37
TORSDOF 22
ENDMDL
MODEL 7
REMARK VINA RESULT:      -7.4      6.150     11.275
REMARK  22 active torsions:
REMARK  status: ('A' for Active; 'I' for Inactive)
REMARK    1  A    between atoms: C_19  and  C_12 
REMARK    2  A    between atoms: C_20  and  C_12 
REMARK    3  A    between atoms: C_28  and  C_19 
REMARK    4  A    between atoms: C_31  and  C_20 
REMARK    5  A    between atoms: C_29  and  C_23 
REMARK    6  A    between atoms: C_36  and  C_23 
REMARK    7  A    between atoms: C_32  and  C_24 
REMARK    8  A    between atoms: C_35  and  C_24 
REMARK    9  A    between atoms: C_30  and  C_26 
REMARK   10  A    between atoms: O_52  and  C_26 
REMARK   11  A    between atoms: C_31  and  C_27 
REMARK   12  A    between atoms: P_53  and  C_27 
REMARK   13  A    between atoms: C_31  and  C_38 
REMARK   14  A    between atoms: C_37  and  C_35 
REMARK   15  A    between atoms: C_35  and  N_43 
REMARK   16  A    between atoms: C_36  and  N_45 
REMARK   17  A    between atoms: P_53  and  C_36 
REMARK   18  A    between atoms: O_47  and  C_37 
REMARK   19  A    between atoms: C_38  and  O_48 
REMARK   20  A    between atoms: C_39  and  O_49 
REMARK   21  A    between atoms: O_52  and  C_39 
REMARK   22  A    between atoms: P_53  and  O_50 
ROOT
HETATM    1  C   UNK N   1      24.984  17.851   4.246  0.00  0.00     0.069 C 
ENDROOT
BRANCH   1   2
HETATM    2  C   UNK N   1      25.698  16.963   3.224  0.00  0.00     0.013 C 
BRANCH   2   3
HETATM    3  C   UNK N   1      25.479  15.457   3.414  0.00  0.00     0.005 C 
BRANCH   3   4
HETATM    4  C   UNK N   1      26.048  14.599   2.278  0.00  0.00     0.038 C 
BRANCH   4   5
HETATM    5  C   UNK N   1      25.038  13.718   1.605  0.00  0.00    -0.058 A 
HETATM    6  C   UNK N   1      24.165  14.221   0.627  0.00  0.00     0.007 A 
HETATM    7  C   UNK N   1      23.254  13.379  -0.012  0.00  0.00     0.001 A 
HETATM    8  C   UNK N   1      23.216  12.023   0.316  0.00  0.00     0.000 A 
HETATM    9  C   UNK N   1      24.090  11.513   1.281  0.00  0.00     0.001 A 
HETATM   10  C   UNK N   1      25.001  12.358   1.922  0.00  0.00     0.007 A 
ENDBRANCH   4   5
ENDBRANCH   3   4
ENDBRANCH   2   3
ENDBRANCH   1   2
BRANCH   1  11
HETATM   11  C   UNK N   1      24.224  16.955   5.233  0.00  0.00     0.109 C 
BRANCH  11  12
HETATM   12  P   UNK N   1      22.421  17.277   5.278  0.00  0.00     0.122 P 
HETATM   13  O   UNK N   1      22.206  18.503   4.349  0.00  0.00    -0.672 OA
BRANCH  12  14
HETATM   14  C   UNK N   1      21.303  15.899   4.696  0.00  0.00     0.172 C 
BRANCH  14  15
HETATM   15  C   UNK N   1      21.932  15.311   3.432  0.00  0.00     0.073 C 
BRANCH  15  16
HETATM   16  C   UNK N   1      20.972  14.633   2.504  0.00  0.00    -0.056 A 
HETATM   17  C   UNK N   1      20.432  15.353   1.429  0.00  0.00     0.007 A 
HETATM   18  C   UNK N   1      19.570  14.727   0.522  0.00  0.00     0.001 A 
HETATM   19  C   UNK N   1      19.253  13.375   0.680  0.00  0.00     0.000 A 
HETATM   20  C   UNK N   1      19.793  12.652   1.749  0.00  0.00     0.001 A 
HETATM   21  C   UNK N   1      20.651  13.278   2.660  0.00  0.00     0.007 A 
ENDBRANCH  15  16
ENDBRANCH  14  15
BRANCH  14  22
HETATM   22  N   UNK N   1      21.265  14.943   5.777  0.00  0.00    -0.337 N 
HETATM   23  C   UNK N   1      20.206  14.778   6.504  0.00  0.00     0.259 C 
ATOM     24  HN  UNK N   1      22.095  14.383   5.974  1.00  0.00     0.164 HD
BRANCH  23  25
HETATM   25  O   UNK N   1      19.031  15.339   6.147  0.00  0.00    -0.327 OA
HETATM   26  H   UNK N   1      18.571  16.155   6.173  0.00  0.00     0.221 HD
ENDBRANCH  23  25
BRANCH  23  27
HETATM   27  O   UNK N   1      20.256  14.100   7.663  0.00  0.00    -0.312 OA
BRANCH  27  28
HETATM   28  C   UNK N   1      20.297  14.736   8.875  0.00  0.00     0.218 C 
BRANCH  28  29
HETATM   29  C   UNK N   1      21.090  13.863   9.743  0.00  0.00    -0.034 A 
HETATM   30  C   UNK N   1      22.467  13.766   9.536  0.00  0.00     0.009 A 
HETATM   31  C   UNK N   1      23.207  12.826  10.249  0.00  0.00     0.001 A 
HETATM   32  C   UNK N   1      22.568  11.977  11.159  0.00  0.00     0.000 A 
HETATM   33  C   UNK N   1      21.187  12.073  11.360  0.00  0.00     0.001 A 
HETATM   34  C   UNK N   1      20.446  13.010  10.642  0.00  0.00     0.009 A 
ENDBRANCH  28  29
ENDBRANCH  27  28
ENDBRANCH  23  27
ENDBRANCH  14  22
ENDBRANCH  12  14
BRANCH  12  35
HETATM   35  O   UNK N   1      21.916  17.925   6.808  0.00  0.00    -0.348 OA
HETATM   36  H   UNK N   1      22.023  18.375   7.660  0.00  0.00     0.218 HD
ENDBRANCH  12  35
ENDBRANCH  11  12
ENDBRANCH   1  11
BRANCH   1  37
HETATM   37  C   UNK N   1      26.054  18.619   4.974  0.00  0.00     0.116 C 
HETATM   38  N   UNK N   1      26.724  17.989   5.872  0.00  0.00    -0.362 N 
ATOM     39  HN  UNK N   1      26.386  17.054   6.104  1.00  0.00     0.162 HD
BRANCH  38  40
HETATM   40  C   UNK N   1      27.889  18.429   6.596  0.00  0.00     0.161 C 
BRANCH  40  41
HETATM   41  C   UNK N   1      28.674  17.149   6.824  0.00  0.00     0.074 C 
BRANCH  41  42
HETATM   42  C   UNK N   1      29.991  17.102   6.146  0.00  0.00    -0.028 A 
HETATM   43  C   UNK N   1      30.230  16.883   4.798  0.00  0.00     0.096 A 
HETATM   44  N   UNK N   1      31.563  16.970   4.560  0.00  0.00    -0.365 N 
HETATM   45  C   UNK N   1      32.139  17.239   5.747  0.00  0.00     0.042 A 
HETATM   46  H   UNK N   1      32.019  16.858   3.694  0.00  0.00     0.165 HD
HETATM   47  C   UNK N   1      33.495  17.425   6.000  0.00  0.00     0.030 A 
HETATM   48  C   UNK N   1      31.206  17.324   6.736  0.00  0.00    -0.002 A 
HETATM   49  C   UNK N   1      33.883  17.700   7.326  0.00  0.00     0.002 A 
HETATM   50  C   UNK N   1      32.915  17.782   8.353  0.00  0.00     0.001 A 
HETATM   51  C   UNK N   1      31.551  17.595   8.059  0.00  0.00     0.014 A 
ENDBRANCH  41  42
ENDBRANCH  40  41
BRANCH  40  52
HETATM   52  C   UNK N   1      27.584  19.070   7.925  0.00  0.00     0.132 C 
HETATM   53  N   UNK N   1      27.927  18.484   9.014  0.00  0.00    -0.382 N 
HETATM   54  H   UNK N   1      27.817  17.540   9.269  0.00  0.00     0.158 HD
ATOM     55  HN  UNK N   1      28.377  19.078   9.710  1.00  0.00     0.158 HD
BRANCH  52  56
HETATM   56  O   UNK N   1      26.912  20.236   7.982  0.00  0.00    -0.348 OA
HETATM   57  H   UNK N   1      26.227  20.854   7.819  0.00  0.00     0.219 HD
ENDBRANCH  52  56
ENDBRANCH  40  52
ENDBRANCH  38  40
BRANCH  37  58
HETATM   58  O   UNK N   1      26.337  19.900   4.655  0.00  0.00    -0.349 OA
HETATM   59  H   UNK N   1      26.636  20.556   5.253  0.00  0.00     0.219 HD
ENDBRANCH  37  58
ENDBRANCH   1  37
TORSDOF 22
ENDMDL
MODEL 8
REMARK VINA RESULT:      -7.4      6.003     10.622
REMARK  22 active torsions:
REMARK  status: ('A' for Active; 'I' for Inactive)
REMARK    1  A    between atoms: C_19  and  C_12 
REMARK    2  A    between atoms: C_20  and  C_12 
REMARK    3  A    between atoms: C_28  and  C_19 
REMARK    4  A    between atoms: C_31  and  C_20 
REMARK    5  A    between atoms: C_29  and  C_23 
REMARK    6  A    between atoms: C_36  and  C_23 
REMARK    7  A    between atoms: C_32  and  C_24 
REMARK    8  A    between atoms: C_35  and  C_24 
REMARK    9  A    between atoms: C_30  and  C_26 
REMARK   10  A    between atoms: O_52  and  C_26 
REMARK   11  A    between atoms: C_31  and  C_27 
REMARK   12  A    between atoms: P_53  and  C_27 
REMARK   13  A    between atoms: C_31  and  C_38 
REMARK   14  A    between atoms: C_37  and  C_35 
REMARK   15  A    between atoms: C_35  and  N_43 
REMARK   16  A    between atoms: C_36  and  N_45 
REMARK   17  A    between atoms: P_53  and  C_36 
REMARK   18  A    between atoms: O_47  and  C_37 
REMARK   19  A    between atoms: C_38  and  O_48 
REMARK   20  A    between atoms: C_39  and  O_49 
REMARK   21  A    between atoms: O_52  and  C_39 
REMARK   22  A    between atoms: P_53  and  O_50 
ROOT
HETATM    1  C   UNK N   1      22.183  17.330   4.573  0.00  0.00     0.069 C 
ENDROOT
BRANCH   1   2
HETATM    2  C   UNK N   1      20.930  17.266   3.695  0.00  0.00     0.013 C 
BRANCH   2   3
HETATM    3  C   UNK N   1      20.676  15.907   3.032  0.00  0.00     0.005 C 
BRANCH   3   4
HETATM    4  C   UNK N   1      21.348  15.749   1.664  0.00  0.00     0.038 C 
BRANCH   4   5
HETATM    5  C   UNK N   1      21.952  14.396   1.425  0.00  0.00    -0.058 A 
HETATM    6  C   UNK N   1      21.302  13.223   1.842  0.00  0.00     0.007 A 
HETATM    7  C   UNK N   1      21.862  11.972   1.581  0.00  0.00     0.001 A 
HETATM    8  C   UNK N   1      23.074  11.884   0.894  0.00  0.00     0.000 A 
HETATM    9  C   UNK N   1      23.721  13.048   0.466  0.00  0.00     0.001 A 
HETATM   10  C   UNK N   1      23.159  14.302   0.729  0.00  0.00     0.007 A 
ENDBRANCH   4   5
ENDBRANCH   3   4
ENDBRANCH   2   3
ENDBRANCH   1   2
BRANCH   1  11
HETATM   11  C   UNK N   1      22.949  18.619   4.246  0.00  0.00     0.109 C 
BRANCH  11  12
HETATM   12  P   UNK N   1      24.769  18.434   4.330  0.00  0.00     0.122 P 
HETATM   13  O   UNK N   1      25.228  19.446   5.415  0.00  0.00    -0.672 OA
BRANCH  12  14
HETATM   14  C   UNK N   1      25.426  16.747   4.787  0.00  0.00     0.172 C 
BRANCH  14  15
HETATM   15  C   UNK N   1      25.120  15.811   3.617  0.00  0.00     0.073 C 
BRANCH  15  16
HETATM   16  C   UNK N   1      24.764  14.409   4.004  0.00  0.00    -0.056 A 
HETATM   17  C   UNK N   1      23.569  14.171   4.698  0.00  0.00     0.007 A 
HETATM   18  C   UNK N   1      23.193  12.864   5.028  0.00  0.00     0.001 A 
HETATM   19  C   UNK N   1      24.005  11.790   4.656  0.00  0.00     0.000 A 
HETATM   20  C   UNK N   1      25.196  12.022   3.960  0.00  0.00     0.001 A 
HETATM   21  C   UNK N   1      25.576  13.329   3.633  0.00  0.00     0.007 A 
ENDBRANCH  15  16
ENDBRANCH  14  15
BRANCH  14  22
HETATM   22  N   UNK N   1      26.845  16.920   4.986  0.00  0.00    -0.337 N 
HETATM   23  C   UNK N   1      27.379  16.873   6.165  0.00  0.00     0.259 C 
ATOM     24  HN  UNK N   1      27.443  17.084   4.176  1.00  0.00     0.164 HD
BRANCH  23  25
HETATM   25  O   UNK N   1      26.664  16.452   7.229  0.00  0.00    -0.327 OA
HETATM   26  H   UNK N   1      26.118  16.775   7.919  0.00  0.00     0.221 HD
ENDBRANCH  23  25
BRANCH  23  27
HETATM   27  O   UNK N   1      28.635  17.300   6.376  0.00  0.00    -0.312 OA
BRANCH  27  28
HETATM   28  C   UNK N   1      29.215  17.263   7.616  0.00  0.00     0.218 C 
BRANCH  28  29
HETATM   29  C   UNK N   1      30.659  17.296   7.369  0.00  0.00    -0.034 A 
HETATM   30  C   UNK N   1      31.512  17.741   8.380  0.00  0.00     0.009 A 
HETATM   31  C   UNK N   1      32.866  17.926   8.109  0.00  0.00     0.001 A 
HETATM   32  C   UNK N   1      33.361  17.677   6.824  0.00  0.00     0.000 A 
HETATM   33  C   UNK N   1      32.501  17.236   5.812  0.00  0.00     0.001 A 
HETATM   34  C   UNK N   1      31.146  17.058   6.082  0.00  0.00     0.009 A 
ENDBRANCH  28  29
ENDBRANCH  27  28
ENDBRANCH  23  27
ENDBRANCH  14  22
ENDBRANCH  12  14
BRANCH  12  35
HETATM   35  O   UNK N   1      25.551  19.079   2.920  0.00  0.00    -0.348 OA
HETATM   36  H   UNK N   1      26.107  19.693   2.416  0.00  0.00     0.218 HD
ENDBRANCH  12  35
ENDBRANCH  11  12
ENDBRANCH   1  11
BRANCH   1  37
HETATM   37  C   UNK N   1      21.710  17.366   6.000  0.00  0.00     0.116 C 
HETATM   38  N   UNK N   1      21.228  16.279   6.489  0.00  0.00    -0.362 N 
ATOM     39  HN  UNK N   1      21.093  15.516   5.825  1.00  0.00     0.162 HD
BRANCH  38  40
HETATM   40  C   UNK N   1      20.855  15.995   7.851  0.00  0.00     0.161 C 
BRANCH  40  41
HETATM   41  C   UNK N   1      20.597  14.499   7.848  0.00  0.00     0.074 C 
BRANCH  41  42
HETATM   42  C   UNK N   1      21.046  13.791   9.070  0.00  0.00    -0.028 A 
HETATM   43  C   UNK N   1      20.260  13.381  10.136  0.00  0.00     0.096 A 
HETATM   44  N   UNK N   1      21.033  12.720  11.034  0.00  0.00    -0.365 N 
HETATM   45  C   UNK N   1      22.280  12.721  10.528  0.00  0.00     0.042 A 
HETATM   46  H   UNK N   1      20.741  12.319  11.885  0.00  0.00     0.165 HD
HETATM   47  C   UNK N   1      23.418  12.151  11.093  0.00  0.00     0.030 A 
HETATM   48  C   UNK N   1      22.322  13.370   9.330  0.00  0.00    -0.002 A 
HETATM   49  C   UNK N   1      24.631  12.270  10.388  0.00  0.00     0.002 A 
HETATM   50  C   UNK N   1      24.675  12.948   9.148  0.00  0.00     0.001 A 
HETATM   51  C   UNK N   1      23.504  13.507   8.603  0.00  0.00     0.014 A 
ENDBRANCH  41  42
ENDBRANCH  40  41
BRANCH  40  52
HETATM   52  C   UNK N   1      19.615  16.715   8.314  0.00  0.00     0.132 C 
HETATM   53  N   UNK N   1      19.716  17.838   8.926  0.00  0.00    -0.382 N 
HETATM   54  H   UNK N   1      20.323  18.092   9.657  0.00  0.00     0.158 HD
ATOM     55  HN  UNK N   1      19.078  18.569   8.609  1.00  0.00     0.158 HD
BRANCH  52  56
HETATM   56  O   UNK N   1      18.399  16.164   8.131  0.00  0.00    -0.348 OA
HETATM   57  H   UNK N   1      17.466  16.121   8.053  0.00  0.00     0.219 HD
ENDBRANCH  52  56
ENDBRANCH  40  52
ENDBRANCH  38  40
BRANCH  37  58
HETATM   58  O   UNK N   1      21.837  18.480   6.754  0.00  0.00    -0.349 OA
HETATM   59  H   UNK N   1      21.166  18.853   7.290  0.00  0.00     0.219 HD
ENDBRANCH  37  58
ENDBRANCH   1  37
TORSDOF 22
ENDMDL
MODEL 9
REMARK VINA RESULT:      -7.3      8.712     12.568
REMARK  22 active torsions:
REMARK  status: ('A' for Active; 'I' for Inactive)
REMARK    1  A    between atoms: C_19  and  C_12 
REMARK    2  A    between atoms: C_20  and  C_12 
REMARK    3  A    between atoms: C_28  and  C_19 
REMARK    4  A    between atoms: C_31  and  C_20 
REMARK    5  A    between atoms: C_29  and  C_23 
REMARK    6  A    between atoms: C_36  and  C_23 
REMARK    7  A    between atoms: C_32  and  C_24 
REMARK    8  A    between atoms: C_35  and  C_24 
REMARK    9  A    between atoms: C_30  and  C_26 
REMARK   10  A    between atoms: O_52  and  C_26 
REMARK   11  A    between atoms: C_31  and  C_27 
REMARK   12  A    between atoms: P_53  and  C_27 
REMARK   13  A    between atoms: C_31  and  C_38 
REMARK   14  A    between atoms: C_37  and  C_35 
REMARK   15  A    between atoms: C_35  and  N_43 
REMARK   16  A    between atoms: C_36  and  N_45 
REMARK   17  A    between atoms: P_53  and  C_36 
REMARK   18  A    between atoms: O_47  and  C_37 
REMARK   19  A    between atoms: C_38  and  O_48 
REMARK   20  A    between atoms: C_39  and  O_49 
REMARK   21  A    between atoms: O_52  and  C_39 
REMARK   22  A    between atoms: P_53  and  O_50 
ROOT
HETATM    1  C   UNK N   1      22.075  18.004   4.185  0.00  0.00     0.069 C 
ENDROOT
BRANCH   1   2
HETATM    2  C   UNK N   1      23.507  18.516   4.003  0.00  0.00     0.013 C 
BRANCH   2   3
HETATM    3  C   UNK N   1      23.619  19.906   3.366  0.00  0.00     0.005 C 
BRANCH   3   4
HETATM    4  C   UNK N   1      25.044  20.280   2.941  0.00  0.00     0.038 C 
BRANCH   4   5
HETATM    5  C   UNK N   1      26.076  20.097   4.015  0.00  0.00    -0.058 A 
HETATM    6  C   UNK N   1      27.160  19.220   3.844  0.00  0.00     0.007 A 
HETATM    7  C   UNK N   1      28.128  19.088   4.840  0.00  0.00     0.001 A 
HETATM    8  C   UNK N   1      28.024  19.839   6.012  0.00  0.00     0.000 A 
HETATM    9  C   UNK N   1      26.954  20.722   6.183  0.00  0.00     0.001 A 
HETATM   10  C   UNK N   1      25.983  20.852   5.185  0.00  0.00     0.007 A 
ENDBRANCH   4   5
ENDBRANCH   3   4
ENDBRANCH   2   3
ENDBRANCH   1   2
BRANCH   1  11
HETATM   11  C   UNK N   1      21.904  16.717   3.368  0.00  0.00     0.109 C 
BRANCH  11  12
HETATM   12  P   UNK N   1      20.245  16.541   2.613  0.00  0.00     0.122 P 
HETATM   13  O   UNK N   1      20.317  17.348   1.288  0.00  0.00    -0.672 OA
BRANCH  12  14
HETATM   14  C   UNK N   1      19.679  14.807   2.212  0.00  0.00     0.172 C 
BRANCH  14  15
HETATM   15  C   UNK N   1      20.209  14.471   0.818  0.00  0.00     0.073 C 
BRANCH  15  16
HETATM   16  C   UNK N   1      21.458  13.644   0.798  0.00  0.00    -0.056 A 
HETATM   17  C   UNK N   1      21.356  12.249   0.706  0.00  0.00     0.007 A 
HETATM   18  C   UNK N   1      22.510  11.461   0.638  0.00  0.00     0.001 A 
HETATM   19  C   UNK N   1      23.770  12.065   0.651  0.00  0.00     0.000 A 
HETATM   20  C   UNK N   1      23.876  13.457   0.739  0.00  0.00     0.001 A 
HETATM   21  C   UNK N   1      22.723  14.247   0.812  0.00  0.00     0.007 A 
ENDBRANCH  15  16
ENDBRANCH  14  15
BRANCH  14  22
HETATM   22  N   UNK N   1      20.256  13.962   3.230  0.00  0.00    -0.337 N 
HETATM   23  C   UNK N   1      19.531  13.155   3.938  0.00  0.00     0.259 C 
ATOM     24  HN  UNK N   1      21.262  14.001   3.396  1.00  0.00     0.164 HD
BRANCH  23  25
HETATM   25  O   UNK N   1      18.243  12.919   3.611  0.00  0.00    -0.327 OA
HETATM   26  H   UNK N   1      17.413  13.349   3.544  0.00  0.00     0.221 HD
ENDBRANCH  23  25
BRANCH  23  27
HETATM   27  O   UNK N   1      20.016  12.581   5.052  0.00  0.00    -0.312 OA
BRANCH  27  28
HETATM   28  C   UNK N   1      20.344  11.252   5.099  0.00  0.00     0.218 C 
BRANCH  28  29
HETATM   29  C   UNK N   1      21.784  11.219   5.369  0.00  0.00    -0.034 A 
HETATM   30  C   UNK N   1      22.669  11.684   4.397  0.00  0.00     0.009 A 
HETATM   31  C   UNK N   1      24.041  11.515   4.574  0.00  0.00     0.001 A 
HETATM   32  C   UNK N   1      24.522  10.870   5.718  0.00  0.00     0.000 A 
HETATM   33  C   UNK N   1      23.631  10.399   6.689  0.00  0.00     0.001 A 
HETATM   34  C   UNK N   1      22.259  10.563   6.507  0.00  0.00     0.009 A 
ENDBRANCH  28  29
ENDBRANCH  27  28
ENDBRANCH  23  27
ENDBRANCH  14  22
ENDBRANCH  12  14
BRANCH  12  35
HETATM   35  O   UNK N   1      19.039  17.436   3.485  0.00  0.00    -0.348 OA
HETATM   36  H   UNK N   1      18.144  17.666   3.780  0.00  0.00     0.218 HD
ENDBRANCH  12  35
ENDBRANCH  11  12
ENDBRANCH   1  11
BRANCH   1  37
HETATM   37  C   UNK N   1      21.906  17.706   5.650  0.00  0.00     0.116 C 
HETATM   38  N   UNK N   1      21.740  16.476   5.986  0.00  0.00    -0.362 N 
ATOM     39  HN  UNK N   1      21.611  15.820   5.216  1.00  0.00     0.162 HD
BRANCH  38  40
HETATM   40  C   UNK N   1      21.711  15.904   7.307  0.00  0.00     0.161 C 
BRANCH  40  41
HETATM   41  C   UNK N   1      21.996  14.431   7.065  0.00  0.00     0.074 C 
BRANCH  41  42
HETATM   42  C   UNK N   1      23.122  13.882   7.858  0.00  0.00    -0.028 A 
HETATM   43  C   UNK N   1      24.474  13.977   7.568  0.00  0.00     0.096 A 
HETATM   44  N   UNK N   1      25.188  13.394   8.564  0.00  0.00    -0.365 N 
HETATM   45  C   UNK N   1      24.287  12.944   9.456  0.00  0.00     0.042 A 
HETATM   46  H   UNK N   1      26.168  13.315   8.621  0.00  0.00     0.165 HD
HETATM   47  C   UNK N   1      24.547  12.281  10.652  0.00  0.00     0.030 A 
HETATM   48  C   UNK N   1      23.016  13.224   9.053  0.00  0.00    -0.002 A 
HETATM   49  C   UNK N   1      23.447  11.896  11.442  0.00  0.00     0.002 A 
HETATM   50  C   UNK N   1      22.128  12.182  11.021  0.00  0.00     0.001 A 
HETATM   51  C   UNK N   1      21.902  12.860   9.808  0.00  0.00     0.014 A 
ENDBRANCH  41  42
ENDBRANCH  40  41
BRANCH  40  52
HETATM   52  C   UNK N   1      20.387  16.045   8.013  0.00  0.00     0.132 C 
HETATM   53  N   UNK N   1      20.074  17.158   8.570  0.00  0.00    -0.382 N 
HETATM   54  H   UNK N   1      20.621  17.735   9.150  0.00  0.00     0.158 HD
ATOM     55  HN  UNK N   1      19.127  17.490   8.386  1.00  0.00     0.158 HD
BRANCH  52  56
HETATM   56  O   UNK N   1      19.547  14.997   8.104  0.00  0.00    -0.348 OA
HETATM   57  H   UNK N   1      18.809  14.454   7.908  0.00  0.00     0.219 HD
ENDBRANCH  52  56
ENDBRANCH  40  52
ENDBRANCH  38  40
BRANCH  37  58
HETATM   58  O   UNK N   1      21.981  18.685   6.577  0.00  0.00    -0.349 OA
HETATM   59  H   UNK N   1      22.052  18.553   7.502  0.00  0.00     0.219 HD
ENDBRANCH  37  58
ENDBRANCH   1  37
TORSDOF 22
ENDMDL
