REMARK  8 active torsions:
REMARK  status: ('A' for Active; 'I' for Inactive)
REMARK    1  A    between atoms: C_9  and  C_8 
REMARK    2  A    between atoms: C_13  and  C_8 
REMARK    3  A    between atoms: N_23  and  C_9 
REMARK    4  A    between atoms: C_16  and  C_14 
REMARK    5  A    between atoms: C_21  and  C_15 
REMARK    6  A    between atoms: C_22  and  C_17 
REMARK    7  A    between atoms: O_30  and  C_20 
REMARK    8  A    between atoms: N_26  and  C_21 
ROOT
HETATM    1  C   UNK N   1      -2.707   0.037  -0.055  0.00  0.00     0.022 A 
HETATM    2  C   UNK N   1      -0.661  -1.278  -0.056  0.00  0.00     0.025 A 
HETATM    3  C   UNK N   1      -2.062  -1.207  -0.125  0.00  0.00    -0.055 A 
HETATM    4  C   UNK N   1      -1.967   1.225   0.085  0.00  0.00     0.009 A 
HETATM    5  C   UNK N   1       0.097  -0.111   0.094  0.00  0.00     0.043 A 
HETATM    6  C   UNK N   1      -0.560   1.137   0.168  0.00  0.00     0.090 A 
ENDROOT
BRANCH   5   7
HETATM    7  C   UNK N   1       1.583  -0.147   0.122  0.00  0.00     0.119 A 
HETATM    8  N   UNK N   1       2.317   0.988   0.054  0.00  0.00    -0.340 N 
HETATM    9  C   UNK N   1       3.579   0.578   0.062  0.00  0.00     0.060 A 
ATOM     10  HN  UNK N   1       1.975   1.948   0.006  1.00  0.00     0.167 HD
HETATM   11  C   UNK N   1       4.707   1.372  -0.004  0.00  0.00     0.033 A 
HETATM   12  C   UNK N   1       3.617  -0.777   0.140  0.00  0.00     0.061 A 
HETATM   13  C   UNK N   1       5.946   0.726   0.023  0.00  0.00     0.017 A 
HETATM   14  C   UNK N   1       6.025  -0.686   0.119  0.00  0.00     0.009 A 
HETATM   15  C   UNK N   1       4.835  -1.461   0.176  0.00  0.00     0.047 A 
HETATM   16  N   UNK N   1       2.360  -1.269   0.171  0.00  0.00    -0.340 N 
HETATM   17  H   UNK N   1       2.073  -2.209   0.218  0.00  0.00     0.167 HD
BRANCH  14  18
HETATM   18  C   UNK N   1       7.354  -1.329   0.168  0.00  0.00     0.102 C 
HETATM   19  N   UNK N   1       8.419  -0.616   0.106  0.00  0.00    -0.385 N 
HETATM   20  H   UNK N   1       9.302  -1.050   0.058  0.00  0.00     0.157 HD
ATOM     21  HN  UNK N   1       8.352   0.402   0.106  1.00  0.00     0.157 HD
BRANCH  18  22
HETATM   22  N   UNK N   1       7.464  -2.729   0.307  0.00  0.00    -0.385 N 
HETATM   23  H   UNK N   1       6.656  -3.284   0.404  0.00  0.00     0.157 HD
HETATM   24  H   UNK N   1       8.352  -3.153   0.307  0.00  0.00     0.157 HD
ENDBRANCH  18  22
ENDBRANCH  14  18
ENDBRANCH   5   7
BRANCH   6  25
HETATM   25  O   UNK N   1       0.167   2.257   0.332  0.00  0.00    -0.359 OA
HETATM   26  H   UNK N   1       1.095   2.208   0.446  0.00  0.00     0.217 HD
ENDBRANCH   6  25
BRANCH   3  27
HETATM   27  C   UNK N   1      -2.867  -2.440  -0.379  0.00  0.00     0.066 C 
BRANCH  27  28
HETATM   28  C   UNK N   1      -2.650  -3.488   0.696  0.00  0.00     0.234 C 
BRANCH  28  29
HETATM   29  N   UNK N   1      -2.564  -4.797   0.073  0.00  0.00    -0.079 N 
HETATM   30  H   UNK N   1      -3.330  -5.309  -0.364  0.00  0.00     0.274 HD
HETATM   31  H   UNK N   1      -1.649  -5.248   0.073  0.00  0.00     0.274 HD
HETATM   32  H   UNK N   1      -2.422  -5.717  -0.345  0.00  0.00     0.274 HD
ENDBRANCH  28  29
ENDBRANCH  27  28
ENDBRANCH   3  27
BRANCH   4  33
HETATM   33  C   UNK N   1      -2.657   2.557   0.099  0.00  0.00    -0.023 A 
HETATM   34  C   UNK N   1      -4.052   2.650   0.215  0.00  0.00     0.012 A 
HETATM   35  C   UNK N   1      -4.682   3.902   0.209  0.00  0.00     0.001 A 
HETATM   36  C   UNK N   1      -3.928   5.072   0.068  0.00  0.00     0.000 A 
HETATM   37  C   UNK N   1      -2.544   4.994  -0.063  0.00  0.00     0.001 A 
HETATM   38  C   UNK N   1      -1.920   3.750  -0.044  0.00  0.00     0.012 A 
ENDBRANCH   4  33
TORSDOF 8
