REMARK  25 active torsions:
REMARK  status: ('A' for Active; 'I' for Inactive)
REMARK    1  A    between atoms: C_10  and  C_7 
REMARK    2  A    between atoms: C_18  and  C_7 
REMARK    3  A    between atoms: C_9  and  C_8 
REMARK    4  A    between atoms: C_19  and  C_8 
REMARK    5  A    between atoms: C_21  and  C_9 
REMARK    6  A    between atoms: C_22  and  C_10 
REMARK    7  A    between atoms: C_15  and  C_11 
REMARK    8  A    between atoms: N_45  and  C_11 
REMARK    9  A    between atoms: C_20  and  C_12 
REMARK   10  A    between atoms: O_60  and  C_12 
REMARK   11  A    between atoms: C_28  and  C_14 
REMARK   12  A    between atoms: N_45  and  C_16 
REMARK   13  A    between atoms: C_31  and  C_18 
REMARK   14  A    between atoms: C_18  and  N_41 
REMARK       I    between atoms: N_45  and  C_21 
REMARK   15  A    between atoms: O_49  and  C_22 
REMARK   16  A    between atoms: C_27  and  C_24 
REMARK   17  A    between atoms: C_25  and  O_50 
REMARK   18  A    between atoms: C_26  and  O_51 
REMARK   19  A    between atoms: N_33  and  C_27 
REMARK   20  A    between atoms: O_52  and  C_27 
REMARK       I    between atoms: N_41  and  C_28 
REMARK   21  A    between atoms: O_54  and  C_29 
REMARK   22  A    between atoms: C_30  and  N_46 
REMARK   23  A    between atoms: O_56  and  C_31 
REMARK       I    between atoms: N_35  and  C_32 
REMARK   24  A    between atoms: P_62  and  O_58 
REMARK   25  A    between atoms: P_62  and  O_60 
ROOT
HETATM    1  O   UNK N   1      13.647  -8.439  -1.204  0.00  0.00    -0.307 OA
HETATM    2  O   UNK N   1      15.110  -8.770   0.977  0.00  0.00    -0.632 OA
HETATM    3  P   UNK N   1      13.633  -8.660   0.521  0.00  0.00     0.390 P 
HETATM    4  H   UNK N   1      13.758  -8.384  -2.166  0.00  0.00     0.222 HD
ENDROOT
BRANCH   3   5
HETATM    5  O   UNK N   1      12.977  -7.248   1.294  0.00  0.00    -0.307 OA
HETATM    6  H   UNK N   1      13.476  -6.536   1.725  0.00  0.00     0.222 HD
ENDBRANCH   3   5
BRANCH   3   7
HETATM    7  O   UNK N   1      12.795 -10.118   1.030  0.00  0.00    -0.294 OA
BRANCH   7   8
HETATM    8  C   UNK N   1      12.384 -10.771  -0.141  0.00  0.00     0.215 C 
BRANCH   8   9
HETATM    9  C   UNK N   1      10.932 -10.465  -0.549  0.00  0.00     0.180 C 
HETATM   10  C   UNK N   1      10.496  -9.025  -0.269  0.00  0.00     0.182 C 
HETATM   11  C   UNK N   1       9.060  -9.189  -0.521  0.00  0.00     0.198 C 
HETATM   12  C   UNK N   1       8.809 -10.495   0.247  0.00  0.00     0.261 C 
HETATM   13  O   UNK N   1       9.944 -11.327   0.015  0.00  0.00    -0.353 OA
BRANCH  10  14
HETATM   14  O   UNK N   1      10.653  -8.679   1.082  0.00  0.00    -0.390 OA
HETATM   15  H   UNK N   1      10.914  -8.654   2.016  0.00  0.00     0.210 HD
ENDBRANCH  10  14
BRANCH  11  16
HETATM   16  O   UNK N   1       8.850  -9.364  -1.900  0.00  0.00    -0.388 OA
HETATM   17  H   UNK N   1       8.673  -9.298  -2.851  0.00  0.00     0.210 HD
ENDBRANCH  11  16
BRANCH  12  18
HETATM   18  N   UNK N   1       7.506 -11.171   0.010  0.00  0.00    -0.311 N 
HETATM   19  C   UNK N   1       7.273 -12.458   0.344  0.00  0.00     0.186 A 
HETATM   20  N   UNK N   1       5.953 -12.742   0.348  0.00  0.00    -0.347 N 
HETATM   21  C   UNK N   1       5.323 -11.586   0.059  0.00  0.00     0.111 A 
ATOM     22  HN  UNK N   1       5.520 -13.647   0.532  1.00  0.00     0.167 HD
HETATM   23  C   UNK N   1       6.281 -10.600  -0.161  0.00  0.00     0.069 A 
BRANCH  21  24
HETATM   24  C   UNK N   1       3.853 -11.492   0.009  0.00  0.00     0.163 C 
BRANCH  24  25
HETATM   25  N   UNK N   1       3.134 -12.525   0.255  0.00  0.00    -0.378 N 
HETATM   26  H   UNK N   1       2.171 -12.444   0.445  0.00  0.00     0.158 HD
ATOM     27  HN  UNK N   1       3.568 -13.448   0.255  1.00  0.00     0.158 HD
ENDBRANCH  24  25
BRANCH  24  28
HETATM   28  O   UNK N   1       3.253 -10.339  -0.301  0.00  0.00    -0.345 OA
HETATM   29  H   UNK N   1       3.743  -9.571  -0.518  0.00  0.00     0.219 HD
ENDBRANCH  24  28
ENDBRANCH  21  24
BRANCH  23  30
HETATM   30  C   UNK N   1       6.128  -9.151  -0.461  0.00  0.00     0.038 C 
BRANCH  30  31
HETATM   31  C   UNK N   1       5.291  -8.278   0.083  0.00  0.00     0.077 C 
BRANCH  31  32
HETATM   32  C   UNK N   1       5.524  -6.797  -0.146  0.00  0.00     0.248 C 
HETATM   33  N   UNK N   1       4.500  -5.881   0.014  0.00  0.00    -0.309 N 
HETATM   34  O   UNK N   1       6.662  -6.439  -0.383  0.00  0.00    -0.268 OA
BRANCH  33  35
HETATM   35  C   UNK N   1       4.689  -4.494   0.487  0.00  0.00     0.189 C 
BRANCH  35  36
HETATM   36  C   UNK N   1       6.042  -3.835   0.303  0.00  0.00     0.028 A 
HETATM   37  C   UNK N   1       6.124  -2.646  -0.429  0.00  0.00     0.029 A 
HETATM   38  C   UNK N   1       7.376  -2.078  -0.689  0.00  0.00     0.034 A 
HETATM   39  C   UNK N   1       8.530  -2.726  -0.251  0.00  0.00     0.080 A 
HETATM   40  C   UNK N   1       8.413  -3.901   0.504  0.00  0.00     0.112 A 
HETATM   41  N   UNK N   1       9.760  -2.256  -0.586  0.00  0.00    -0.190 N 
HETATM   42  C   UNK N   1       9.578  -4.575   0.879  0.00  0.00     0.184 A 
HETATM   43  N   UNK N   1       7.181  -4.396   0.803  0.00  0.00    -0.353 N 
HETATM   44  N   UNK N   1      10.789  -4.077   0.509  0.00  0.00    -0.169 N 
HETATM   45  C   UNK N   1      10.883  -2.927  -0.212  0.00  0.00     0.678 A 
ATOM     46  HN  UNK N   1      11.640  -4.573   0.776  1.00  0.00     0.186 HD
HETATM   47  N   UNK N   1      12.033  -2.487  -0.562  0.00  0.00    -0.234 N 
HETATM   48  H   UNK N   1      12.768  -3.084  -0.831  0.00  0.00     0.174 HD
ATOM     49  HN  UNK N   1      12.194  -1.480  -0.562  1.00  0.00     0.174 HD
ATOM     50  HN  UNK N   1       7.108  -5.208   1.417  1.00  0.00     0.166 HD
HETATM   51  H   UNK N   1       9.840  -1.423  -1.104  0.00  0.00     0.184 HD
BRANCH  42  52
HETATM   52  O   UNK N   1       9.513  -5.729   1.565  0.00  0.00    -0.344 OA
HETATM   53  H   UNK N   1       8.793  -6.091   2.044  0.00  0.00     0.219 HD
ENDBRANCH  42  52
ENDBRANCH  35  36
ENDBRANCH  33  35
BRANCH  33  54
HETATM   54  C   UNK N   1       3.180  -6.366  -0.248  0.00  0.00     0.037 C 
HETATM   55  C   UNK N   1       3.047  -7.376  -1.211  0.00  0.00     0.031 C 
HETATM   56  C   UNK N   1       1.915  -8.127  -1.297  0.00  0.00     0.019 C 
HETATM   57  C   UNK N   1       0.845  -7.865  -0.464  0.00  0.00     0.032 C 
HETATM   58  C   UNK N   1       0.863  -6.729   0.372  0.00  0.00     0.019 C 
HETATM   59  C   UNK N   1       2.045  -5.961   0.475  0.00  0.00     0.031 C 
BRANCH  57  60
HETATM   60  C   UNK N   1      -0.050  -8.995  -0.207  0.00  0.00     0.252 C 
HETATM   61  N   UNK N   1      -1.304  -8.834   0.277  0.00  0.00    -0.343 N 
HETATM   62  H   UNK N   1      -1.701  -7.933   0.289  0.00  0.00     0.163 HD
HETATM   63  O   UNK N   1       0.433 -10.115  -0.290  0.00  0.00    -0.268 OA
BRANCH  61  64
HETATM   64  C   UNK N   1      -2.079  -9.958   0.779  0.00  0.00     0.183 C 
BRANCH  64  65
HETATM   65  C   UNK N   1      -3.337  -9.429   1.483  0.00  0.00     0.046 C 
BRANCH  65  66
HETATM   66  C   UNK N   1      -4.517  -8.999   0.604  0.00  0.00     0.112 C 
BRANCH  66  67
HETATM   67  C   UNK N   1      -4.295  -7.751  -0.187  0.00  0.00     0.139 C 
HETATM   68  O   UNK N   1      -4.713  -7.682  -1.331  0.00  0.00    -0.650 OA
BRANCH  67  69
HETATM   69  O   UNK N   1      -3.725  -6.673   0.383  0.00  0.00    -0.776 OA
HETATM   70  H   UNK N   1      -2.877  -6.642   0.780  0.00  0.00     0.167 HD
ENDBRANCH  67  69
ENDBRANCH  66  67
ENDBRANCH  65  66
ENDBRANCH  64  65
BRANCH  64  71
HETATM   71  C   UNK N   1      -2.365 -11.060  -0.249  0.00  0.00     0.163 C 
HETATM   72  O   UNK N   1      -3.509 -11.414  -0.476  0.00  0.00    -0.648 OA
BRANCH  71  73
HETATM   73  O   UNK N   1      -1.358 -11.718  -0.857  0.00  0.00    -0.775 OA
HETATM   74  H   UNK N   1      -1.405 -12.553  -1.280  0.00  0.00     0.167 HD
ENDBRANCH  71  73
ENDBRANCH  64  71
ENDBRANCH  61  64
ENDBRANCH  57  60
ENDBRANCH  33  54
ENDBRANCH  31  32
ENDBRANCH  30  31
ENDBRANCH  23  30
ENDBRANCH  12  18
ENDBRANCH   8   9
ENDBRANCH   7   8
ENDBRANCH   3   7
TORSDOF 25
