MODEL 1
REMARK VINA RESULT:      -6.7      0.000      0.000
REMARK  10 active torsions:
REMARK  status: ('A' for Active; 'I' for Inactive)
REMARK    1  A    between atoms: C_8  and  C_6 
REMARK    2  A    between atoms: O_19  and  C_6 
REMARK    3  A    between atoms: C_12  and  C_7 
REMARK    4  A    between atoms: C_9  and  O_20 
REMARK    5  A    between atoms: C_10  and  O_21 
REMARK    6  A    between atoms: C_11  and  O_22 
REMARK    7  A    between atoms: O_23  and  C_12 
REMARK    8  A    between atoms: C_13  and  N_17 
REMARK    9  A    between atoms: N_15  and  C_14 
REMARK   10  A    between atoms: C_14  and  O_24 
ROOT
HETATM    1  C   UNK N   1      33.679  15.997   9.830  0.00  0.00     0.221 C 
HETATM    2  N   UNK N   1      34.473  15.093  10.310  0.00  0.00    -0.327 N 
ATOM      3  HN  UNK N   1      34.109  14.147  10.428  1.00  0.00     0.165 HD
ENDROOT
BRANCH   2   4
HETATM    4  C   UNK N   1      35.858  15.348  10.686  0.00  0.00     0.255 C 
HETATM    5  C   UNK N   1      36.924  14.503   9.933  0.00  0.00     0.198 C 
HETATM    6  C   UNK N   1      36.929  13.051  10.423  0.00  0.00     0.182 C 
HETATM    7  C   UNK N   1      37.060  13.045  11.951  0.00  0.00     0.180 C 
HETATM    8  C   UNK N   1      35.917  13.892  12.551  0.00  0.00     0.179 C 
HETATM    9  O   UNK N   1      36.012  15.236  12.096  0.00  0.00    -0.354 OA
BRANCH   5  10
HETATM   10  O   UNK N   1      38.182  15.063  10.179  0.00  0.00    -0.389 OA
HETATM   11  H   UNK N   1      39.136  15.209  10.272  0.00  0.00     0.210 HD
ENDBRANCH   5  10
BRANCH   6  12
HETATM   12  O   UNK N   1      35.747  12.411  10.038  0.00  0.00    -0.390 OA
HETATM   13  H   UNK N   1      35.069  11.806   9.697  0.00  0.00     0.210 HD
ENDBRANCH   6  12
BRANCH   7  14
HETATM   14  O   UNK N   1      37.022  11.727  12.417  0.00  0.00    -0.390 OA
HETATM   15  H   UNK N   1      36.442  11.289  13.059  0.00  0.00     0.210 HD
ENDBRANCH   7  14
BRANCH   8  16
HETATM   16  C   UNK N   1      35.996  13.923  14.077  0.00  0.00     0.198 C 
BRANCH  16  17
HETATM   17  O   UNK N   1      37.291  13.648  14.521  0.00  0.00    -0.398 OA
HETATM   18  H   UNK N   1      38.154  14.087  14.463  0.00  0.00     0.209 HD
ENDBRANCH  16  17
ENDBRANCH   8  16
ENDBRANCH   2   4
BRANCH   1  19
HETATM   19  N   UNK N   1      34.162  17.302   9.525  0.00  0.00    -0.302 N 
HETATM   20  C   UNK N   1      34.505  17.797   8.375  0.00  0.00     0.153 C 
ATOM     21  HN  UNK N   1      34.250  17.934  10.320  1.00  0.00     0.171 HD
BRANCH  20  22
HETATM   22  C   UNK N   1      34.252  17.147   7.052  0.00  0.00     0.015 A 
HETATM   23  C   UNK N   1      34.883  15.961   6.647  0.00  0.00     0.016 A 
HETATM   24  C   UNK N   1      34.552  15.357   5.429  0.00  0.00     0.001 A 
HETATM   25  C   UNK N   1      33.579  15.928   4.605  0.00  0.00     0.000 A 
HETATM   26  C   UNK N   1      32.938  17.103   4.999  0.00  0.00     0.001 A 
HETATM   27  C   UNK N   1      33.266  17.702   6.217  0.00  0.00     0.016 A 
ENDBRANCH  20  22
BRANCH  20  28
HETATM   28  O   UNK N   1      35.076  19.017   8.369  0.00  0.00    -0.345 OA
HETATM   29  H   UNK N   1      35.653  19.377   9.014  0.00  0.00     0.219 HD
ENDBRANCH  20  28
ENDBRANCH   1  19
BRANCH   1  30
HETATM   30  O   UNK N   1      32.399  15.669   9.561  0.00  0.00    -0.332 OA
HETATM   31  H   UNK N   1      31.488  15.667   9.781  0.00  0.00     0.220 HD
ENDBRANCH   1  30
TORSDOF 10
ENDMDL
MODEL 2
REMARK VINA RESULT:      -6.6      1.515      2.040
REMARK  10 active torsions:
REMARK  status: ('A' for Active; 'I' for Inactive)
REMARK    1  A    between atoms: C_8  and  C_6 
REMARK    2  A    between atoms: O_19  and  C_6 
REMARK    3  A    between atoms: C_12  and  C_7 
REMARK    4  A    between atoms: C_9  and  O_20 
REMARK    5  A    between atoms: C_10  and  O_21 
REMARK    6  A    between atoms: C_11  and  O_22 
REMARK    7  A    between atoms: O_23  and  C_12 
REMARK    8  A    between atoms: C_13  and  N_17 
REMARK    9  A    between atoms: N_15  and  C_14 
REMARK   10  A    between atoms: C_14  and  O_24 
ROOT
HETATM    1  C   UNK N   1      34.208  15.050  11.099  0.00  0.00     0.221 C 
HETATM    2  N   UNK N   1      34.906  14.004  11.409  0.00  0.00    -0.327 N 
ATOM      3  HN  UNK N   1      34.425  13.105  11.464  1.00  0.00     0.165 HD
ENDROOT
BRANCH   2   4
HETATM    4  C   UNK N   1      36.337  14.035  11.679  0.00  0.00     0.255 C 
HETATM    5  C   UNK N   1      37.129  12.767  11.252  0.00  0.00     0.198 C 
HETATM    6  C   UNK N   1      36.851  11.594  12.198  0.00  0.00     0.182 C 
HETATM    7  C   UNK N   1      37.095  12.053  13.641  0.00  0.00     0.180 C 
HETATM    8  C   UNK N   1      36.217  13.292  13.923  0.00  0.00     0.179 C 
HETATM    9  O   UNK N   1      36.572  14.354  13.047  0.00  0.00    -0.354 OA
BRANCH   5  10
HETATM   10  O   UNK N   1      38.494  13.065  11.298  0.00  0.00    -0.389 OA
HETATM   11  H   UNK N   1      39.395  13.273  11.592  0.00  0.00     0.210 HD
ENDBRANCH   5  10
BRANCH   6  12
HETATM   12  O   UNK N   1      35.530  11.159  12.048  0.00  0.00    -0.390 OA
HETATM   13  H   UNK N   1      34.699  10.744  11.766  0.00  0.00     0.210 HD
ENDBRANCH   6  12
BRANCH   7  14
HETATM   14  O   UNK N   1      36.803  11.006  14.520  0.00  0.00    -0.390 OA
HETATM   15  H   UNK N   1      36.767  10.046  14.386  0.00  0.00     0.210 HD
ENDBRANCH   7  14
BRANCH   8  16
HETATM   16  C   UNK N   1      36.419  13.797  15.352  0.00  0.00     0.198 C 
BRANCH  16  17
HETATM   17  O   UNK N   1      37.619  14.501  15.474  0.00  0.00    -0.398 OA
HETATM   18  H   UNK N   1      37.874  15.434  15.539  0.00  0.00     0.209 HD
ENDBRANCH  16  17
ENDBRANCH   8  16
ENDBRANCH   2   4
BRANCH   1  19
HETATM   19  N   UNK N   1      34.840  16.309  10.885  0.00  0.00    -0.302 N 
HETATM   20  C   UNK N   1      34.898  17.019   9.798  0.00  0.00     0.153 C 
ATOM     21  HN  UNK N   1      35.313  16.707  11.695  1.00  0.00     0.171 HD
BRANCH  20  22
HETATM   22  C   UNK N   1      34.102  16.758   8.560  0.00  0.00     0.015 A 
HETATM   23  C   UNK N   1      32.857  17.355   8.309  0.00  0.00     0.016 A 
HETATM   24  C   UNK N   1      32.191  17.132   7.100  0.00  0.00     0.001 A 
HETATM   25  C   UNK N   1      32.766  16.317   6.122  0.00  0.00     0.000 A 
HETATM   26  C   UNK N   1      34.007  15.725   6.354  0.00  0.00     0.001 A 
HETATM   27  C   UNK N   1      34.674  15.951   7.561  0.00  0.00     0.016 A 
ENDBRANCH  20  22
BRANCH  20  28
HETATM   28  O   UNK N   1      35.689  18.110   9.811  0.00  0.00    -0.345 OA
HETATM   29  H   UNK N   1      36.226  18.414  10.516  0.00  0.00     0.219 HD
ENDBRANCH  20  28
ENDBRANCH   1  19
BRANCH   1  30
HETATM   30  O   UNK N   1      32.879  14.921  10.917  0.00  0.00    -0.332 OA
HETATM   31  H   UNK N   1      32.138  14.468  10.564  0.00  0.00     0.220 HD
ENDBRANCH   1  30
TORSDOF 10
ENDMDL
MODEL 3
REMARK VINA RESULT:      -6.5      2.799      7.472
REMARK  10 active torsions:
REMARK  status: ('A' for Active; 'I' for Inactive)
REMARK    1  A    between atoms: C_8  and  C_6 
REMARK    2  A    between atoms: O_19  and  C_6 
REMARK    3  A    between atoms: C_12  and  C_7 
REMARK    4  A    between atoms: C_9  and  O_20 
REMARK    5  A    between atoms: C_10  and  O_21 
REMARK    6  A    between atoms: C_11  and  O_22 
REMARK    7  A    between atoms: O_23  and  C_12 
REMARK    8  A    between atoms: C_13  and  N_17 
REMARK    9  A    between atoms: N_15  and  C_14 
REMARK   10  A    between atoms: C_14  and  O_24 
ROOT
HETATM    1  C   UNK N   1      34.972  12.494  13.083  0.00  0.00     0.221 C 
HETATM    2  N   UNK N   1      34.806  13.493  12.275  0.00  0.00    -0.327 N 
ATOM      3  HN  UNK N   1      33.857  13.834  12.121  1.00  0.00     0.165 HD
ENDROOT
BRANCH   2   4
HETATM    4  C   UNK N   1      35.897  14.161  11.577  0.00  0.00     0.255 C 
HETATM    5  C   UNK N   1      35.667  15.664  11.253  0.00  0.00     0.198 C 
HETATM    6  C   UNK N   1      34.664  15.837  10.107  0.00  0.00     0.182 C 
HETATM    7  C   UNK N   1      35.118  14.982   8.918  0.00  0.00     0.180 C 
HETATM    8  C   UNK N   1      35.268  13.518   9.388  0.00  0.00     0.179 C 
HETATM    9  O   UNK N   1      36.254  13.429  10.409  0.00  0.00    -0.354 OA
BRANCH   5  10
HETATM   10  O   UNK N   1      36.889  16.223  10.867  0.00  0.00    -0.389 OA
HETATM   11  H   UNK N   1      37.583  16.824  10.556  0.00  0.00     0.210 HD
ENDBRANCH   5  10
BRANCH   6  12
HETATM   12  O   UNK N   1      33.388  15.445  10.523  0.00  0.00    -0.390 OA
HETATM   13  H   UNK N   1      32.607  15.137  11.011  0.00  0.00     0.210 HD
ENDBRANCH   6  12
BRANCH   7  14
HETATM   14  O   UNK N   1      34.189  15.095   7.880  0.00  0.00    -0.390 OA
HETATM   15  H   UNK N   1      33.658  14.429   7.417  0.00  0.00     0.210 HD
ENDBRANCH   7  14
BRANCH   8  16
HETATM   16  C   UNK N   1      35.721  12.615   8.241  0.00  0.00     0.198 C 
BRANCH  16  17
HETATM   17  O   UNK N   1      36.417  13.340   7.272  0.00  0.00    -0.398 OA
HETATM   18  H   UNK N   1      36.890  14.186   7.243  0.00  0.00     0.209 HD
ENDBRANCH  16  17
ENDBRANCH   8  16
ENDBRANCH   2   4
BRANCH   1  19
HETATM   19  N   UNK N   1      36.280  12.053  13.436  0.00  0.00    -0.302 N 
HETATM   20  C   UNK N   1      37.034  12.440  14.420  0.00  0.00     0.153 C 
ATOM     21  HN  UNK N   1      36.679  11.335  12.833  1.00  0.00     0.171 HD
BRANCH  20  22
HETATM   22  C   UNK N   1      36.586  13.305  15.555  0.00  0.00     0.015 A 
HETATM   23  C   UNK N   1      35.670  12.878  16.528  0.00  0.00     0.016 A 
HETATM   24  C   UNK N   1      35.343  13.703  17.610  0.00  0.00     0.001 A 
HETATM   25  C   UNK N   1      35.937  14.961  17.737  0.00  0.00     0.000 A 
HETATM   26  C   UNK N   1      36.858  15.394  16.782  0.00  0.00     0.001 A 
HETATM   27  C   UNK N   1      37.186  14.568  15.704  0.00  0.00     0.016 A 
ENDBRANCH  20  22
BRANCH  20  28
HETATM   28  O   UNK N   1      38.299  11.976  14.453  0.00  0.00    -0.345 OA
HETATM   29  H   UNK N   1      38.855  11.897  15.203  0.00  0.00     0.219 HD
ENDBRANCH  20  28
ENDBRANCH   1  19
BRANCH   1  30
HETATM   30  O   UNK N   1      33.889  11.915  13.640  0.00  0.00    -0.332 OA
HETATM   31  H   UNK N   1      33.439  11.555  14.379  0.00  0.00     0.220 HD
ENDBRANCH   1  30
TORSDOF 10
ENDMDL
MODEL 4
REMARK VINA RESULT:      -6.5      1.842      3.351
REMARK  10 active torsions:
REMARK  status: ('A' for Active; 'I' for Inactive)
REMARK    1  A    between atoms: C_8  and  C_6 
REMARK    2  A    between atoms: O_19  and  C_6 
REMARK    3  A    between atoms: C_12  and  C_7 
REMARK    4  A    between atoms: C_9  and  O_20 
REMARK    5  A    between atoms: C_10  and  O_21 
REMARK    6  A    between atoms: C_11  and  O_22 
REMARK    7  A    between atoms: O_23  and  C_12 
REMARK    8  A    between atoms: C_13  and  N_17 
REMARK    9  A    between atoms: N_15  and  C_14 
REMARK   10  A    between atoms: C_14  and  O_24 
ROOT
HETATM    1  C   UNK N   1      34.184  17.564   8.155  0.00  0.00     0.221 C 
HETATM    2  N   UNK N   1      34.925  16.738   8.822  0.00  0.00    -0.327 N 
ATOM      3  HN  UNK N   1      35.920  16.949   8.912  1.00  0.00     0.165 HD
ENDROOT
BRANCH   2   4
HETATM    4  C   UNK N   1      34.421  15.526   9.456  0.00  0.00     0.255 C 
HETATM    5  C   UNK N   1      34.644  15.429  10.992  0.00  0.00     0.198 C 
HETATM    6  C   UNK N   1      36.112  15.139  11.323  0.00  0.00     0.182 C 
HETATM    7  C   UNK N   1      36.566  13.911  10.525  0.00  0.00     0.180 C 
HETATM    8  C   UNK N   1      36.314  14.172   9.024  0.00  0.00     0.179 C 
HETATM    9  O   UNK N   1      34.927  14.376   8.787  0.00  0.00    -0.354 OA
BRANCH   5  10
HETATM   10  O   UNK N   1      33.858  14.383  11.485  0.00  0.00    -0.389 OA
HETATM   11  H   UNK N   1      33.117  13.830  11.776  0.00  0.00     0.210 HD
ENDBRANCH   5  10
BRANCH   6  12
HETATM   12  O   UNK N   1      36.904  16.245  10.998  0.00  0.00    -0.390 OA
HETATM   13  H   UNK N   1      37.268  17.129  10.831  0.00  0.00     0.210 HD
ENDBRANCH   6  12
BRANCH   7  14
HETATM   14  O   UNK N   1      37.916  13.660  10.784  0.00  0.00    -0.390 OA
HETATM   15  H   UNK N   1      38.446  13.761  11.589  0.00  0.00     0.210 HD
ENDBRANCH   7  14
BRANCH   8  16
HETATM   16  C   UNK N   1      36.749  12.978   8.176  0.00  0.00     0.198 C 
BRANCH  16  17
HETATM   17  O   UNK N   1      38.100  13.065   7.835  0.00  0.00    -0.398 OA
HETATM   18  H   UNK N   1      38.678  12.658   7.170  0.00  0.00     0.209 HD
ENDBRANCH  16  17
ENDBRANCH   8  16
ENDBRANCH   2   4
BRANCH   1  19
HETATM   19  N   UNK N   1      32.770  17.391   8.099  0.00  0.00    -0.302 N 
HETATM   20  C   UNK N   1      32.022  17.117   7.074  0.00  0.00     0.153 C 
ATOM     21  HN  UNK N   1      32.280  17.498   8.986  1.00  0.00     0.171 HD
BRANCH  20  22
HETATM   22  C   UNK N   1      32.527  16.697   5.731  0.00  0.00     0.015 A 
HETATM   23  C   UNK N   1      33.128  15.452   5.493  0.00  0.00     0.016 A 
HETATM   24  C   UNK N   1      33.515  15.082   4.201  0.00  0.00     0.001 A 
HETATM   25  C   UNK N   1      33.296  15.950   3.128  0.00  0.00     0.000 A 
HETATM   26  C   UNK N   1      32.691  17.188   3.349  0.00  0.00     0.001 A 
HETATM   27  C   UNK N   1      32.302  17.554   4.639  0.00  0.00     0.016 A 
ENDBRANCH  20  22
BRANCH  20  28
HETATM   28  O   UNK N   1      30.686  17.153   7.253  0.00  0.00    -0.345 OA
HETATM   29  H   UNK N   1      30.131  17.908   7.234  0.00  0.00     0.219 HD
ENDBRANCH  20  28
ENDBRANCH   1  19
BRANCH   1  30
HETATM   30  O   UNK N   1      34.759  18.631   7.565  0.00  0.00    -0.332 OA
HETATM   31  H   UNK N   1      35.379  19.005   6.971  0.00  0.00     0.220 HD
ENDBRANCH   1  30
TORSDOF 10
ENDMDL
MODEL 5
REMARK VINA RESULT:      -6.5      1.808      2.252
REMARK  10 active torsions:
REMARK  status: ('A' for Active; 'I' for Inactive)
REMARK    1  A    between atoms: C_8  and  C_6 
REMARK    2  A    between atoms: O_19  and  C_6 
REMARK    3  A    between atoms: C_12  and  C_7 
REMARK    4  A    between atoms: C_9  and  O_20 
REMARK    5  A    between atoms: C_10  and  O_21 
REMARK    6  A    between atoms: C_11  and  O_22 
REMARK    7  A    between atoms: O_23  and  C_12 
REMARK    8  A    between atoms: C_13  and  N_17 
REMARK    9  A    between atoms: N_15  and  C_14 
REMARK   10  A    between atoms: C_14  and  O_24 
ROOT
HETATM    1  C   UNK N   1      32.478  14.716   8.924  0.00  0.00     0.221 C 
HETATM    2  N   UNK N   1      33.671  14.571   9.408  0.00  0.00    -0.327 N 
ATOM      3  HN  UNK N   1      34.238  13.797   9.063  1.00  0.00     0.165 HD
ENDROOT
BRANCH   2   4
HETATM    4  C   UNK N   1      34.251  15.453  10.413  0.00  0.00     0.255 C 
HETATM    5  C   UNK N   1      35.644  16.046  10.061  0.00  0.00     0.198 C 
HETATM    6  C   UNK N   1      36.744  14.986  10.178  0.00  0.00     0.182 C 
HETATM    7  C   UNK N   1      36.652  14.327  11.560  0.00  0.00     0.180 C 
HETATM    8  C   UNK N   1      35.228  13.758  11.745  0.00  0.00     0.179 C 
HETATM    9  O   UNK N   1      34.270  14.807  11.681  0.00  0.00    -0.354 OA
BRANCH   5  10
HETATM   10  O   UNK N   1      35.921  17.080  10.961  0.00  0.00    -0.389 OA
HETATM   11  H   UNK N   1      36.151  17.592  11.752  0.00  0.00     0.210 HD
ENDBRANCH   5  10
BRANCH   6  12
HETATM   12  O   UNK N   1      36.592  14.024   9.175  0.00  0.00    -0.390 OA
HETATM   13  H   UNK N   1      36.336  13.506   8.395  0.00  0.00     0.210 HD
ENDBRANCH   6  12
BRANCH   7  14
HETATM   14  O   UNK N   1      37.623  13.326  11.665  0.00  0.00    -0.390 OA
HETATM   15  H   UNK N   1      37.555  12.359  11.634  0.00  0.00     0.210 HD
ENDBRANCH   7  14
BRANCH   8  16
HETATM   16  C   UNK N   1      35.076  13.087  13.109  0.00  0.00     0.198 C 
BRANCH  16  17
HETATM   17  O   UNK N   1      35.821  13.752  14.086  0.00  0.00    -0.398 OA
HETATM   18  H   UNK N   1      36.541  13.516  14.692  0.00  0.00     0.209 HD
ENDBRANCH  16  17
ENDBRANCH   8  16
ENDBRANCH   2   4
BRANCH   1  19
HETATM   19  N   UNK N   1      31.684  15.848   9.273  0.00  0.00    -0.302 N 
HETATM   20  C   UNK N   1      31.498  16.949   8.610  0.00  0.00     0.153 C 
ATOM     21  HN  UNK N   1      31.196  15.784  10.165  1.00  0.00     0.171 HD
BRANCH  20  22
HETATM   22  C   UNK N   1      31.918  17.179   7.193  0.00  0.00     0.015 A 
HETATM   23  C   UNK N   1      33.250  17.413   6.817  0.00  0.00     0.016 A 
HETATM   24  C   UNK N   1      33.597  17.548   5.469  0.00  0.00     0.001 A 
HETATM   25  C   UNK N   1      32.617  17.440   4.479  0.00  0.00     0.000 A 
HETATM   26  C   UNK N   1      31.291  17.197   4.838  0.00  0.00     0.001 A 
HETATM   27  C   UNK N   1      30.947  17.059   6.184  0.00  0.00     0.016 A 
ENDBRANCH  20  22
BRANCH  20  28
HETATM   28  O   UNK N   1      30.818  17.936   9.224  0.00  0.00    -0.345 OA
HETATM   29  H   UNK N   1      30.809  18.846   8.998  0.00  0.00     0.219 HD
ENDBRANCH  20  28
ENDBRANCH   1  19
BRANCH   1  30
HETATM   30  O   UNK N   1      32.017  13.815   8.034  0.00  0.00    -0.332 OA
HETATM   31  H   UNK N   1      31.709  13.590   7.179  0.00  0.00     0.220 HD
ENDBRANCH   1  30
TORSDOF 10
ENDMDL
MODEL 6
REMARK VINA RESULT:      -6.2      2.051      2.540
REMARK  10 active torsions:
REMARK  status: ('A' for Active; 'I' for Inactive)
REMARK    1  A    between atoms: C_8  and  C_6 
REMARK    2  A    between atoms: O_19  and  C_6 
REMARK    3  A    between atoms: C_12  and  C_7 
REMARK    4  A    between atoms: C_9  and  O_20 
REMARK    5  A    between atoms: C_10  and  O_21 
REMARK    6  A    between atoms: C_11  and  O_22 
REMARK    7  A    between atoms: O_23  and  C_12 
REMARK    8  A    between atoms: C_13  and  N_17 
REMARK    9  A    between atoms: N_15  and  C_14 
REMARK   10  A    between atoms: C_14  and  O_24 
ROOT
HETATM    1  C   UNK N   1      33.440  14.604   8.610  0.00  0.00     0.221 C 
HETATM    2  N   UNK N   1      33.736  14.319   9.839  0.00  0.00    -0.327 N 
ATOM      3  HN  UNK N   1      33.302  13.496  10.259  1.00  0.00     0.165 HD
ENDROOT
BRANCH   2   4
HETATM    4  C   UNK N   1      34.655  15.102  10.655  0.00  0.00     0.255 C 
HETATM    5  C   UNK N   1      36.117  15.181  10.132  0.00  0.00     0.198 C 
HETATM    6  C   UNK N   1      36.856  13.856  10.351  0.00  0.00     0.182 C 
HETATM    7  C   UNK N   1      36.718  13.450  11.823  0.00  0.00     0.180 C 
HETATM    8  C   UNK N   1      35.216  13.382  12.180  0.00  0.00     0.179 C 
HETATM    9  O   UNK N   1      34.613  14.657  12.006  0.00  0.00    -0.354 OA
BRANCH   5  10
HETATM   10  O   UNK N   1      36.782  16.187  10.837  0.00  0.00    -0.389 OA
HETATM   11  H   UNK N   1      37.451  16.721  11.294  0.00  0.00     0.210 HD
ENDBRANCH   5  10
BRANCH   6  12
HETATM   12  O   UNK N   1      36.320  12.865   9.524  0.00  0.00    -0.390 OA
HETATM   13  H   UNK N   1      36.136  12.063   9.008  0.00  0.00     0.210 HD
ENDBRANCH   6  12
BRANCH   7  14
HETATM   14  O   UNK N   1      37.351  12.220  12.029  0.00  0.00    -0.390 OA
HETATM   15  H   UNK N   1      38.110  11.807  11.590  0.00  0.00     0.210 HD
ENDBRANCH   7  14
BRANCH   8  16
HETATM   16  C   UNK N   1      35.015  12.979  13.640  0.00  0.00     0.198 C 
BRANCH  16  17
HETATM   17  O   UNK N   1      36.029  13.495  14.451  0.00  0.00    -0.398 OA
HETATM   18  H   UNK N   1      36.923  13.218  14.706  0.00  0.00     0.209 HD
ENDBRANCH  16  17
ENDBRANCH   8  16
ENDBRANCH   2   4
BRANCH   1  19
HETATM   19  N   UNK N   1      34.105  15.664   7.929  0.00  0.00    -0.302 N 
HETATM   20  C   UNK N   1      33.596  16.715   7.361  0.00  0.00     0.153 C 
ATOM     21  HN  UNK N   1      35.120  15.586   7.881  1.00  0.00     0.171 HD
BRANCH  20  22
HETATM   22  C   UNK N   1      32.175  17.159   7.495  0.00  0.00     0.015 A 
HETATM   23  C   UNK N   1      31.166  16.784   6.594  0.00  0.00     0.016 A 
HETATM   24  C   UNK N   1      29.839  17.167   6.810  0.00  0.00     0.001 A 
HETATM   25  C   UNK N   1      29.501  17.923   7.935  0.00  0.00     0.000 A 
HETATM   26  C   UNK N   1      30.492  18.295   8.845  0.00  0.00     0.001 A 
HETATM   27  C   UNK N   1      31.817  17.908   8.630  0.00  0.00     0.016 A 
ENDBRANCH  20  22
BRANCH  20  28
HETATM   28  O   UNK N   1      34.428  17.500   6.648  0.00  0.00    -0.345 OA
HETATM   29  H   UNK N   1      34.772  18.335   6.896  0.00  0.00     0.219 HD
ENDBRANCH  20  28
ENDBRANCH   1  19
BRANCH   1  30
HETATM   30  O   UNK N   1      32.538  13.842   7.960  0.00  0.00    -0.332 OA
HETATM   31  H   UNK N   1      31.985  13.088   7.909  0.00  0.00     0.220 HD
ENDBRANCH   1  30
TORSDOF 10
ENDMDL
MODEL 7
REMARK VINA RESULT:      -6.2      2.635      4.249
REMARK  10 active torsions:
REMARK  status: ('A' for Active; 'I' for Inactive)
REMARK    1  A    between atoms: C_8  and  C_6 
REMARK    2  A    between atoms: O_19  and  C_6 
REMARK    3  A    between atoms: C_12  and  C_7 
REMARK    4  A    between atoms: C_9  and  O_20 
REMARK    5  A    between atoms: C_10  and  O_21 
REMARK    6  A    between atoms: C_11  and  O_22 
REMARK    7  A    between atoms: O_23  and  C_12 
REMARK    8  A    between atoms: C_13  and  N_17 
REMARK    9  A    between atoms: N_15  and  C_14 
REMARK   10  A    between atoms: C_14  and  O_24 
ROOT
HETATM    1  C   UNK N   1      33.848  16.631   7.359  0.00  0.00     0.221 C 
HETATM    2  N   UNK N   1      34.298  16.487   8.565  0.00  0.00    -0.327 N 
ATOM      3  HN  UNK N   1      34.805  17.266   8.984  1.00  0.00     0.165 HD
ENDROOT
BRANCH   2   4
HETATM    4  C   UNK N   1      34.117  15.278   9.359  0.00  0.00     0.255 C 
HETATM    5  C   UNK N   1      34.450  15.412  10.871  0.00  0.00     0.198 C 
HETATM    6  C   UNK N   1      35.964  15.485  11.101  0.00  0.00     0.182 C 
HETATM    7  C   UNK N   1      36.630  14.298  10.396  0.00  0.00     0.180 C 
HETATM    8  C   UNK N   1      36.233  14.321   8.903  0.00  0.00     0.179 C 
HETATM    9  O   UNK N   1      34.823  14.193   8.768  0.00  0.00    -0.354 OA
BRANCH   5  10
HETATM   10  O   UNK N   1      33.950  14.287  11.533  0.00  0.00    -0.389 OA
HETATM   11  H   UNK N   1      33.863  13.445  12.007  0.00  0.00     0.210 HD
ENDBRANCH   5  10
BRANCH   6  12
HETATM   12  O   UNK N   1      36.468  16.689  10.599  0.00  0.00    -0.390 OA
HETATM   13  H   UNK N   1      36.956  17.511  10.431  0.00  0.00     0.210 HD
ENDBRANCH   6  12
BRANCH   7  14
HETATM   14  O   UNK N   1      38.016  14.375  10.560  0.00  0.00    -0.390 OA
HETATM   15  H   UNK N   1      38.559  14.752  11.270  0.00  0.00     0.210 HD
ENDBRANCH   7  14
BRANCH   8  16
HETATM   16  C   UNK N   1      36.870  13.156   8.145  0.00  0.00     0.198 C 
BRANCH  16  17
HETATM   17  O   UNK N   1      37.116  12.076   8.995  0.00  0.00    -0.398 OA
HETATM   18  H   UNK N   1      36.862  11.829   9.898  0.00  0.00     0.209 HD
ENDBRANCH  16  17
ENDBRANCH   8  16
ENDBRANCH   2   4
BRANCH   1  19
HETATM   19  N   UNK N   1      33.027  15.630   6.764  0.00  0.00    -0.302 N 
HETATM   20  C   UNK N   1      31.737  15.490   6.826  0.00  0.00     0.153 C 
ATOM     21  HN  UNK N   1      33.519  14.927   6.215  1.00  0.00     0.171 HD
BRANCH  20  22
HETATM   22  C   UNK N   1      30.789  16.508   7.374  0.00  0.00     0.015 A 
HETATM   23  C   UNK N   1      30.806  16.929   8.713  0.00  0.00     0.016 A 
HETATM   24  C   UNK N   1      29.944  17.939   9.153  0.00  0.00     0.001 A 
HETATM   25  C   UNK N   1      29.062  18.548   8.258  0.00  0.00     0.000 A 
HETATM   26  C   UNK N   1      29.042  18.146   6.922  0.00  0.00     0.001 A 
HETATM   27  C   UNK N   1      29.905  17.140   6.482  0.00  0.00     0.016 A 
ENDBRANCH  20  22
BRANCH  20  28
HETATM   28  O   UNK N   1      31.208  14.368   6.299  0.00  0.00    -0.345 OA
HETATM   29  H   UNK N   1      31.471  13.931   5.513  0.00  0.00     0.219 HD
ENDBRANCH  20  28
ENDBRANCH   1  19
BRANCH   1  30
HETATM   30  O   UNK N   1      34.114  17.772   6.692  0.00  0.00    -0.332 OA
HETATM   31  H   UNK N   1      34.718  18.398   6.345  0.00  0.00     0.220 HD
ENDBRANCH   1  30
TORSDOF 10
ENDMDL
MODEL 8
REMARK VINA RESULT:      -6.0     11.731     14.779
REMARK  10 active torsions:
REMARK  status: ('A' for Active; 'I' for Inactive)
REMARK    1  A    between atoms: C_8  and  C_6 
REMARK    2  A    between atoms: O_19  and  C_6 
REMARK    3  A    between atoms: C_12  and  C_7 
REMARK    4  A    between atoms: C_9  and  O_20 
REMARK    5  A    between atoms: C_10  and  O_21 
REMARK    6  A    between atoms: C_11  and  O_22 
REMARK    7  A    between atoms: O_23  and  C_12 
REMARK    8  A    between atoms: C_13  and  N_17 
REMARK    9  A    between atoms: N_15  and  C_14 
REMARK   10  A    between atoms: C_14  and  O_24 
ROOT
HETATM    1  C   UNK N   1      24.061  14.025   6.666  0.00  0.00     0.221 C 
HETATM    2  N   UNK N   1      23.494  15.147   6.357  0.00  0.00    -0.327 N 
ATOM      3  HN  UNK N   1      24.009  16.010   6.535  1.00  0.00     0.165 HD
ENDROOT
BRANCH   2   4
HETATM    4  C   UNK N   1      22.166  15.249   5.767  0.00  0.00     0.255 C 
HETATM    5  C   UNK N   1      21.942  16.464   4.822  0.00  0.00     0.198 C 
HETATM    6  C   UNK N   1      21.825  17.770   5.616  0.00  0.00     0.182 C 
HETATM    7  C   UNK N   1      20.760  17.593   6.704  0.00  0.00     0.180 C 
HETATM    8  C   UNK N   1      21.138  16.376   7.577  0.00  0.00     0.179 C 
HETATM    9  O   UNK N   1      21.171  15.196   6.784  0.00  0.00    -0.354 OA
BRANCH   5  10
HETATM   10  O   UNK N   1      20.752  16.259   4.117  0.00  0.00    -0.389 OA
HETATM   11  H   UNK N   1      19.840  16.043   3.869  0.00  0.00     0.210 HD
ENDBRANCH   5  10
BRANCH   6  12
HETATM   12  O   UNK N   1      23.056  18.092   6.194  0.00  0.00    -0.390 OA
HETATM   13  H   UNK N   1      23.781  18.429   6.744  0.00  0.00     0.210 HD
ENDBRANCH   6  12
BRANCH   7  14
HETATM   14  O   UNK N   1      20.672  18.763   7.465  0.00  0.00    -0.390 OA
HETATM   15  H   UNK N   1      20.269  18.938   8.330  0.00  0.00     0.210 HD
ENDBRANCH   7  14
BRANCH   8  16
HETATM   16  C   UNK N   1      20.108  16.150   8.684  0.00  0.00     0.198 C 
BRANCH  16  17
HETATM   17  O   UNK N   1      18.810  16.373   8.219  0.00  0.00    -0.398 OA
HETATM   18  H   UNK N   1      17.965  16.638   8.617  0.00  0.00     0.209 HD
ENDBRANCH  16  17
ENDBRANCH   8  16
ENDBRANCH   2   4
BRANCH   1  19
HETATM   19  N   UNK N   1      23.448  12.783   6.330  0.00  0.00    -0.302 N 
HETATM   20  C   UNK N   1      22.913  11.898   7.115  0.00  0.00     0.153 C 
ATOM     21  HN  UNK N   1      23.428  12.559   5.336  1.00  0.00     0.171 HD
BRANCH  20  22
HETATM   22  C   UNK N   1      22.625  12.103   8.568  0.00  0.00     0.015 A 
HETATM   23  C   UNK N   1      21.434  12.674   9.040  0.00  0.00     0.016 A 
HETATM   24  C   UNK N   1      21.186  12.773  10.413  0.00  0.00     0.001 A 
HETATM   25  C   UNK N   1      22.122  12.293  11.331  0.00  0.00     0.000 A 
HETATM   26  C   UNK N   1      23.307  11.714  10.876  0.00  0.00     0.001 A 
HETATM   27  C   UNK N   1      23.552  11.612   9.504  0.00  0.00     0.016 A 
ENDBRANCH  20  22
BRANCH  20  28
HETATM   28  O   UNK N   1      22.532  10.729   6.564  0.00  0.00    -0.345 OA
HETATM   29  H   UNK N   1      21.967  10.082   6.940  0.00  0.00     0.219 HD
ENDBRANCH  20  28
ENDBRANCH   1  19
BRANCH   1  30
HETATM   30  O   UNK N   1      25.274  14.043   7.255  0.00  0.00    -0.332 OA
HETATM   31  H   UNK N   1      25.826  13.919   8.002  0.00  0.00     0.220 HD
ENDBRANCH   1  30
TORSDOF 10
ENDMDL
MODEL 9
REMARK VINA RESULT:      -5.9     13.955     17.019
REMARK  10 active torsions:
REMARK  status: ('A' for Active; 'I' for Inactive)
REMARK    1  A    between atoms: C_8  and  C_6 
REMARK    2  A    between atoms: O_19  and  C_6 
REMARK    3  A    between atoms: C_12  and  C_7 
REMARK    4  A    between atoms: C_9  and  O_20 
REMARK    5  A    between atoms: C_10  and  O_21 
REMARK    6  A    between atoms: C_11  and  O_22 
REMARK    7  A    between atoms: O_23  and  C_12 
REMARK    8  A    between atoms: C_13  and  N_17 
REMARK    9  A    between atoms: N_15  and  C_14 
REMARK   10  A    between atoms: C_14  and  O_24 
ROOT
HETATM    1  C   UNK N   1      22.030  13.929   4.405  0.00  0.00     0.221 C 
HETATM    2  N   UNK N   1      21.540  14.890   3.689  0.00  0.00    -0.327 N 
ATOM      3  HN  UNK N   1      22.165  15.645   3.405  1.00  0.00     0.165 HD
ENDROOT
BRANCH   2   4
HETATM    4  C   UNK N   1      20.148  14.955   3.262  0.00  0.00     0.255 C 
HETATM    5  C   UNK N   1      19.850  14.369   1.853  0.00  0.00     0.198 C 
HETATM    6  C   UNK N   1      20.361  15.298   0.746  0.00  0.00     0.182 C 
HETATM    7  C   UNK N   1      19.809  16.708   0.990  0.00  0.00     0.180 C 
HETATM    8  C   UNK N   1      20.215  17.162   2.410  0.00  0.00     0.179 C 
HETATM    9  O   UNK N   1      19.659  16.286   3.382  0.00  0.00    -0.354 OA
BRANCH   5  10
HETATM   10  O   UNK N   1      18.465  14.231   1.718  0.00  0.00    -0.389 OA
HETATM   11  H   UNK N   1      17.574  13.892   1.539  0.00  0.00     0.210 HD
ENDBRANCH   5  10
BRANCH   6  12
HETATM   12  O   UNK N   1      21.759  15.321   0.747  0.00  0.00    -0.390 OA
HETATM   13  H   UNK N   1      22.705  15.211   0.934  0.00  0.00     0.210 HD
ENDBRANCH   6  12
BRANCH   7  14
HETATM   14  O   UNK N   1      20.302  17.578   0.013  0.00  0.00    -0.390 OA
HETATM   15  H   UNK N   1      19.865  18.028  -0.726  0.00  0.00     0.210 HD
ENDBRANCH   7  14
BRANCH   8  16
HETATM   16  C   UNK N   1      19.691  18.566   2.711  0.00  0.00     0.198 C 
BRANCH  16  17
HETATM   17  O   UNK N   1      18.364  18.708   2.300  0.00  0.00    -0.398 OA
HETATM   18  H   UNK N   1      17.493  18.607   2.715  0.00  0.00     0.209 HD
ENDBRANCH  16  17
ENDBRANCH   8  16
ENDBRANCH   2   4
BRANCH   1  19
HETATM   19  N   UNK N   1      21.241  12.787   4.728  0.00  0.00    -0.302 N 
HETATM   20  C   UNK N   1      20.869  12.356   5.896  0.00  0.00     0.153 C 
ATOM     21  HN  UNK N   1      20.927  12.231   3.934  1.00  0.00     0.171 HD
BRANCH  20  22
HETATM   22  C   UNK N   1      21.012  13.115   7.176  0.00  0.00     0.015 A 
HETATM   23  C   UNK N   1      20.460  14.389   7.378  0.00  0.00     0.016 A 
HETATM   24  C   UNK N   1      20.563  15.022   8.621  0.00  0.00     0.001 A 
HETATM   25  C   UNK N   1      21.211  14.383   9.682  0.00  0.00     0.000 A 
HETATM   26  C   UNK N   1      21.756  13.112   9.498  0.00  0.00     0.001 A 
HETATM   27  C   UNK N   1      21.650  12.480   8.256  0.00  0.00     0.016 A 
ENDBRANCH  20  22
BRANCH  20  28
HETATM   28  O   UNK N   1      20.248  11.161   5.948  0.00  0.00    -0.345 OA
HETATM   29  H   UNK N   1      19.640  10.810   5.327  0.00  0.00     0.219 HD
ENDBRANCH  20  28
ENDBRANCH   1  19
BRANCH   1  30
HETATM   30  O   UNK N   1      23.320  13.990   4.789  0.00  0.00    -0.332 OA
HETATM   31  H   UNK N   1      24.169  14.387   4.757  0.00  0.00     0.220 HD
ENDBRANCH   1  30
TORSDOF 10
ENDMDL
