MODEL 1
REMARK VINA RESULT:      -5.3      0.000      0.000
REMARK  2 active torsions:
REMARK  status: ('A' for Active; 'I' for Inactive)
REMARK    1  A    between atoms: C_5  and  O_6 
REMARK    2  A    between atoms: C_7  and  N_9 
ROOT
HETATM    1  C   UNK N   1      33.042  17.165   3.859  0.00  0.00     0.048 C 
HETATM    2  C   UNK N   1      32.664  17.284   5.290  0.00  0.00    -0.059 A 
HETATM    3  C   UNK N   1      31.347  17.058   5.692  0.00  0.00     0.009 A 
HETATM    4  C   UNK N   1      30.999  17.171   7.040  0.00  0.00     0.039 A 
HETATM    5  C   UNK N   1      31.966  17.511   7.994  0.00  0.00     0.098 A 
HETATM    6  C   UNK N   1      33.306  17.742   7.590  0.00  0.00     0.136 A 
HETATM    7  C   UNK N   1      33.632  17.622   6.233  0.00  0.00     0.045 A 
ENDROOT
BRANCH   6   8
HETATM    8  N   UNK N   1      34.335  18.091   8.518  0.00  0.00    -0.113 N 
HETATM    9  O   UNK N   1      35.057  19.174   8.314  0.00  0.00    -0.532 OA
HETATM   10  O   UNK N   1      34.553  17.417   9.477  0.00  0.00    -0.532 OA
ENDBRANCH   6   8
BRANCH   5  11
HETATM   11  O   UNK N   1      31.596  17.611   9.284  0.00  0.00    -0.358 OA
HETATM   12  H   UNK N   1      30.806  17.202   9.577  0.00  0.00     0.217 HD
ENDBRANCH   5  11
TORSDOF 2
ENDMDL
MODEL 2
REMARK VINA RESULT:      -5.2     11.054     12.228
REMARK  2 active torsions:
REMARK  status: ('A' for Active; 'I' for Inactive)
REMARK    1  A    between atoms: C_5  and  O_6 
REMARK    2  A    between atoms: C_7  and  N_9 
ROOT
HETATM    1  C   UNK N   1      29.354  21.299  -6.791  0.00  0.00     0.048 C 
HETATM    2  C   UNK N   1      30.207  21.292  -5.575  0.00  0.00    -0.059 A 
HETATM    3  C   UNK N   1      31.195  20.320  -5.413  0.00  0.00     0.009 A 
HETATM    4  C   UNK N   1      31.994  20.320  -4.268  0.00  0.00     0.039 A 
HETATM    5  C   UNK N   1      31.809  21.292  -3.276  0.00  0.00     0.098 A 
HETATM    6  C   UNK N   1      30.806  22.281  -3.436  0.00  0.00     0.136 A 
HETATM    7  C   UNK N   1      30.017  22.262  -4.594  0.00  0.00     0.045 A 
ENDROOT
BRANCH   6   8
HETATM    8  N   UNK N   1      30.571  23.297  -2.459  0.00  0.00    -0.113 N 
HETATM    9  O   UNK N   1      30.583  24.565  -2.819  0.00  0.00    -0.532 OA
HETATM   10  O   UNK N   1      30.363  23.018  -1.319  0.00  0.00    -0.532 OA
ENDBRANCH   6   8
BRANCH   5  11
HETATM   11  O   UNK N   1      32.596  21.262  -2.185  0.00  0.00    -0.358 OA
HETATM   12  H   UNK N   1      32.766  22.052  -1.710  0.00  0.00     0.217 HD
ENDBRANCH   5  11
TORSDOF 2
ENDMDL
MODEL 3
REMARK VINA RESULT:      -5.2      1.310      2.881
REMARK  2 active torsions:
REMARK  status: ('A' for Active; 'I' for Inactive)
REMARK    1  A    between atoms: C_5  and  O_6 
REMARK    2  A    between atoms: C_7  and  N_9 
ROOT
HETATM    1  C   UNK N   1      29.663  17.601   8.751  0.00  0.00     0.048 C 
HETATM    2  C   UNK N   1      30.932  17.550   7.981  0.00  0.00    -0.059 A 
HETATM    3  C   UNK N   1      30.924  17.183   6.634  0.00  0.00     0.009 A 
HETATM    4  C   UNK N   1      32.121  17.137   5.916  0.00  0.00     0.039 A 
HETATM    5  C   UNK N   1      33.333  17.459   6.539  0.00  0.00     0.098 A 
HETATM    6  C   UNK N   1      33.346  17.833   7.907  0.00  0.00     0.136 A 
HETATM    7  C   UNK N   1      32.133  17.872   8.608  0.00  0.00     0.045 A 
ENDROOT
BRANCH   6   8
HETATM    8  N   UNK N   1      34.550  18.172   8.597  0.00  0.00    -0.113 N 
HETATM    9  O   UNK N   1      34.906  17.488   9.665  0.00  0.00    -0.532 OA
HETATM   10  O   UNK N   1      35.243  19.068   8.221  0.00  0.00    -0.532 OA
ENDBRANCH   6   8
BRANCH   5  11
HETATM   11  O   UNK N   1      34.468  17.405   5.818  0.00  0.00    -0.358 OA
HETATM   12  H   UNK N   1      34.721  16.603   5.404  0.00  0.00     0.217 HD
ENDBRANCH   5  11
TORSDOF 2
ENDMDL
MODEL 4
REMARK VINA RESULT:      -4.8     10.950     12.616
REMARK  2 active torsions:
REMARK  status: ('A' for Active; 'I' for Inactive)
REMARK    1  A    between atoms: C_5  and  O_6 
REMARK    2  A    between atoms: C_7  and  N_9 
ROOT
HETATM    1  C   UNK N   1      22.968  11.737  12.721  0.00  0.00     0.048 C 
HETATM    2  C   UNK N   1      23.001  12.273  11.337  0.00  0.00    -0.059 A 
HETATM    3  C   UNK N   1      24.205  12.331  10.632  0.00  0.00     0.009 A 
HETATM    4  C   UNK N   1      24.228  12.836   9.331  0.00  0.00     0.039 A 
HETATM    5  C   UNK N   1      23.049  13.287   8.725  0.00  0.00     0.098 A 
HETATM    6  C   UNK N   1      21.824  13.230   9.436  0.00  0.00     0.136 A 
HETATM    7  C   UNK N   1      21.823  12.719  10.741  0.00  0.00     0.045 A 
ENDROOT
BRANCH   6   8
HETATM    8  N   UNK N   1      20.589  13.675   8.871  0.00  0.00    -0.113 N 
HETATM    9  O   UNK N   1      19.643  14.147   9.658  0.00  0.00    -0.532 OA
HETATM   10  O   UNK N   1      20.399  13.628   7.695  0.00  0.00    -0.532 OA
ENDBRANCH   6   8
BRANCH   5  11
HETATM   11  O   UNK N   1      23.108  13.768   7.470  0.00  0.00    -0.358 OA
HETATM   12  H   UNK N   1      22.823  14.643   7.291  0.00  0.00     0.217 HD
ENDBRANCH   5  11
TORSDOF 2
ENDMDL
MODEL 5
REMARK VINA RESULT:      -4.7     11.707     12.761
REMARK  2 active torsions:
REMARK  status: ('A' for Active; 'I' for Inactive)
REMARK    1  A    between atoms: C_5  and  O_6 
REMARK    2  A    between atoms: C_7  and  N_9 
ROOT
HETATM    1  C   UNK N   1      30.276  19.977  -6.668  0.00  0.00     0.048 C 
HETATM    2  C   UNK N   1      29.971  21.151  -5.811  0.00  0.00    -0.059 A 
HETATM    3  C   UNK N   1      29.103  22.147  -6.262  0.00  0.00     0.009 A 
HETATM    4  C   UNK N   1      28.821  23.248  -5.451  0.00  0.00     0.039 A 
HETATM    5  C   UNK N   1      29.405  23.361  -4.183  0.00  0.00     0.098 A 
HETATM    6  C   UNK N   1      30.287  22.352  -3.720  0.00  0.00     0.136 A 
HETATM    7  C   UNK N   1      30.556  21.256  -4.551  0.00  0.00     0.045 A 
ENDROOT
BRANCH   6   8
HETATM    8  N   UNK N   1      30.912  22.412  -2.436  0.00  0.00    -0.113 N 
HETATM    9  O   UNK N   1      32.069  21.811  -2.244  0.00  0.00    -0.532 OA
HETATM   10  O   UNK N   1      30.404  23.000  -1.532  0.00  0.00    -0.532 OA
ENDBRANCH   6   8
BRANCH   5  11
HETATM   11  O   UNK N   1      29.111  24.434  -3.427  0.00  0.00    -0.358 OA
HETATM   12  H   UNK N   1      29.113  24.363  -2.493  0.00  0.00     0.217 HD
ENDBRANCH   5  11
TORSDOF 2
ENDMDL
MODEL 6
REMARK VINA RESULT:      -4.7     11.706     12.837
REMARK  2 active torsions:
REMARK  status: ('A' for Active; 'I' for Inactive)
REMARK    1  A    between atoms: C_5  and  O_6 
REMARK    2  A    between atoms: C_7  and  N_9 
ROOT
HETATM    1  C   UNK N   1      28.142  24.032  -6.063  0.00  0.00     0.048 C 
HETATM    2  C   UNK N   1      29.031  22.943  -5.582  0.00  0.00    -0.059 A 
HETATM    3  C   UNK N   1      29.232  21.802  -6.360  0.00  0.00     0.009 A 
HETATM    4  C   UNK N   1      30.069  20.783  -5.901  0.00  0.00     0.039 A 
HETATM    5  C   UNK N   1      30.710  20.898  -4.662  0.00  0.00     0.098 A 
HETATM    6  C   UNK N   1      30.509  22.056  -3.867  0.00  0.00     0.136 A 
HETATM    7  C   UNK N   1      29.665  23.066  -4.347  0.00  0.00     0.045 A 
ENDROOT
BRANCH   6   8
HETATM    8  N   UNK N   1      31.135  22.229  -2.595  0.00  0.00    -0.113 N 
HETATM    9  O   UNK N   1      30.545  22.959  -1.670  0.00  0.00    -0.532 OA
HETATM   10  O   UNK N   1      32.188  21.724  -2.354  0.00  0.00    -0.532 OA
ENDBRANCH   6   8
BRANCH   5  11
HETATM   11  O   UNK N   1      31.510  19.898  -4.250  0.00  0.00    -0.358 OA
HETATM   12  H   UNK N   1      31.204  19.289  -3.605  0.00  0.00     0.217 HD
ENDBRANCH   5  11
TORSDOF 2
ENDMDL
MODEL 7
REMARK VINA RESULT:      -4.6     16.153     17.057
REMARK  2 active torsions:
REMARK  status: ('A' for Active; 'I' for Inactive)
REMARK    1  A    between atoms: C_5  and  O_6 
REMARK    2  A    between atoms: C_7  and  N_9 
ROOT
HETATM    1  C   UNK N   1      28.307  28.472  -7.628  0.00  0.00     0.048 C 
HETATM    2  C   UNK N   1      27.563  28.279  -6.357  0.00  0.00    -0.059 A 
HETATM    3  C   UNK N   1      27.359  29.353  -5.490  0.00  0.00     0.009 A 
HETATM    4  C   UNK N   1      26.658  29.165  -4.297  0.00  0.00     0.039 A 
HETATM    5  C   UNK N   1      26.156  27.901  -3.964  0.00  0.00     0.098 A 
HETATM    6  C   UNK N   1      26.360  26.806  -4.842  0.00  0.00     0.136 A 
HETATM    7  C   UNK N   1      27.067  27.018  -6.033  0.00  0.00     0.045 A 
ENDROOT
BRANCH   6   8
HETATM    8  N   UNK N   1      25.872  25.494  -4.556  0.00  0.00    -0.113 N 
HETATM    9  O   UNK N   1      25.087  24.886  -5.421  0.00  0.00    -0.532 OA
HETATM   10  O   UNK N   1      26.164  24.937  -3.542  0.00  0.00    -0.532 OA
ENDBRANCH   6   8
BRANCH   5  11
HETATM   11  O   UNK N   1      25.485  27.754  -2.807  0.00  0.00    -0.358 OA
HETATM   12  H   UNK N   1      25.876  27.286  -2.095  0.00  0.00     0.217 HD
ENDBRANCH   5  11
TORSDOF 2
ENDMDL
MODEL 8
REMARK VINA RESULT:      -4.6     11.419     12.381
REMARK  2 active torsions:
REMARK  status: ('A' for Active; 'I' for Inactive)
REMARK    1  A    between atoms: C_5  and  O_6 
REMARK    2  A    between atoms: C_7  and  N_9 
ROOT
HETATM    1  C   UNK N   1      44.312  18.665   2.409  0.00  0.00     0.048 C 
HETATM    2  C   UNK N   1      44.109  20.076   2.825  0.00  0.00    -0.059 A 
HETATM    3  C   UNK N   1      45.031  20.701   3.667  0.00  0.00     0.009 A 
HETATM    4  C   UNK N   1      44.834  22.029   4.054  0.00  0.00     0.039 A 
HETATM    5  C   UNK N   1      43.715  22.739   3.603  0.00  0.00     0.098 A 
HETATM    6  C   UNK N   1      42.776  22.108   2.748  0.00  0.00     0.136 A 
HETATM    7  C   UNK N   1      42.994  20.776   2.372  0.00  0.00     0.045 A 
ENDROOT
BRANCH   6   8
HETATM    8  N   UNK N   1      41.616  22.782   2.255  0.00  0.00    -0.113 N 
HETATM    9  O   UNK N   1      40.451  22.167   2.264  0.00  0.00    -0.532 OA
HETATM   10  O   UNK N   1      41.684  23.896   1.835  0.00  0.00    -0.532 OA
ENDBRANCH   6   8
BRANCH   5  11
HETATM   11  O   UNK N   1      43.556  24.016   3.996  0.00  0.00    -0.358 OA
HETATM   12  H   UNK N   1      43.889  24.713   3.465  0.00  0.00     0.217 HD
ENDBRANCH   5  11
TORSDOF 2
ENDMDL
MODEL 9
REMARK VINA RESULT:      -4.6      2.025      2.805
REMARK  2 active torsions:
REMARK  status: ('A' for Active; 'I' for Inactive)
REMARK    1  A    between atoms: C_5  and  O_6 
REMARK    2  A    between atoms: C_7  and  N_9 
ROOT
HETATM    1  C   UNK N   1      32.148  14.528   6.802  0.00  0.00     0.048 C 
HETATM    2  C   UNK N   1      32.938  15.706   7.243  0.00  0.00    -0.059 A 
HETATM    3  C   UNK N   1      33.029  16.837   6.431  0.00  0.00     0.009 A 
HETATM    4  C   UNK N   1      33.773  17.942   6.852  0.00  0.00     0.039 A 
HETATM    5  C   UNK N   1      34.431  17.922   8.088  0.00  0.00     0.098 A 
HETATM    6  C   UNK N   1      34.341  16.775   8.917  0.00  0.00     0.136 A 
HETATM    7  C   UNK N   1      33.589  15.679   8.474  0.00  0.00     0.045 A 
ENDROOT
BRANCH   6   8
HETATM    8  N   UNK N   1      34.990  16.697  10.187  0.00  0.00    -0.113 N 
HETATM    9  O   UNK N   1      35.974  17.525  10.470  0.00  0.00    -0.532 OA
HETATM   10  O   UNK N   1      34.654  15.891  11.000  0.00  0.00    -0.532 OA
ENDBRANCH   6   8
BRANCH   5  11
HETATM   11  O   UNK N   1      35.139  19.003   8.462  0.00  0.00    -0.358 OA
HETATM   12  H   UNK N   1      34.863  19.858   8.196  0.00  0.00     0.217 HD
ENDBRANCH   5  11
TORSDOF 2
ENDMDL
