MODEL 1
REMARK VINA RESULT:      -8.2      0.000      0.000
REMARK  9 active torsions:
REMARK  status: ('A' for Active; 'I' for Inactive)
REMARK    1  A    between atoms: O_1  and  C_2 
REMARK    2  A    between atoms: C_5  and  C_6 
REMARK    3  A    between atoms: C_6  and  C_7 
REMARK    4  A    between atoms: C_7  and  N_8 
REMARK       I    between atoms: N_8  and  C_9 
REMARK    5  A    between atoms: C_12  and  S_13 
REMARK    6  A    between atoms: S_13  and  C_14 
REMARK    7  A    between atoms: C_14  and  C_15 
REMARK    8  A    between atoms: C_15  and  C_16 
REMARK    9  A    between atoms: C_16  and  C_17 
REMARK       I    between atoms: C_26  and  N_29 
ROOT
HETATM    1  N   UNK N   1      34.255  16.979   9.910  0.00  0.00    -0.225 N 
HETATM    2  C   UNK N   1      35.232  16.050  10.328  0.00  0.00     0.694 A 
HETATM    3  N   UNK N   1      35.450  15.905  11.646  0.00  0.00    -0.169 N 
ATOM      4  HN  UNK N   1      35.000  16.542  12.302  1.00  0.00     0.186 HD
HETATM    5  C   UNK N   1      36.254  14.930  12.112  0.00  0.00     0.174 A 
HETATM    6  N   UNK N   1      36.888  14.101  11.247  0.00  0.00    -0.169 N 
ATOM      7  HN  UNK N   1      37.493  13.360  11.599  1.00  0.00     0.186 HD
HETATM    8  C   UNK N   1      36.715  14.261   9.904  0.00  0.00     0.697 A 
HETATM    9  N   UNK N   1      35.863  15.224   9.446  0.00  0.00    -0.022 N 
ATOM     10  HN  UNK N   1      35.698  15.326   8.444  1.00  0.00     0.203 HD
HETATM   11  N   UNK N   1      37.375  13.386   8.996  0.00  0.00    -0.214 N 
HETATM   12  C   UNK N   1      38.219  12.317   9.482  0.00  0.00     0.160 C 
HETATM   13  C   UNK N   1      39.576  12.404   8.787  0.00  0.00     0.134 C 
HETATM   14  N   UNK N   1      39.391  12.397   7.335  0.00  0.00    -0.418 N 
HETATM   15  C   UNK N   1      38.639  13.594   6.947  0.00  0.00     0.134 C 
HETATM   16  C   UNK N   1      37.242  13.556   7.567  0.00  0.00     0.160 C 
HETATM   17  H   UNK N   1      33.988  17.701  10.523  0.00  0.00     0.177 HD
HETATM   18  H   UNK N   1      39.729  11.676   6.698  0.00  0.00     0.153 HD
ENDROOT
BRANCH   1  19
HETATM   19  C   UNK N   1      33.643  16.898   8.620  0.00  0.00     0.142 C 
BRANCH  19  20
HETATM   20  C   UNK N   1      32.936  18.196   8.314  0.00  0.00     0.058 C 
BRANCH  20  21
HETATM   21  C   UNK N   1      31.490  17.902   8.188  0.00  0.00    -0.057 A 
HETATM   22  C   UNK N   1      31.037  17.027   7.199  0.00  0.00     0.010 A 
HETATM   23  C   UNK N   1      29.669  16.778   7.066  0.00  0.00     0.037 A 
HETATM   24  C   UNK N   1      28.757  17.405   7.922  0.00  0.00     0.065 A 
HETATM   25  C   UNK N   1      29.212  18.278   8.914  0.00  0.00     0.037 A 
HETATM   26  C   UNK N   1      30.577  18.526   9.048  0.00  0.00     0.010 A 
BRANCH  24  27
HETATM   27  O   UNK N   1      27.443  17.169   7.792  0.00  0.00    -0.361 OA
HETATM   28  H   UNK N   1      26.814  17.829   8.008  0.00  0.00     0.217 HD
ENDBRANCH  24  27
ENDBRANCH  20  21
ENDBRANCH  19  20
ENDBRANCH   1  19
BRANCH   5  29
HETATM   29  S   UNK N   1      36.334  14.658  13.869  0.00  0.00    -0.093 SA
BRANCH  29  30
HETATM   30  C   UNK N   1      36.180  12.833  13.686  0.00  0.00     0.082 C 
BRANCH  30  31
HETATM   31  C   UNK N   1      35.444  12.137  14.849  0.00  0.00     0.015 C 
BRANCH  31  32
HETATM   32  C   UNK N   1      35.074  13.085  15.988  0.00  0.00     0.039 C 
BRANCH  32  33
HETATM   33  C   UNK N   1      35.215  12.369  17.278  0.00  0.00    -0.058 A 
HETATM   34  C   UNK N   1      35.196  13.082  18.481  0.00  0.00     0.009 A 
HETATM   35  C   UNK N   1      35.206  12.395  19.694  0.00  0.00     0.024 A 
HETATM   36  C   UNK N   1      35.225  10.997  19.704  0.00  0.00     0.034 A 
HETATM   37 Cl   UNK N   1      35.178  10.138  21.223  0.00  0.00    -0.084 Cl
HETATM   38  C   UNK N   1      35.259  10.286  18.500  0.00  0.00     0.024 A 
HETATM   39  C   UNK N   1      35.254  10.973  17.287  0.00  0.00     0.009 A 
ENDBRANCH  32  33
ENDBRANCH  31  32
ENDBRANCH  30  31
ENDBRANCH  29  30
ENDBRANCH   5  29
TORSDOF 9
ENDMDL
MODEL 2
REMARK VINA RESULT:      -8.2     11.173     14.262
REMARK  9 active torsions:
REMARK  status: ('A' for Active; 'I' for Inactive)
REMARK    1  A    between atoms: O_1  and  C_2 
REMARK    2  A    between atoms: C_5  and  C_6 
REMARK    3  A    between atoms: C_6  and  C_7 
REMARK    4  A    between atoms: C_7  and  N_8 
REMARK       I    between atoms: N_8  and  C_9 
REMARK    5  A    between atoms: C_12  and  S_13 
REMARK    6  A    between atoms: S_13  and  C_14 
REMARK    7  A    between atoms: C_14  and  C_15 
REMARK    8  A    between atoms: C_15  and  C_16 
REMARK    9  A    between atoms: C_16  and  C_17 
REMARK       I    between atoms: C_26  and  N_29 
ROOT
HETATM    1  N   UNK N   1      20.756  16.207   7.551  0.00  0.00    -0.225 N 
HETATM    2  C   UNK N   1      21.772  16.376   6.586  0.00  0.00     0.694 A 
HETATM    3  N   UNK N   1      21.633  17.361   5.682  0.00  0.00    -0.169 N 
ATOM      4  HN  UNK N   1      20.758  17.881   5.636  1.00  0.00     0.186 HD
HETATM    5  C   UNK N   1      22.636  17.670   4.837  0.00  0.00     0.174 A 
HETATM    6  N   UNK N   1      23.790  16.960   4.863  0.00  0.00    -0.169 N 
ATOM      7  HN  UNK N   1      24.550  17.197   4.227  1.00  0.00     0.186 HD
HETATM    8  C   UNK N   1      23.932  15.928   5.742  0.00  0.00     0.697 A 
HETATM    9  N   UNK N   1      22.927  15.653   6.624  0.00  0.00    -0.022 N 
ATOM     10  HN  UNK N   1      23.039  14.907   7.310  1.00  0.00     0.203 HD
HETATM   11  N   UNK N   1      25.147  15.187   5.774  0.00  0.00    -0.214 N 
HETATM   12  C   UNK N   1      26.242  15.526   4.892  0.00  0.00     0.160 C 
HETATM   13  C   UNK N   1      26.688  14.267   4.151  0.00  0.00     0.134 C 
HETATM   14  N   UNK N   1      27.009  13.213   5.115  0.00  0.00    -0.418 N 
HETATM   15  C   UNK N   1      25.795  12.861   5.856  0.00  0.00     0.134 C 
HETATM   16  C   UNK N   1      25.312  14.063   6.667  0.00  0.00     0.160 C 
HETATM   17  H   UNK N   1      19.859  16.571   7.371  0.00  0.00     0.177 HD
HETATM   18  H   UNK N   1      27.929  12.793   5.250  0.00  0.00     0.153 HD
ENDROOT
BRANCH   1  19
HETATM   19  C   UNK N   1      20.994  15.521   8.783  0.00  0.00     0.142 C 
BRANCH  19  20
HETATM   20  C   UNK N   1      20.670  14.057   8.618  0.00  0.00     0.058 C 
BRANCH  20  21
HETATM   21  C   UNK N   1      21.214  13.339   9.793  0.00  0.00    -0.057 A 
HETATM   22  C   UNK N   1      22.594  13.178   9.937  0.00  0.00     0.010 A 
HETATM   23  C   UNK N   1      23.100  12.474  11.032  0.00  0.00     0.037 A 
HETATM   24  C   UNK N   1      22.226  11.932  11.980  0.00  0.00     0.065 A 
HETATM   25  C   UNK N   1      20.846  12.097  11.837  0.00  0.00     0.037 A 
HETATM   26  C   UNK N   1      20.340  12.800  10.745  0.00  0.00     0.010 A 
BRANCH  24  27
HETATM   27  O   UNK N   1      22.711  11.252  13.030  0.00  0.00    -0.361 OA
HETATM   28  H   UNK N   1      23.019  10.373  12.930  0.00  0.00     0.217 HD
ENDBRANCH  24  27
ENDBRANCH  20  21
ENDBRANCH  19  20
ENDBRANCH   1  19
BRANCH   5  29
HETATM   29  S   UNK N   1      22.471  19.116   3.812  0.00  0.00    -0.093 SA
BRANCH  29  30
HETATM   30  C   UNK N   1      24.263  19.139   3.397  0.00  0.00     0.082 C 
BRANCH  30  31
HETATM   31  C   UNK N   1      24.886  20.549   3.342  0.00  0.00     0.015 C 
BRANCH  31  32
HETATM   32  C   UNK N   1      26.407  20.536   3.206  0.00  0.00     0.039 C 
BRANCH  32  33
HETATM   33  C   UNK N   1      27.006  20.175   4.513  0.00  0.00    -0.058 A 
HETATM   34  C   UNK N   1      26.667  20.895   5.662  0.00  0.00     0.009 A 
HETATM   35  C   UNK N   1      27.138  20.478   6.907  0.00  0.00     0.024 A 
HETATM   36  C   UNK N   1      27.937  19.335   7.002  0.00  0.00     0.034 A 
HETATM   37 Cl   UNK N   1      28.477  18.779   8.567  0.00  0.00    -0.084 Cl
HETATM   38  C   UNK N   1      28.287  18.624   5.850  0.00  0.00     0.024 A 
HETATM   39  C   UNK N   1      27.822  19.045   4.605  0.00  0.00     0.009 A 
ENDBRANCH  32  33
ENDBRANCH  31  32
ENDBRANCH  30  31
ENDBRANCH  29  30
ENDBRANCH   5  29
TORSDOF 9
ENDMDL
MODEL 3
REMARK VINA RESULT:      -8.2      9.818     13.587
REMARK  9 active torsions:
REMARK  status: ('A' for Active; 'I' for Inactive)
REMARK    1  A    between atoms: O_1  and  C_2 
REMARK    2  A    between atoms: C_5  and  C_6 
REMARK    3  A    between atoms: C_6  and  C_7 
REMARK    4  A    between atoms: C_7  and  N_8 
REMARK       I    between atoms: N_8  and  C_9 
REMARK    5  A    between atoms: C_12  and  S_13 
REMARK    6  A    between atoms: S_13  and  C_14 
REMARK    7  A    between atoms: C_14  and  C_15 
REMARK    8  A    between atoms: C_15  and  C_16 
REMARK    9  A    between atoms: C_16  and  C_17 
REMARK       I    between atoms: C_26  and  N_29 
ROOT
HETATM    1  N   UNK N   1      25.973  17.855   5.328  0.00  0.00    -0.225 N 
HETATM    2  C   UNK N   1      24.607  17.576   5.109  0.00  0.00     0.694 A 
HETATM    3  N   UNK N   1      24.083  16.477   5.678  0.00  0.00    -0.169 N 
ATOM      4  HN  UNK N   1      24.697  15.814   6.148  1.00  0.00     0.186 HD
HETATM    5  C   UNK N   1      22.758  16.241   5.634  0.00  0.00     0.174 A 
HETATM    6  N   UNK N   1      21.936  17.096   4.978  0.00  0.00    -0.169 N 
ATOM      7  HN  UNK N   1      20.933  16.919   4.948  1.00  0.00     0.186 HD
HETATM    8  C   UNK N   1      22.455  18.192   4.356  0.00  0.00     0.697 A 
HETATM    9  N   UNK N   1      23.794  18.445   4.445  0.00  0.00    -0.022 N 
ATOM     10  HN  UNK N   1      24.185  19.283   4.015  1.00  0.00     0.203 HD
HETATM   11  N   UNK N   1      21.591  19.094   3.673  0.00  0.00    -0.214 N 
HETATM   12  C   UNK N   1      20.163  18.868   3.641  0.00  0.00     0.160 C 
HETATM   13  C   UNK N   1      19.686  18.920   2.192  0.00  0.00     0.134 C 
HETATM   14  N   UNK N   1      20.098  20.185   1.580  0.00  0.00    -0.418 N 
HETATM   15  C   UNK N   1      21.562  20.241   1.546  0.00  0.00     0.134 C 
HETATM   16  C   UNK N   1      22.117  20.243   2.971  0.00  0.00     0.160 C 
HETATM   17  H   UNK N   1      26.573  17.125   5.604  0.00  0.00     0.177 HD
HETATM   18  H   UNK N   1      19.468  20.910   1.235  0.00  0.00     0.153 HD
ENDROOT
BRANCH   1  19
HETATM   19  C   UNK N   1      26.510  19.170   5.159  0.00  0.00     0.142 C 
BRANCH  19  20
HETATM   20  C   UNK N   1      28.011  19.091   5.029  0.00  0.00     0.058 C 
BRANCH  20  21
HETATM   21  C   UNK N   1      28.548  18.581   6.311  0.00  0.00    -0.057 A 
HETATM   22  C   UNK N   1      29.459  17.522   6.315  0.00  0.00     0.010 A 
HETATM   23  C   UNK N   1      29.939  17.024   7.529  0.00  0.00     0.037 A 
HETATM   24  C   UNK N   1      29.507  17.586   8.736  0.00  0.00     0.065 A 
HETATM   25  C   UNK N   1      28.597  18.647   8.729  0.00  0.00     0.037 A 
HETATM   26  C   UNK N   1      28.119  19.145   7.518  0.00  0.00     0.010 A 
BRANCH  24  27
HETATM   27  O   UNK N   1      29.964  17.106   9.901  0.00  0.00    -0.361 OA
HETATM   28  H   UNK N   1      30.578  17.594  10.413  0.00  0.00     0.217 HD
ENDBRANCH  24  27
ENDBRANCH  20  21
ENDBRANCH  19  20
ENDBRANCH   1  19
BRANCH   5  29
HETATM   29  S   UNK N   1      22.102  14.885   6.584  0.00  0.00    -0.093 SA
BRANCH  29  30
HETATM   30  C   UNK N   1      23.745  14.476   7.305  0.00  0.00     0.082 C 
BRANCH  30  31
HETATM   31  C   UNK N   1      24.123  12.983   7.224  0.00  0.00     0.015 C 
BRANCH  31  32
HETATM   32  C   UNK N   1      23.031  12.052   7.747  0.00  0.00     0.039 C 
BRANCH  32  33
HETATM   33  C   UNK N   1      23.135  11.965   9.223  0.00  0.00    -0.058 A 
HETATM   34  C   UNK N   1      24.390  11.914   9.836  0.00  0.00     0.009 A 
HETATM   35  C   UNK N   1      24.486  11.955  11.226  0.00  0.00     0.024 A 
HETATM   36  C   UNK N   1      23.327  12.057  12.001  0.00  0.00     0.034 A 
HETATM   37 Cl   UNK N   1      23.451  12.168  13.740  0.00  0.00    -0.084 Cl
HETATM   38  C   UNK N   1      22.071  12.094  11.388  0.00  0.00     0.024 A 
HETATM   39  C   UNK N   1      21.975  12.047   9.998  0.00  0.00     0.009 A 
ENDBRANCH  32  33
ENDBRANCH  31  32
ENDBRANCH  30  31
ENDBRANCH  29  30
ENDBRANCH   5  29
TORSDOF 9
ENDMDL
MODEL 4
REMARK VINA RESULT:      -8.0     10.685     14.144
REMARK  9 active torsions:
REMARK  status: ('A' for Active; 'I' for Inactive)
REMARK    1  A    between atoms: O_1  and  C_2 
REMARK    2  A    between atoms: C_5  and  C_6 
REMARK    3  A    between atoms: C_6  and  C_7 
REMARK    4  A    between atoms: C_7  and  N_8 
REMARK       I    between atoms: N_8  and  C_9 
REMARK    5  A    between atoms: C_12  and  S_13 
REMARK    6  A    between atoms: S_13  and  C_14 
REMARK    7  A    between atoms: C_14  and  C_15 
REMARK    8  A    between atoms: C_15  and  C_16 
REMARK    9  A    between atoms: C_16  and  C_17 
REMARK       I    between atoms: C_26  and  N_29 
ROOT
HETATM    1  N   UNK N   1      26.294  15.655   5.591  0.00  0.00    -0.225 N 
HETATM    2  C   UNK N   1      24.953  15.974   5.892  0.00  0.00     0.694 A 
HETATM    3  N   UNK N   1      24.409  17.053   5.304  0.00  0.00    -0.169 N 
ATOM      4  HN  UNK N   1      24.999  17.678   4.755  1.00  0.00     0.186 HD
HETATM    5  C   UNK N   1      23.094  17.320   5.429  0.00  0.00     0.174 A 
HETATM    6  N   UNK N   1      22.307  16.519   6.188  0.00  0.00    -0.169 N 
ATOM      7  HN  UNK N   1      21.312  16.718   6.279  1.00  0.00     0.186 HD
HETATM    8  C   UNK N   1      22.851  15.446   6.829  0.00  0.00     0.697 A 
HETATM    9  N   UNK N   1      24.175  15.159   6.658  0.00  0.00    -0.022 N 
ATOM     10  HN  UNK N   1      24.581  14.337   7.104  1.00  0.00     0.203 HD
HETATM   11  N   UNK N   1      22.023  14.599   7.620  0.00  0.00    -0.214 N 
HETATM   12  C   UNK N   1      20.605  14.858   7.741  0.00  0.00     0.160 C 
HETATM   13  C   UNK N   1      20.233  14.892   9.222  0.00  0.00     0.134 C 
HETATM   14  N   UNK N   1      20.666  13.652   9.869  0.00  0.00    -0.418 N 
HETATM   15  C   UNK N   1      22.128  13.566   9.801  0.00  0.00     0.134 C 
HETATM   16  C   UNK N   1      22.578  13.478   8.343  0.00  0.00     0.160 C 
HETATM   17  H   UNK N   1      26.885  16.357   5.234  0.00  0.00     0.177 HD
HETATM   18  H   UNK N   1      20.051  12.960  10.297  0.00  0.00     0.153 HD
ENDROOT
BRANCH   1  19
HETATM   19  C   UNK N   1      26.818  14.339   5.791  0.00  0.00     0.142 C 
BRANCH  19  20
HETATM   20  C   UNK N   1      27.503  13.870   4.531  0.00  0.00     0.058 C 
BRANCH  20  21
HETATM   21  C   UNK N   1      28.611  14.809   4.244  0.00  0.00    -0.057 A 
HETATM   22  C   UNK N   1      29.600  15.038   5.203  0.00  0.00     0.010 A 
HETATM   23  C   UNK N   1      30.626  15.948   4.938  0.00  0.00     0.037 A 
HETATM   24  C   UNK N   1      30.661  16.627   3.715  0.00  0.00     0.065 A 
HETATM   25  C   UNK N   1      29.672  16.395   2.755  0.00  0.00     0.037 A 
HETATM   26  C   UNK N   1      28.648  15.486   3.019  0.00  0.00     0.010 A 
BRANCH  24  27
HETATM   27  O   UNK N   1      31.643  17.504   3.462  0.00  0.00    -0.361 OA
HETATM   28  H   UNK N   1      31.928  17.665   2.584  0.00  0.00     0.217 HD
ENDBRANCH  24  27
ENDBRANCH  20  21
ENDBRANCH  19  20
ENDBRANCH   1  19
BRANCH   5  29
HETATM   29  S   UNK N   1      22.396  18.638   4.458  0.00  0.00    -0.093 SA
BRANCH  29  30
HETATM   30  C   UNK N   1      23.940  18.860   3.481  0.00  0.00     0.082 C 
BRANCH  30  31
HETATM   31  C   UNK N   1      24.406  20.324   3.350  0.00  0.00     0.015 C 
BRANCH  31  32
HETATM   32  C   UNK N   1      25.898  20.462   3.054  0.00  0.00     0.039 C 
BRANCH  32  33
HETATM   33  C   UNK N   1      26.665  20.155   4.284  0.00  0.00    -0.058 A 
HETATM   34  C   UNK N   1      26.438  20.887   5.453  0.00  0.00     0.009 A 
HETATM   35  C   UNK N   1      27.073  20.517   6.638  0.00  0.00     0.024 A 
HETATM   36  C   UNK N   1      27.926  19.408   6.655  0.00  0.00     0.034 A 
HETATM   37 Cl   UNK N   1      28.674  18.909   8.152  0.00  0.00    -0.084 Cl
HETATM   38  C   UNK N   1      28.163  18.686   5.481  0.00  0.00     0.024 A 
HETATM   39  C   UNK N   1      27.533  19.060   4.295  0.00  0.00     0.009 A 
ENDBRANCH  32  33
ENDBRANCH  31  32
ENDBRANCH  30  31
ENDBRANCH  29  30
ENDBRANCH   5  29
TORSDOF 9
ENDMDL
MODEL 5
REMARK VINA RESULT:      -8.0      3.718      7.497
REMARK  9 active torsions:
REMARK  status: ('A' for Active; 'I' for Inactive)
REMARK    1  A    between atoms: O_1  and  C_2 
REMARK    2  A    between atoms: C_5  and  C_6 
REMARK    3  A    between atoms: C_6  and  C_7 
REMARK    4  A    between atoms: C_7  and  N_8 
REMARK       I    between atoms: N_8  and  C_9 
REMARK    5  A    between atoms: C_12  and  S_13 
REMARK    6  A    between atoms: S_13  and  C_14 
REMARK    7  A    between atoms: C_14  and  C_15 
REMARK    8  A    between atoms: C_15  and  C_16 
REMARK    9  A    between atoms: C_16  and  C_17 
REMARK       I    between atoms: C_26  and  N_29 
ROOT
HETATM    1  N   UNK N   1      36.916  13.621  13.437  0.00  0.00    -0.225 N 
HETATM    2  C   UNK N   1      36.931  13.622  12.026  0.00  0.00     0.694 A 
HETATM    3  N   UNK N   1      38.001  13.105  11.400  0.00  0.00    -0.169 N 
ATOM      4  HN  UNK N   1      38.820  12.835  11.945  1.00  0.00     0.186 HD
HETATM    5  C   UNK N   1      38.007  12.937  10.064  0.00  0.00     0.174 A 
HETATM    6  N   UNK N   1      36.940  13.328   9.325  0.00  0.00    -0.169 N 
ATOM      7  HN  UNK N   1      36.943  13.197   8.314  1.00  0.00     0.186 HD
HETATM    8  C   UNK N   1      35.864  13.897   9.937  0.00  0.00     0.697 A 
HETATM    9  N   UNK N   1      35.850  14.020  11.297  0.00  0.00    -0.022 N 
ATOM     10  HN  UNK N   1      35.033  14.410  11.767  1.00  0.00     0.203 HD
HETATM   11  N   UNK N   1      34.739  14.300   9.162  0.00  0.00    -0.214 N 
HETATM   12  C   UNK N   1      34.720  14.101   7.730  0.00  0.00     0.160 C 
HETATM   13  C   UNK N   1      34.373  15.424   7.051  0.00  0.00     0.134 C 
HETATM   14  N   UNK N   1      33.116  15.943   7.593  0.00  0.00    -0.418 N 
HETATM   15  C   UNK N   1      33.297  16.233   9.018  0.00  0.00     0.134 C 
HETATM   16  C   UNK N   1      33.600  14.942   9.778  0.00  0.00     0.160 C 
HETATM   17  H   UNK N   1      37.768  13.546  13.925  0.00  0.00     0.177 HD
HETATM   18  H   UNK N   1      32.254  16.080   7.065  0.00  0.00     0.153 HD
ENDROOT
BRANCH   1  19
HETATM   19  C   UNK N   1      35.697  13.724  14.178  0.00  0.00     0.142 C 
BRANCH  19  20
HETATM   20  C   UNK N   1      35.346  12.379  14.764  0.00  0.00     0.058 C 
BRANCH  20  21
HETATM   21  C   UNK N   1      35.341  12.517  16.238  0.00  0.00    -0.057 A 
HETATM   22  C   UNK N   1      35.318  11.379  17.048  0.00  0.00     0.010 A 
HETATM   23  C   UNK N   1      35.282  11.516  18.437  0.00  0.00     0.037 A 
HETATM   24  C   UNK N   1      35.270  12.791  19.015  0.00  0.00     0.065 A 
HETATM   25  C   UNK N   1      35.297  13.928  18.204  0.00  0.00     0.037 A 
HETATM   26  C   UNK N   1      35.334  13.792  16.817  0.00  0.00     0.010 A 
BRANCH  24  27
HETATM   27  O   UNK N   1      35.232  12.923  20.349  0.00  0.00    -0.361 OA
HETATM   28  H   UNK N   1      34.700  13.582  20.750  0.00  0.00     0.217 HD
ENDBRANCH  24  27
ENDBRANCH  20  21
ENDBRANCH  19  20
ENDBRANCH   1  19
BRANCH   5  29
HETATM   29  S   UNK N   1      39.364  12.055   9.321  0.00  0.00    -0.093 SA
BRANCH  29  30
HETATM   30  C   UNK N   1      38.425  10.473   9.266  0.00  0.00     0.082 C 
BRANCH  30  31
HETATM   31  C   UNK N   1      38.314   9.751  10.624  0.00  0.00     0.015 C 
BRANCH  31  32
HETATM   32  C   UNK N   1      36.892   9.720  11.181  0.00  0.00     0.039 C 
BRANCH  32  33
HETATM   33  C   UNK N   1      36.951   9.512  12.646  0.00  0.00    -0.058 A 
HETATM   34  C   UNK N   1      36.038   8.656  13.270  0.00  0.00     0.009 A 
HETATM   35  C   UNK N   1      36.172   8.368  14.628  0.00  0.00     0.024 A 
HETATM   36  C   UNK N   1      37.225   8.928  15.358  0.00  0.00     0.034 A 
HETATM   37 Cl   UNK N   1      37.427   8.521  17.044  0.00  0.00    -0.084 Cl
HETATM   38  C   UNK N   1      38.129   9.796  14.736  0.00  0.00     0.024 A 
HETATM   39  C   UNK N   1      37.991  10.087  13.380  0.00  0.00     0.009 A 
ENDBRANCH  32  33
ENDBRANCH  31  32
ENDBRANCH  30  31
ENDBRANCH  29  30
ENDBRANCH   5  29
TORSDOF 9
ENDMDL
MODEL 6
REMARK VINA RESULT:      -8.0      8.669     11.107
REMARK  9 active torsions:
REMARK  status: ('A' for Active; 'I' for Inactive)
REMARK    1  A    between atoms: O_1  and  C_2 
REMARK    2  A    between atoms: C_5  and  C_6 
REMARK    3  A    between atoms: C_6  and  C_7 
REMARK    4  A    between atoms: C_7  and  N_8 
REMARK       I    between atoms: N_8  and  C_9 
REMARK    5  A    between atoms: C_12  and  S_13 
REMARK    6  A    between atoms: S_13  and  C_14 
REMARK    7  A    between atoms: C_14  and  C_15 
REMARK    8  A    between atoms: C_15  and  C_16 
REMARK    9  A    between atoms: C_16  and  C_17 
REMARK       I    between atoms: C_26  and  N_29 
ROOT
HETATM    1  N   UNK N   1      27.373  17.137   7.809  0.00  0.00    -0.225 N 
HETATM    2  C   UNK N   1      26.926  16.274   6.786  0.00  0.00     0.694 A 
HETATM    3  N   UNK N   1      25.646  15.866   6.811  0.00  0.00    -0.169 N 
ATOM      4  HN  UNK N   1      25.065  16.086   7.619  1.00  0.00     0.186 HD
HETATM    5  C   UNK N   1      25.121  15.170   5.784  0.00  0.00     0.174 A 
HETATM    6  N   UNK N   1      25.895  14.838   4.722  0.00  0.00    -0.169 N 
ATOM      7  HN  UNK N   1      25.497  14.315   3.943  1.00  0.00     0.186 HD
HETATM    8  C   UNK N   1      27.208  15.204   4.699  0.00  0.00     0.697 A 
HETATM    9  N   UNK N   1      27.717  15.947   5.725  0.00  0.00    -0.022 N 
ATOM     10  HN  UNK N   1      28.688  16.258   5.698  1.00  0.00     0.203 HD
HETATM   11  N   UNK N   1      28.019  14.861   3.581  0.00  0.00    -0.214 N 
HETATM   12  C   UNK N   1      27.463  14.139   2.458  0.00  0.00     0.160 C 
HETATM   13  C   UNK N   1      28.338  12.922   2.170  0.00  0.00     0.134 C 
HETATM   14  N   UNK N   1      29.725  13.346   1.971  0.00  0.00    -0.418 N 
HETATM   15  C   UNK N   1      30.223  13.941   3.214  0.00  0.00     0.134 C 
HETATM   16  C   UNK N   1      29.424  15.201   3.546  0.00  0.00     0.160 C 
HETATM   17  H   UNK N   1      26.874  17.173   8.657  0.00  0.00     0.177 HD
HETATM   18  H   UNK N   1      30.258  13.245   1.107  0.00  0.00     0.153 HD
ENDROOT
BRANCH   1  19
HETATM   19  C   UNK N   1      28.530  17.962   7.647  0.00  0.00     0.142 C 
BRANCH  19  20
HETATM   20  C   UNK N   1      29.566  17.587   8.678  0.00  0.00     0.058 C 
BRANCH  20  21
HETATM   21  C   UNK N   1      30.882  17.550   8.000  0.00  0.00    -0.057 A 
HETATM   22  C   UNK N   1      32.008  18.085   8.629  0.00  0.00     0.010 A 
HETATM   23  C   UNK N   1      33.241  18.074   7.973  0.00  0.00     0.037 A 
HETATM   24  C   UNK N   1      33.345  17.528   6.688  0.00  0.00     0.065 A 
HETATM   25  C   UNK N   1      32.218  16.990   6.061  0.00  0.00     0.037 A 
HETATM   26  C   UNK N   1      30.988  17.000   6.717  0.00  0.00     0.010 A 
BRANCH  24  27
HETATM   27  O   UNK N   1      34.528  17.521   6.056  0.00  0.00    -0.361 OA
HETATM   28  H   UNK N   1      34.653  18.012   5.268  0.00  0.00     0.217 HD
ENDBRANCH  24  27
ENDBRANCH  20  21
ENDBRANCH  19  20
ENDBRANCH   1  19
BRANCH   5  29
HETATM   29  S   UNK N   1      23.371  14.843   5.782  0.00  0.00    -0.093 SA
BRANCH  29  30
HETATM   30  C   UNK N   1      23.616  13.036   5.535  0.00  0.00     0.082 C 
BRANCH  30  31
HETATM   31  C   UNK N   1      23.887  12.247   6.832  0.00  0.00     0.015 C 
BRANCH  31  32
HETATM   32  C   UNK N   1      22.615  11.840   7.572  0.00  0.00     0.039 C 
BRANCH  32  33
HETATM   33  C   UNK N   1      22.824  12.016   9.028  0.00  0.00    -0.058 A 
HETATM   34  C   UNK N   1      21.727  12.194   9.877  0.00  0.00     0.009 A 
HETATM   35  C   UNK N   1      21.919  12.238  11.258  0.00  0.00     0.024 A 
HETATM   36  C   UNK N   1      23.204  12.093  11.788  0.00  0.00     0.034 A 
HETATM   37 Cl   UNK N   1      23.435  12.088  13.519  0.00  0.00    -0.084 Cl
HETATM   38  C   UNK N   1      24.302  11.929  10.937  0.00  0.00     0.024 A 
HETATM   39  C   UNK N   1      24.111  11.891   9.556  0.00  0.00     0.009 A 
ENDBRANCH  32  33
ENDBRANCH  31  32
ENDBRANCH  30  31
ENDBRANCH  29  30
ENDBRANCH   5  29
TORSDOF 9
ENDMDL
MODEL 7
REMARK VINA RESULT:      -8.0      3.426      5.262
REMARK  9 active torsions:
REMARK  status: ('A' for Active; 'I' for Inactive)
REMARK    1  A    between atoms: O_1  and  C_2 
REMARK    2  A    between atoms: C_5  and  C_6 
REMARK    3  A    between atoms: C_6  and  C_7 
REMARK    4  A    between atoms: C_7  and  N_8 
REMARK       I    between atoms: N_8  and  C_9 
REMARK    5  A    between atoms: C_12  and  S_13 
REMARK    6  A    between atoms: S_13  and  C_14 
REMARK    7  A    between atoms: C_14  and  C_15 
REMARK    8  A    between atoms: C_15  and  C_16 
REMARK    9  A    between atoms: C_16  and  C_17 
REMARK       I    between atoms: C_26  and  N_29 
ROOT
HETATM    1  N   UNK N   1      30.300  17.991   8.750  0.00  0.00    -0.225 N 
HETATM    2  C   UNK N   1      31.434  17.313   8.255  0.00  0.00     0.694 A 
HETATM    3  N   UNK N   1      32.502  17.187   9.060  0.00  0.00    -0.169 N 
ATOM      4  HN  UNK N   1      32.518  17.678   9.953  1.00  0.00     0.186 HD
HETATM    5  C   UNK N   1      33.551  16.421   8.704  0.00  0.00     0.174 A 
HETATM    6  N   UNK N   1      33.557  15.794   7.502  0.00  0.00    -0.169 N 
ATOM      7  HN  UNK N   1      34.349  15.211   7.233  1.00  0.00     0.186 HD
HETATM    8  C   UNK N   1      32.503  15.947   6.652  0.00  0.00     0.697 A 
HETATM    9  N   UNK N   1      31.426  16.689   7.043  0.00  0.00    -0.022 N 
ATOM     10  HN  UNK N   1      30.616  16.778   6.429  1.00  0.00     0.203 HD
HETATM   11  N   UNK N   1      32.506  15.283   5.392  0.00  0.00    -0.214 N 
HETATM   12  C   UNK N   1      33.613  14.435   5.008  0.00  0.00     0.160 C 
HETATM   13  C   UNK N   1      34.111  14.867   3.630  0.00  0.00     0.134 C 
HETATM   14  N   UNK N   1      33.000  14.858   2.677  0.00  0.00    -0.418 N 
HETATM   15  C   UNK N   1      32.005  15.849   3.097  0.00  0.00     0.134 C 
HETATM   16  C   UNK N   1      31.421  15.458   4.454  0.00  0.00     0.160 C 
HETATM   17  H   UNK N   1      30.405  18.610   9.509  0.00  0.00     0.177 HD
HETATM   18  H   UNK N   1      32.928  14.258   1.855  0.00  0.00     0.153 HD
ENDROOT
BRANCH   1  19
HETATM   19  C   UNK N   1      29.001  17.803   8.181  0.00  0.00     0.142 C 
BRANCH  19  20
HETATM   20  C   UNK N   1      28.209  19.082   8.294  0.00  0.00     0.058 C 
BRANCH  20  21
HETATM   21  C   UNK N   1      27.826  19.497   6.925  0.00  0.00    -0.057 A 
HETATM   22  C   UNK N   1      27.091  20.668   6.729  0.00  0.00     0.010 A 
HETATM   23  C   UNK N   1      26.706  21.038   5.438  0.00  0.00     0.037 A 
HETATM   24  C   UNK N   1      27.056  20.236   4.346  0.00  0.00     0.065 A 
HETATM   25  C   UNK N   1      27.794  19.066   4.544  0.00  0.00     0.037 A 
HETATM   26  C   UNK N   1      28.180  18.697   5.831  0.00  0.00     0.010 A 
BRANCH  24  27
HETATM   27  O   UNK N   1      26.683  20.589   3.107  0.00  0.00    -0.361 OA
HETATM   28  H   UNK N   1      27.322  20.731   2.437  0.00  0.00     0.217 HD
ENDBRANCH  24  27
ENDBRANCH  20  21
ENDBRANCH  19  20
ENDBRANCH   1  19
BRANCH   5  29
HETATM   29  S   UNK N   1      34.836  16.125   9.899  0.00  0.00    -0.093 SA
BRANCH  29  30
HETATM   30  C   UNK N   1      34.645  14.298   9.790  0.00  0.00     0.082 C 
BRANCH  30  31
HETATM   31  C   UNK N   1      35.157  13.529  11.024  0.00  0.00     0.015 C 
BRANCH  31  32
HETATM   32  C   UNK N   1      36.001  14.385  11.966  0.00  0.00     0.039 C 
BRANCH  32  33
HETATM   33  C   UNK N   1      35.909  13.832  13.337  0.00  0.00    -0.058 A 
HETATM   34  C   UNK N   1      36.628  14.421  14.381  0.00  0.00     0.009 A 
HETATM   35  C   UNK N   1      36.445  13.974  15.689  0.00  0.00     0.024 A 
HETATM   36  C   UNK N   1      35.535  12.946  15.953  0.00  0.00     0.034 A 
HETATM   37 Cl   UNK N   1      35.263  12.427  17.598  0.00  0.00    -0.084 Cl
HETATM   38  C   UNK N   1      34.827  12.347  14.906  0.00  0.00     0.024 A 
HETATM   39  C   UNK N   1      35.015  12.791  13.597  0.00  0.00     0.009 A 
ENDBRANCH  32  33
ENDBRANCH  31  32
ENDBRANCH  30  31
ENDBRANCH  29  30
ENDBRANCH   5  29
TORSDOF 9
ENDMDL
MODEL 8
REMARK VINA RESULT:      -7.9     11.671     15.727
REMARK  9 active torsions:
REMARK  status: ('A' for Active; 'I' for Inactive)
REMARK    1  A    between atoms: O_1  and  C_2 
REMARK    2  A    between atoms: C_5  and  C_6 
REMARK    3  A    between atoms: C_6  and  C_7 
REMARK    4  A    between atoms: C_7  and  N_8 
REMARK       I    between atoms: N_8  and  C_9 
REMARK    5  A    between atoms: C_12  and  S_13 
REMARK    6  A    between atoms: S_13  and  C_14 
REMARK    7  A    between atoms: C_14  and  C_15 
REMARK    8  A    between atoms: C_15  and  C_16 
REMARK    9  A    between atoms: C_16  and  C_17 
REMARK       I    between atoms: C_26  and  N_29 
ROOT
HETATM    1  N   UNK N   1      22.450  15.441   6.609  0.00  0.00    -0.225 N 
HETATM    2  C   UNK N   1      21.933  15.877   5.370  0.00  0.00     0.694 A 
HETATM    3  N   UNK N   1      21.990  17.188   5.083  0.00  0.00    -0.169 N 
ATOM      4  HN  UNK N   1      22.290  17.847   5.801  1.00  0.00     0.186 HD
HETATM    5  C   UNK N   1      21.656  17.644   3.860  0.00  0.00     0.174 A 
HETATM    6  N   UNK N   1      21.219  16.782   2.910  0.00  0.00    -0.169 N 
ATOM      7  HN  UNK N   1      20.970  17.126   1.983  1.00  0.00     0.186 HD
HETATM    8  C   UNK N   1      21.111  15.454   3.197  0.00  0.00     0.697 A 
HETATM    9  N   UNK N   1      21.495  14.998   4.425  0.00  0.00    -0.022 N 
ATOM     10  HN  UNK N   1      21.454  14.001   4.636  1.00  0.00     0.203 HD
HETATM   11  N   UNK N   1      20.659  14.548   2.196  0.00  0.00    -0.214 N 
HETATM   12  C   UNK N   1      20.324  15.018   0.871  0.00  0.00     0.160 C 
HETATM   13  C   UNK N   1      18.928  14.517   0.506  0.00  0.00     0.134 C 
HETATM   14  N   UNK N   1      18.872  13.061   0.648  0.00  0.00    -0.418 N 
HETATM   15  C   UNK N   1      19.093  12.713   2.055  0.00  0.00     0.134 C 
HETATM   16  C   UNK N   1      20.497  13.140   2.483  0.00  0.00     0.160 C 
HETATM   17  H   UNK N   1      22.545  16.090   7.343  0.00  0.00     0.177 HD
HETATM   18  H   UNK N   1      18.707  12.397  -0.108  0.00  0.00     0.153 HD
ENDROOT
BRANCH   1  19
HETATM   19  C   UNK N   1      22.840  14.082   6.826  0.00  0.00     0.142 C 
BRANCH  19  20
HETATM   20  C   UNK N   1      24.079  14.043   7.687  0.00  0.00     0.058 C 
BRANCH  20  21
HETATM   21  C   UNK N   1      23.717  13.391   8.966  0.00  0.00    -0.057 A 
HETATM   22  C   UNK N   1      24.705  12.786   9.746  0.00  0.00     0.010 A 
HETATM   23  C   UNK N   1      24.354  12.145  10.937  0.00  0.00     0.037 A 
HETATM   24  C   UNK N   1      23.016  12.111  11.345  0.00  0.00     0.065 A 
HETATM   25  C   UNK N   1      22.029  12.720  10.565  0.00  0.00     0.037 A 
HETATM   26  C   UNK N   1      22.379  13.360   9.377  0.00  0.00     0.010 A 
BRANCH  24  27
HETATM   27  O   UNK N   1      22.677  11.493  12.486  0.00  0.00    -0.361 OA
HETATM   28  H   UNK N   1      21.784  11.457  12.765  0.00  0.00     0.217 HD
ENDBRANCH  24  27
ENDBRANCH  20  21
ENDBRANCH  19  20
ENDBRANCH   1  19
BRANCH   5  29
HETATM   29  S   UNK N   1      21.953  19.357   3.479  0.00  0.00    -0.093 SA
BRANCH  29  30
HETATM   30  C   UNK N   1      23.766  19.199   3.756  0.00  0.00     0.082 C 
BRANCH  30  31
HETATM   31  C   UNK N   1      24.571  20.479   3.450  0.00  0.00     0.015 C 
BRANCH  31  32
HETATM   32  C   UNK N   1      26.036  20.208   3.114  0.00  0.00     0.039 C 
BRANCH  32  33
HETATM   33  C   UNK N   1      26.777  19.933   4.367  0.00  0.00    -0.058 A 
HETATM   34  C   UNK N   1      26.665  20.806   5.454  0.00  0.00     0.009 A 
HETATM   35  C   UNK N   1      27.266  20.481   6.669  0.00  0.00     0.024 A 
HETATM   36  C   UNK N   1      27.968  19.279   6.800  0.00  0.00     0.034 A 
HETATM   37 Cl   UNK N   1      28.669  18.845   8.340  0.00  0.00    -0.084 Cl
HETATM   38  C   UNK N   1      28.091  18.414   5.709  0.00  0.00     0.024 A 
HETATM   39  C   UNK N   1      27.495  18.741   4.492  0.00  0.00     0.009 A 
ENDBRANCH  32  33
ENDBRANCH  31  32
ENDBRANCH  30  31
ENDBRANCH  29  30
ENDBRANCH   5  29
TORSDOF 9
ENDMDL
MODEL 9
REMARK VINA RESULT:      -7.9      1.680      2.210
REMARK  9 active torsions:
REMARK  status: ('A' for Active; 'I' for Inactive)
REMARK    1  A    between atoms: O_1  and  C_2 
REMARK    2  A    between atoms: C_5  and  C_6 
REMARK    3  A    between atoms: C_6  and  C_7 
REMARK    4  A    between atoms: C_7  and  N_8 
REMARK       I    between atoms: N_8  and  C_9 
REMARK    5  A    between atoms: C_12  and  S_13 
REMARK    6  A    between atoms: S_13  and  C_14 
REMARK    7  A    between atoms: C_14  and  C_15 
REMARK    8  A    between atoms: C_15  and  C_16 
REMARK    9  A    between atoms: C_16  and  C_17 
REMARK       I    between atoms: C_26  and  N_29 
ROOT
HETATM    1  N   UNK N   1      34.334  16.671  10.003  0.00  0.00    -0.225 N 
HETATM    2  C   UNK N   1      35.100  15.509  10.237  0.00  0.00     0.694 A 
HETATM    3  N   UNK N   1      34.978  14.896  11.427  0.00  0.00    -0.169 N 
ATOM      4  HN  UNK N   1      34.436  15.339  12.168  1.00  0.00     0.186 HD
HETATM    5  C   UNK N   1      35.562  13.703  11.654  0.00  0.00     0.174 A 
HETATM    6  N   UNK N   1      36.317  13.122  10.690  0.00  0.00    -0.169 N 
ATOM      7  HN  UNK N   1      36.755  12.218  10.860  1.00  0.00     0.186 HD
HETATM    8  C   UNK N   1      36.490  13.750   9.493  0.00  0.00     0.697 A 
HETATM    9  N   UNK N   1      35.857  14.937   9.259  0.00  0.00    -0.022 N 
ATOM     10  HN  UNK N   1      35.950  15.396   8.352  1.00  0.00     0.203 HD
HETATM   11  N   UNK N   1      37.277  13.136   8.478  0.00  0.00    -0.214 N 
HETATM   12  C   UNK N   1      37.887  11.843   8.697  0.00  0.00     0.160 C 
HETATM   13  C   UNK N   1      39.375  11.936   8.366  0.00  0.00     0.134 C 
HETATM   14  N   UNK N   1      39.548  12.449   7.006  0.00  0.00    -0.418 N 
HETATM   15  C   UNK N   1      39.015  13.812   6.941  0.00  0.00     0.134 C 
HETATM   16  C   UNK N   1      37.511  13.797   7.214  0.00  0.00     0.160 C 
HETATM   17  H   UNK N   1      33.986  17.178  10.772  0.00  0.00     0.177 HD
HETATM   18  H   UNK N   1      39.971  11.939   6.230  0.00  0.00     0.153 HD
ENDROOT
BRANCH   1  19
HETATM   19  C   UNK N   1      34.050  17.131   8.679  0.00  0.00     0.142 C 
BRANCH  19  20
HETATM   20  C   UNK N   1      32.556  17.191   8.474  0.00  0.00     0.058 C 
BRANCH  20  21
HETATM   21  C   UNK N   1      32.304  17.250   7.017  0.00  0.00    -0.057 A 
HETATM   22  C   UNK N   1      33.360  17.478   6.132  0.00  0.00     0.010 A 
HETATM   23  C   UNK N   1      33.111  17.562   4.760  0.00  0.00     0.037 A 
HETATM   24  C   UNK N   1      31.806  17.420   4.276  0.00  0.00     0.065 A 
HETATM   25  C   UNK N   1      30.750  17.189   5.162  0.00  0.00     0.037 A 
HETATM   26  C   UNK N   1      30.999  17.103   6.531  0.00  0.00     0.010 A 
BRANCH  24  27
HETATM   27  O   UNK N   1      31.565  17.505   2.959  0.00  0.00    -0.361 OA
HETATM   28  H   UNK N   1      32.173  17.932   2.388  0.00  0.00     0.217 HD
ENDBRANCH  24  27
ENDBRANCH  20  21
ENDBRANCH  19  20
ENDBRANCH   1  19
BRANCH   5  29
HETATM   29  S   UNK N   1      35.190  12.846  13.169  0.00  0.00    -0.093 SA
BRANCH  29  30
HETATM   30  C   UNK N   1      36.321  13.910  14.156  0.00  0.00     0.082 C 
BRANCH  30  31
HETATM   31  C   UNK N   1      36.529  13.442  15.611  0.00  0.00     0.015 C 
BRANCH  31  32
HETATM   32  C   UNK N   1      35.308  13.666  16.500  0.00  0.00     0.039 C 
BRANCH  32  33
HETATM   33  C   UNK N   1      35.301  12.649  17.578  0.00  0.00    -0.058 A 
HETATM   34  C   UNK N   1      35.395  11.290  17.260  0.00  0.00     0.009 A 
HETATM   35  C   UNK N   1      35.511  10.346  18.279  0.00  0.00     0.024 A 
HETATM   36  C   UNK N   1      35.543  10.762  19.614  0.00  0.00     0.034 A 
HETATM   37 Cl   UNK N   1      35.748   9.583  20.887  0.00  0.00    -0.084 Cl
HETATM   38  C   UNK N   1      35.434  12.119  19.931  0.00  0.00     0.024 A 
HETATM   39  C   UNK N   1      35.312  13.063  18.912  0.00  0.00     0.009 A 
ENDBRANCH  32  33
ENDBRANCH  31  32
ENDBRANCH  30  31
ENDBRANCH  29  30
ENDBRANCH   5  29
TORSDOF 9
ENDMDL
