MODEL 1
REMARK VINA RESULT:      -8.5      0.000      0.000
REMARK  15 active torsions:
REMARK  status: ('A' for Active; 'I' for Inactive)
REMARK    1  A    between atoms: C_8  and  C_4 
REMARK    2  A    between atoms: C_16  and  C_4 
REMARK    3  A    between atoms: C_26  and  C_8 
REMARK    4  A    between atoms: N_40  and  C_16 
REMARK    5  A    between atoms: C_23  and  C_18 
REMARK    6  A    between atoms: C_24  and  C_18 
REMARK    7  A    between atoms: C_22  and  C_19 
REMARK    8  A    between atoms: C_27  and  C_19 
REMARK    9  A    between atoms: N_43  and  C_21 
REMARK   10  A    between atoms: C_21  and  O_51 
REMARK   11  A    between atoms: O_52  and  C_25 
REMARK   12  A    between atoms: C_28  and  N_43 
REMARK   13  A    between atoms: O_53  and  C_30 
REMARK   14  A    between atoms: C_32  and  O_55 
REMARK   15  A    between atoms: C_33  and  O_56 
REMARK       I    between atoms: N_37  and  C_36 
REMARK       I    between atoms: N_39  and  C_36 
REMARK       I    between atoms: N_40  and  C_36 
ROOT
HETATM    1  C   UNK N   1      34.395  12.247   8.428  0.00  0.00     0.022 C 
HETATM    2  C   UNK N   1      35.502  13.228   8.046  0.00  0.00     0.035 C 
HETATM    3  C   UNK N   1      28.466  18.601   6.938  0.00  0.00     0.003 C 
HETATM    4  C   UNK N   1      29.348  17.840   7.597  0.00  0.00     0.053 C 
HETATM    5  C   UNK N   1      33.098  13.035   8.494  0.00  0.00     0.127 C 
HETATM    6  C   UNK N   1      31.965  17.937   8.377  0.00  0.00     0.156 C 
HETATM    7  C   UNK N   1      28.493  18.484   5.432  0.00  0.00     0.110 C 
HETATM    8  C   UNK N   1      33.980  14.269   4.123  0.00  0.00     0.163 C 
HETATM    9  C   UNK N   1      29.223  15.298   3.990  0.00  0.00     0.163 C 
HETATM   10  C   UNK N   1      33.045  16.864   8.472  0.00  0.00     0.193 C 
HETATM   11  C   UNK N   1      34.840  14.576   7.818  0.00  0.00     0.161 C 
HETATM   12  C   UNK N   1      29.673  17.960   9.029  0.00  0.00     0.135 C 
HETATM   13  C   UNK N   1      32.481  14.410   3.935  0.00  0.00     0.238 C 
HETATM   14  C   UNK N   1      28.527  16.626   3.894  0.00  0.00     0.135 C 
HETATM   15  C   UNK N   1      34.831  14.876   6.335  0.00  0.00     0.135 C 
HETATM   16  C   UNK N   1      31.782  15.497   4.660  0.00  0.00     0.290 C 
HETATM   17  C   UNK N   1      32.576  15.425   8.417  0.00  0.00     0.244 C 
HETATM   18  N   UNK N   1      30.915  17.925   9.389  0.00  0.00    -0.369 N 
ATOM     19  HN  UNK N   1      31.159  17.889  10.379  1.00  0.00     0.161 HD
HETATM   20  N   UNK N   1      28.199  17.122   5.039  0.00  0.00    -0.365 N 
ATOM     21  HN  UNK N   1      27.708  16.523   5.704  1.00  0.00     0.162 HD
HETATM   22  N   UNK N   1      34.197  14.070   5.544  0.00  0.00    -0.361 N 
ATOM     23  HN  UNK N   1      33.817  13.219   5.957  1.00  0.00     0.162 HD
HETATM   24  N   UNK N   1      30.444  15.698   4.673  0.00  0.00    -0.342 N 
HETATM   25  N   UNK N   1      33.468  14.397   8.263  0.00  0.00    -0.338 N 
HETATM   26  O   UNK N   1      31.859  13.590   3.278  0.00  0.00    -0.285 OA
HETATM   27  O   UNK N   1      32.459  16.256   5.333  0.00  0.00    -0.264 OA
HETATM   28  O   UNK N   1      31.387  15.169   8.604  0.00  0.00    -0.271 OA
HETATM   29  H   UNK N   1      30.220  16.331   5.392  0.00  0.00     0.163 HD
ENDROOT
BRANCH   8  30
HETATM   30  C   UNK N   1      34.469  13.052   3.354  0.00  0.00     0.035 C 
BRANCH  30  31
HETATM   31  C   UNK N   1      34.799  11.843   4.212  0.00  0.00     0.023 C 
BRANCH  31  32
HETATM   32  C   UNK N   1      33.872  10.695   3.813  0.00  0.00     0.138 C 
BRANCH  32  33
HETATM   33  N   UNK N   1      33.441   9.957   4.981  0.00  0.00    -0.227 N 
HETATM   34  C   UNK N   1      32.320  10.352   5.754  0.00  0.00     0.665 C 
HETATM   35  N   UNK N   1      31.513  11.250   5.322  0.00  0.00    -0.235 N 
HETATM   36  N   UNK N   1      32.123   9.791   7.034  0.00  0.00    -0.235 N 
HETATM   37  H   UNK N   1      31.369  12.124   4.891  0.00  0.00     0.174 HD
ATOM     38  HN  UNK N   1      30.579  10.889   5.517  1.00  0.00     0.174 HD
HETATM   39  H   UNK N   1      31.351   9.217   7.243  0.00  0.00     0.174 HD
HETATM   40  H   UNK N   1      32.780   9.981   7.742  0.00  0.00     0.174 HD
HETATM   41  H   UNK N   1      33.943   9.154   5.248  0.00  0.00     0.177 HD
ENDBRANCH  32  33
ENDBRANCH  31  32
ENDBRANCH  30  31
ENDBRANCH   8  30
BRANCH  15  42
HETATM   42  O   UNK N   1      35.415  16.001   5.866  0.00  0.00    -0.348 OA
HETATM   43  H   UNK N   1      35.700  16.770   5.412  0.00  0.00     0.219 HD
ENDBRANCH  15  42
BRANCH   9  44
HETATM   44  C   UNK N   1      29.390  14.503   2.685  0.00  0.00     0.072 C 
BRANCH  44  45
HETATM   45  C   UNK N   1      28.357  13.481   2.311  0.00  0.00    -0.056 A 
HETATM   46  C   UNK N   1      28.778  12.284   1.725  0.00  0.00     0.007 A 
HETATM   47  C   UNK N   1      27.838  11.344   1.292  0.00  0.00     0.001 A 
HETATM   48  C   UNK N   1      26.473  11.601   1.442  0.00  0.00     0.000 A 
HETATM   49  C   UNK N   1      26.046  12.797   2.027  0.00  0.00     0.001 A 
HETATM   50  C   UNK N   1      26.987  13.737   2.453  0.00  0.00     0.007 A 
ENDBRANCH  44  45
ENDBRANCH   9  44
BRANCH  14  51
HETATM   51  O   UNK N   1      28.862  17.452   2.879  0.00  0.00    -0.348 OA
HETATM   52  H   UNK N   1      29.075  17.498   1.968  0.00  0.00     0.219 HD
ENDBRANCH  14  51
BRANCH  10  53
HETATM   53  N   UNK N   1      33.829  17.069   9.672  0.00  0.00    -0.366 N 
ATOM     54  HN  UNK N   1      33.402  16.912  10.584  1.00  0.00     0.161 HD
BRANCH  53  55
HETATM   55  C   UNK N   1      35.058  17.446   9.605  0.00  0.00     0.219 C 
BRANCH  55  56
HETATM   56  O   UNK N   1      35.369  18.651   9.100  0.00  0.00    -0.357 OA
HETATM   57  H   UNK N   1      34.713  19.292   8.908  0.00  0.00     0.218 HD
ENDBRANCH  55  56
ENDBRANCH  53  55
ENDBRANCH  10  53
BRANCH   7  58
HETATM   58  C   UNK N   1      27.950  19.629   4.592  0.00  0.00     0.067 C 
BRANCH  58  59
HETATM   59  C   UNK N   1      26.547  19.637   4.135  0.00  0.00    -0.056 A 
HETATM   60  C   UNK N   1      26.217  20.464   3.063  0.00  0.00     0.010 A 
HETATM   61  C   UNK N   1      24.881  20.647   2.708  0.00  0.00     0.037 A 
HETATM   62  C   UNK N   1      23.874  20.009   3.438  0.00  0.00     0.065 A 
HETATM   63  C   UNK N   1      24.204  19.180   4.515  0.00  0.00     0.037 A 
HETATM   64  C   UNK N   1      25.542  19.007   4.874  0.00  0.00     0.010 A 
BRANCH  62  65
HETATM   65  O   UNK N   1      22.589  20.199   3.109  0.00  0.00    -0.361 OA
HETATM   66  H   UNK N   1      22.246  21.058   2.959  0.00  0.00     0.217 HD
ENDBRANCH  62  65
ENDBRANCH  58  59
ENDBRANCH   7  58
BRANCH  12  67
HETATM   67  O   UNK N   1      28.710  18.181   9.945  0.00  0.00    -0.346 OA
HETATM   68  H   UNK N   1      27.794  18.279   9.779  0.00  0.00     0.219 HD
ENDBRANCH  12  67
TORSDOF 15
ENDMDL
MODEL 2
REMARK VINA RESULT:      -8.3      1.569      2.002
REMARK  15 active torsions:
REMARK  status: ('A' for Active; 'I' for Inactive)
REMARK    1  A    between atoms: C_8  and  C_4 
REMARK    2  A    between atoms: C_16  and  C_4 
REMARK    3  A    between atoms: C_26  and  C_8 
REMARK    4  A    between atoms: N_40  and  C_16 
REMARK    5  A    between atoms: C_23  and  C_18 
REMARK    6  A    between atoms: C_24  and  C_18 
REMARK    7  A    between atoms: C_22  and  C_19 
REMARK    8  A    between atoms: C_27  and  C_19 
REMARK    9  A    between atoms: N_43  and  C_21 
REMARK   10  A    between atoms: C_21  and  O_51 
REMARK   11  A    between atoms: O_52  and  C_25 
REMARK   12  A    between atoms: C_28  and  N_43 
REMARK   13  A    between atoms: O_53  and  C_30 
REMARK   14  A    between atoms: C_32  and  O_55 
REMARK   15  A    between atoms: C_33  and  O_56 
REMARK       I    between atoms: N_37  and  C_36 
REMARK       I    between atoms: N_39  and  C_36 
REMARK       I    between atoms: N_40  and  C_36 
ROOT
HETATM    1  C   UNK N   1      34.533  11.886   8.460  0.00  0.00     0.022 C 
HETATM    2  C   UNK N   1      35.643  12.894   8.171  0.00  0.00     0.035 C 
HETATM    3  C   UNK N   1      28.598  18.207   6.854  0.00  0.00     0.003 C 
HETATM    4  C   UNK N   1      29.454  17.436   7.535  0.00  0.00     0.053 C 
HETATM    5  C   UNK N   1      33.222  12.655   8.480  0.00  0.00     0.127 C 
HETATM    6  C   UNK N   1      32.023  17.542   8.460  0.00  0.00     0.156 C 
HETATM    7  C   UNK N   1      28.709  18.140   5.348  0.00  0.00     0.110 C 
HETATM    8  C   UNK N   1      34.321  14.044   4.206  0.00  0.00     0.163 C 
HETATM    9  C   UNK N   1      29.564  15.014   3.846  0.00  0.00     0.163 C 
HETATM   10  C   UNK N   1      33.113  16.481   8.579  0.00  0.00     0.193 C 
HETATM   11  C   UNK N   1      34.975  14.240   7.951  0.00  0.00     0.161 C 
HETATM   12  C   UNK N   1      29.700  17.513   8.986  0.00  0.00     0.135 C 
HETATM   13  C   UNK N   1      32.833  14.171   3.941  0.00  0.00     0.238 C 
HETATM   14  C   UNK N   1      28.854  16.335   3.754  0.00  0.00     0.135 C 
HETATM   15  C   UNK N   1      35.042  14.588   6.480  0.00  0.00     0.135 C 
HETATM   16  C   UNK N   1      32.080  15.225   4.661  0.00  0.00     0.290 C 
HETATM   17  C   UNK N   1      32.669  15.038   8.452  0.00  0.00     0.244 C 
HETATM   18  N   UNK N   1      30.921  17.482   9.411  0.00  0.00    -0.369 N 
ATOM     19  HN  UNK N   1      31.111  17.417  10.412  1.00  0.00     0.161 HD
HETATM   20  N   UNK N   1      28.458  16.789   4.896  0.00  0.00    -0.365 N 
ATOM     21  HN  UNK N   1      27.940  16.161   5.513  1.00  0.00     0.162 HD
HETATM   22  N   UNK N   1      34.464  13.801   5.630  0.00  0.00    -0.361 N 
ATOM     23  HN  UNK N   1      34.075  12.931   5.993  1.00  0.00     0.162 HD
HETATM   24  N   UNK N   1      30.740  15.407   4.607  0.00  0.00    -0.342 N 
HETATM   25  N   UNK N   1      33.584  14.028   8.314  0.00  0.00    -0.338 N 
HETATM   26  O   UNK N   1      32.260  13.366   3.224  0.00  0.00    -0.285 OA
HETATM   27  O   UNK N   1      32.707  15.970   5.395  0.00  0.00    -0.264 OA
HETATM   28  O   UNK N   1      31.476  14.760   8.565  0.00  0.00    -0.271 OA
HETATM   29  H   UNK N   1      30.468  16.013   5.333  0.00  0.00     0.163 HD
ENDROOT
BRANCH   8  30
HETATM   30  C   UNK N   1      34.870  12.859   3.426  0.00  0.00     0.035 C 
BRANCH  30  31
HETATM   31  C   UNK N   1      35.971  13.199   2.436  0.00  0.00     0.023 C 
BRANCH  31  32
HETATM   32  C   UNK N   1      35.343  13.891   1.227  0.00  0.00     0.138 C 
BRANCH  32  33
HETATM   33  N   UNK N   1      35.225  12.971   0.116  0.00  0.00    -0.227 N 
HETATM   34  C   UNK N   1      34.015  12.293  -0.178  0.00  0.00     0.665 C 
HETATM   35  N   UNK N   1      32.919  12.634   0.394  0.00  0.00    -0.235 N 
HETATM   36  N   UNK N   1      34.029  11.195  -1.065  0.00  0.00    -0.235 N 
HETATM   37  H   UNK N   1      32.433  12.889   1.211  0.00  0.00     0.174 HD
ATOM     38  HN  UNK N   1      32.220  12.647  -0.349  1.00  0.00     0.174 HD
HETATM   39  H   UNK N   1      33.567  11.217  -1.934  0.00  0.00     0.174 HD
HETATM   40  H   UNK N   1      34.517  10.381  -0.806  0.00  0.00     0.174 HD
HETATM   41  H   UNK N   1      36.010  12.811  -0.454  0.00  0.00     0.177 HD
ENDBRANCH  32  33
ENDBRANCH  31  32
ENDBRANCH  30  31
ENDBRANCH   8  30
BRANCH  15  42
HETATM   42  O   UNK N   1      35.633  15.735   6.080  0.00  0.00    -0.348 OA
HETATM   43  H   UNK N   1      35.972  16.600   5.949  0.00  0.00     0.219 HD
ENDBRANCH  15  42
BRANCH   9  44
HETATM   44  C   UNK N   1      29.814  14.265   2.527  0.00  0.00     0.072 C 
BRANCH  44  45
HETATM   45  C   UNK N   1      28.849  13.200   2.094  0.00  0.00    -0.056 A 
HETATM   46  C   UNK N   1      29.319  12.152   1.297  0.00  0.00     0.007 A 
HETATM   47  C   UNK N   1      28.432  11.187   0.810  0.00  0.00     0.001 A 
HETATM   48  C   UNK N   1      27.071  11.270   1.118  0.00  0.00     0.000 A 
HETATM   49  C   UNK N   1      26.597  12.316   1.913  0.00  0.00     0.001 A 
HETATM   50  C   UNK N   1      27.483  13.282   2.394  0.00  0.00     0.007 A 
ENDBRANCH  44  45
ENDBRANCH   9  44
BRANCH  14  51
HETATM   51  O   UNK N   1      29.232  17.198   2.787  0.00  0.00    -0.348 OA
HETATM   52  H   UNK N   1      29.023  18.003   2.355  0.00  0.00     0.219 HD
ENDBRANCH  14  51
BRANCH  10  53
HETATM   53  N   UNK N   1      33.828  16.656   9.826  0.00  0.00    -0.366 N 
ATOM     54  HN  UNK N   1      33.378  16.397  10.703  1.00  0.00     0.161 HD
BRANCH  53  55
HETATM   55  C   UNK N   1      35.022  17.134   9.844  0.00  0.00     0.219 C 
BRANCH  55  56
HETATM   56  O   UNK N   1      35.294  18.300   9.234  0.00  0.00    -0.357 OA
HETATM   57  H   UNK N   1      34.950  19.114   9.547  0.00  0.00     0.218 HD
ENDBRANCH  55  56
ENDBRANCH  53  55
ENDBRANCH  10  53
BRANCH   7  58
HETATM   58  C   UNK N   1      28.195  19.305   4.517  0.00  0.00     0.067 C 
BRANCH  58  59
HETATM   59  C   UNK N   1      26.778  19.384   4.114  0.00  0.00    -0.056 A 
HETATM   60  C   UNK N   1      26.427  20.328   3.150  0.00  0.00     0.010 A 
HETATM   61  C   UNK N   1      25.084  20.568   2.866  0.00  0.00     0.037 A 
HETATM   62  C   UNK N   1      24.091  19.871   3.558  0.00  0.00     0.065 A 
HETATM   63  C   UNK N   1      24.441  18.925   4.527  0.00  0.00     0.037 A 
HETATM   64  C   UNK N   1      25.787  18.694   4.817  0.00  0.00     0.010 A 
BRANCH  62  65
HETATM   65  O   UNK N   1      22.799  20.115   3.298  0.00  0.00    -0.361 OA
HETATM   66  H   UNK N   1      22.120  19.803   3.864  0.00  0.00     0.217 HD
ENDBRANCH  62  65
ENDBRANCH  58  59
ENDBRANCH   7  58
BRANCH  12  67
HETATM   67  O   UNK N   1      28.685  17.691   9.854  0.00  0.00    -0.346 OA
HETATM   68  H   UNK N   1      28.734  17.639  10.787  0.00  0.00     0.219 HD
ENDBRANCH  12  67
TORSDOF 15
ENDMDL
MODEL 3
REMARK VINA RESULT:      -8.1      1.403      2.097
REMARK  15 active torsions:
REMARK  status: ('A' for Active; 'I' for Inactive)
REMARK    1  A    between atoms: C_8  and  C_4 
REMARK    2  A    between atoms: C_16  and  C_4 
REMARK    3  A    between atoms: C_26  and  C_8 
REMARK    4  A    between atoms: N_40  and  C_16 
REMARK    5  A    between atoms: C_23  and  C_18 
REMARK    6  A    between atoms: C_24  and  C_18 
REMARK    7  A    between atoms: C_22  and  C_19 
REMARK    8  A    between atoms: C_27  and  C_19 
REMARK    9  A    between atoms: N_43  and  C_21 
REMARK   10  A    between atoms: C_21  and  O_51 
REMARK   11  A    between atoms: O_52  and  C_25 
REMARK   12  A    between atoms: C_28  and  N_43 
REMARK   13  A    between atoms: O_53  and  C_30 
REMARK   14  A    between atoms: C_32  and  O_55 
REMARK   15  A    between atoms: C_33  and  O_56 
REMARK       I    between atoms: N_37  and  C_36 
REMARK       I    between atoms: N_39  and  C_36 
REMARK       I    between atoms: N_40  and  C_36 
ROOT
HETATM    1  C   UNK N   1      34.535  11.855   8.373  0.00  0.00     0.022 C 
HETATM    2  C   UNK N   1      35.654  12.845   8.053  0.00  0.00     0.035 C 
HETATM    3  C   UNK N   1      28.659  18.255   6.863  0.00  0.00     0.003 C 
HETATM    4  C   UNK N   1      29.519  17.475   7.529  0.00  0.00     0.053 C 
HETATM    5  C   UNK N   1      33.237  12.643   8.418  0.00  0.00     0.127 C 
HETATM    6  C   UNK N   1      32.109  17.548   8.397  0.00  0.00     0.156 C 
HETATM    7  C   UNK N   1      28.735  18.178   5.356  0.00  0.00     0.110 C 
HETATM    8  C   UNK N   1      34.260  13.994   4.112  0.00  0.00     0.163 C 
HETATM    9  C   UNK N   1      29.510  15.032   3.853  0.00  0.00     0.163 C 
HETATM   10  C   UNK N   1      33.185  16.472   8.497  0.00  0.00     0.193 C 
HETATM   11  C   UNK N   1      35.001  14.200   7.841  0.00  0.00     0.161 C 
HETATM   12  C   UNK N   1      29.798  17.556   8.974  0.00  0.00     0.135 C 
HETATM   13  C   UNK N   1      32.768  14.141   3.880  0.00  0.00     0.238 C 
HETATM   14  C   UNK N   1      28.818  16.362   3.770  0.00  0.00     0.135 C 
HETATM   15  C   UNK N   1      35.040  14.539   6.366  0.00  0.00     0.135 C 
HETATM   16  C   UNK N   1      32.047  15.209   4.611  0.00  0.00     0.290 C 
HETATM   17  C   UNK N   1      32.718  15.035   8.388  0.00  0.00     0.244 C 
HETATM   18  N   UNK N   1      31.027  17.509   9.373  0.00  0.00    -0.369 N 
ATOM     19  HN  UNK N   1      31.239  17.446  10.369  1.00  0.00     0.161 HD
HETATM   20  N   UNK N   1      28.454  16.828   4.917  0.00  0.00    -0.365 N 
ATOM     21  HN  UNK N   1      27.942  16.211   5.549  1.00  0.00     0.162 HD
HETATM   22  N   UNK N   1      34.432  13.756   5.534  0.00  0.00    -0.361 N 
ATOM     23  HN  UNK N   1      34.037  12.894   5.911  1.00  0.00     0.162 HD
HETATM   24  N   UNK N   1      30.709  15.411   4.586  0.00  0.00    -0.342 N 
HETATM   25  N   UNK N   1      33.614  14.010   8.236  0.00  0.00    -0.338 N 
HETATM   26  O   UNK N   1      32.168  13.340   3.181  0.00  0.00    -0.285 OA
HETATM   27  O   UNK N   1      32.701  15.949   5.326  0.00  0.00    -0.264 OA
HETATM   28  O   UNK N   1      31.524  14.775   8.530  0.00  0.00    -0.271 OA
HETATM   29  H   UNK N   1      30.462  16.025   5.314  0.00  0.00     0.163 HD
ENDROOT
BRANCH   8  30
HETATM   30  C   UNK N   1      34.774  12.797   3.327  0.00  0.00     0.035 C 
BRANCH  30  31
HETATM   31  C   UNK N   1      35.914  12.041   3.986  0.00  0.00     0.023 C 
BRANCH  31  32
HETATM   32  C   UNK N   1      37.237  12.636   3.504  0.00  0.00     0.138 C 
BRANCH  32  33
HETATM   33  N   UNK N   1      37.758  13.574   4.474  0.00  0.00    -0.227 N 
HETATM   34  C   UNK N   1      38.629  13.175   5.521  0.00  0.00     0.665 C 
HETATM   35  N   UNK N   1      39.162  12.009   5.517  0.00  0.00    -0.235 N 
HETATM   36  N   UNK N   1      38.863  14.048   6.604  0.00  0.00    -0.235 N 
HETATM   37  H   UNK N   1      39.074  11.037   5.385  0.00  0.00     0.174 HD
ATOM     38  HN  UNK N   1      40.138  12.159   5.771  1.00  0.00     0.174 HD
HETATM   39  H   UNK N   1      39.750  14.439   6.781  0.00  0.00     0.174 HD
HETATM   40  H   UNK N   1      38.116  14.275   7.202  0.00  0.00     0.174 HD
HETATM   41  H   UNK N   1      37.501  14.522   4.406  0.00  0.00     0.177 HD
ENDBRANCH  32  33
ENDBRANCH  31  32
ENDBRANCH  30  31
ENDBRANCH   8  30
BRANCH  15  42
HETATM   42  O   UNK N   1      35.638  15.676   5.947  0.00  0.00    -0.348 OA
HETATM   43  H   UNK N   1      36.015  16.405   5.495  0.00  0.00     0.219 HD
ENDBRANCH  15  42
BRANCH   9  44
HETATM   44  C   UNK N   1      29.720  14.271   2.533  0.00  0.00     0.072 C 
BRANCH  44  45
HETATM   45  C   UNK N   1      28.725  13.226   2.123  0.00  0.00    -0.056 A 
HETATM   46  C   UNK N   1      29.146  12.192   1.281  0.00  0.00     0.007 A 
HETATM   47  C   UNK N   1      28.227  11.246   0.815  0.00  0.00     0.001 A 
HETATM   48  C   UNK N   1      26.884  11.334   1.190  0.00  0.00     0.000 A 
HETATM   49  C   UNK N   1      26.458  12.366   2.031  0.00  0.00     0.001 A 
HETATM   50  C   UNK N   1      27.376  13.313   2.490  0.00  0.00     0.007 A 
ENDBRANCH  44  45
ENDBRANCH   9  44
BRANCH  14  51
HETATM   51  O   UNK N   1      29.187  17.215   2.790  0.00  0.00    -0.348 OA
HETATM   52  H   UNK N   1      29.892  17.484   2.234  0.00  0.00     0.219 HD
ENDBRANCH  14  51
BRANCH  10  53
HETATM   53  N   UNK N   1      33.930  16.643   9.727  0.00  0.00    -0.366 N 
ATOM     54  HN  UNK N   1      33.551  16.276  10.600  1.00  0.00     0.161 HD
BRANCH  53  55
HETATM   55  C   UNK N   1      35.065  17.250   9.736  0.00  0.00     0.219 C 
BRANCH  55  56
HETATM   56  O   UNK N   1      36.043  16.846  10.564  0.00  0.00    -0.357 OA
HETATM   57  H   UNK N   1      36.181  17.247  11.400  0.00  0.00     0.218 HD
ENDBRANCH  55  56
ENDBRANCH  53  55
ENDBRANCH  10  53
BRANCH   7  58
HETATM   58  C   UNK N   1      28.220  19.346   4.530  0.00  0.00     0.067 C 
BRANCH  58  59
HETATM   59  C   UNK N   1      26.805  19.421   4.121  0.00  0.00    -0.056 A 
HETATM   60  C   UNK N   1      26.460  20.343   3.134  0.00  0.00     0.010 A 
HETATM   61  C   UNK N   1      25.119  20.582   2.840  0.00  0.00     0.037 A 
HETATM   62  C   UNK N   1      24.121  19.906   3.546  0.00  0.00     0.065 A 
HETATM   63  C   UNK N   1      24.465  18.982   4.538  0.00  0.00     0.037 A 
HETATM   64  C   UNK N   1      25.809  18.752   4.838  0.00  0.00     0.010 A 
BRANCH  62  65
HETATM   65  O   UNK N   1      22.830  20.149   3.276  0.00  0.00    -0.361 OA
HETATM   66  H   UNK N   1      22.476  21.015   3.331  0.00  0.00     0.217 HD
ENDBRANCH  62  65
ENDBRANCH  58  59
ENDBRANCH   7  58
BRANCH  12  67
HETATM   67  O   UNK N   1      28.805  17.753   9.864  0.00  0.00    -0.346 OA
HETATM   68  H   UNK N   1      28.151  18.422   9.831  0.00  0.00     0.219 HD
ENDBRANCH  12  67
TORSDOF 15
ENDMDL
MODEL 4
REMARK VINA RESULT:      -8.0      4.403      9.395
REMARK  15 active torsions:
REMARK  status: ('A' for Active; 'I' for Inactive)
REMARK    1  A    between atoms: C_8  and  C_4 
REMARK    2  A    between atoms: C_16  and  C_4 
REMARK    3  A    between atoms: C_26  and  C_8 
REMARK    4  A    between atoms: N_40  and  C_16 
REMARK    5  A    between atoms: C_23  and  C_18 
REMARK    6  A    between atoms: C_24  and  C_18 
REMARK    7  A    between atoms: C_22  and  C_19 
REMARK    8  A    between atoms: C_27  and  C_19 
REMARK    9  A    between atoms: N_43  and  C_21 
REMARK   10  A    between atoms: C_21  and  O_51 
REMARK   11  A    between atoms: O_52  and  C_25 
REMARK   12  A    between atoms: C_28  and  N_43 
REMARK   13  A    between atoms: O_53  and  C_30 
REMARK   14  A    between atoms: C_32  and  O_55 
REMARK   15  A    between atoms: C_33  and  O_56 
REMARK       I    between atoms: N_37  and  C_36 
REMARK       I    between atoms: N_39  and  C_36 
REMARK       I    between atoms: N_40  and  C_36 
ROOT
HETATM    1  C   UNK N   1      19.514  14.553   3.224  0.00  0.00     0.022 C 
HETATM    2  C   UNK N   1      19.275  14.873   4.699  0.00  0.00     0.035 C 
HETATM    3  C   UNK N   1      27.298  18.661   3.757  0.00  0.00     0.003 C 
HETATM    4  C   UNK N   1      25.985  18.484   3.568  0.00  0.00     0.053 C 
HETATM    5  C   UNK N   1      20.770  15.295   2.800  0.00  0.00     0.127 C 
HETATM    6  C   UNK N   1      23.648  18.824   4.942  0.00  0.00     0.156 C 
HETATM    7  C   UNK N   1      28.020  17.529   4.452  0.00  0.00     0.110 C 
HETATM    8  C   UNK N   1      22.891  13.050   6.246  0.00  0.00     0.163 C 
HETATM    9  C   UNK N   1      26.949  14.183   3.806  0.00  0.00     0.163 C 
HETATM   10  C   UNK N   1      22.357  18.014   4.981  0.00  0.00     0.193 C 
HETATM   11  C   UNK N   1      20.432  15.744   5.156  0.00  0.00     0.161 C 
HETATM   12  C   UNK N   1      25.038  19.530   3.141  0.00  0.00     0.135 C 
HETATM   13  C   UNK N   1      24.173  13.175   5.444  0.00  0.00     0.238 C 
HETATM   14  C   UNK N   1      28.055  15.134   4.165  0.00  0.00     0.135 C 
HETATM   15  C   UNK N   1      21.336  14.929   6.056  0.00  0.00     0.135 C 
HETATM   16  C   UNK N   1      24.754  14.525   5.257  0.00  0.00     0.290 C 
HETATM   17  C   UNK N   1      22.161  16.998   3.874  0.00  0.00     0.244 C 
HETATM   18  N   UNK N   1      23.903  19.626   3.751  0.00  0.00    -0.369 N 
ATOM     19  HN  UNK N   1      23.186  20.262   3.400  1.00  0.00     0.161 HD
HETATM   20  N   UNK N   1      27.900  16.317   3.671  0.00  0.00    -0.365 N 
ATOM     21  HN  UNK N   1      27.681  16.401   2.678  1.00  0.00     0.162 HD
HETATM   22  N   UNK N   1      21.904  13.872   5.571  0.00  0.00    -0.361 N 
ATOM     23  HN  UNK N   1      21.632  13.591   4.628  1.00  0.00     0.162 HD
HETATM   24  N   UNK N   1      25.834  14.816   4.494  0.00  0.00    -0.342 N 
HETATM   25  N   UNK N   1      21.159  16.067   3.940  0.00  0.00    -0.338 N 
HETATM   26  O   UNK N   1      24.656  12.199   4.892  0.00  0.00    -0.285 OA
HETATM   27  O   UNK N   1      24.197  15.464   5.801  0.00  0.00    -0.264 OA
HETATM   28  O   UNK N   1      22.854  17.068   2.860  0.00  0.00    -0.271 OA
HETATM   29  H   UNK N   1      25.880  15.789   4.357  0.00  0.00     0.163 HD
ENDROOT
BRANCH   8  30
HETATM   30  C   UNK N   1      22.438  11.599   6.244  0.00  0.00     0.035 C 
BRANCH  30  31
HETATM   31  C   UNK N   1      23.022  10.745   7.356  0.00  0.00     0.023 C 
BRANCH  31  32
HETATM   32  C   UNK N   1      22.904  11.511   8.673  0.00  0.00     0.138 C 
BRANCH  32  33
HETATM   33  N   UNK N   1      24.208  11.927   9.141  0.00  0.00    -0.227 N 
HETATM   34  C   UNK N   1      24.400  12.525  10.413  0.00  0.00     0.665 C 
HETATM   35  N   UNK N   1      23.460  12.520  11.285  0.00  0.00    -0.235 N 
HETATM   36  N   UNK N   1      25.616  13.181  10.698  0.00  0.00    -0.235 N 
HETATM   37  H   UNK N   1      22.508  12.644  11.506  0.00  0.00     0.174 HD
ATOM     38  HN  UNK N   1      23.911  12.269  12.165  1.00  0.00     0.174 HD
HETATM   39  H   UNK N   1      26.240  12.855  11.387  0.00  0.00     0.174 HD
HETATM   40  H   UNK N   1      25.849  13.992  10.191  0.00  0.00     0.174 HD
HETATM   41  H   UNK N   1      24.989  11.789   8.558  0.00  0.00     0.177 HD
ENDBRANCH  32  33
ENDBRANCH  31  32
ENDBRANCH  30  31
ENDBRANCH   8  30
BRANCH  15  42
HETATM   42  O   UNK N   1      21.594  15.345   7.315  0.00  0.00    -0.348 OA
HETATM   43  H   UNK N   1      21.881  15.749   8.111  0.00  0.00     0.219 HD
ENDBRANCH  15  42
BRANCH   9  44
HETATM   44  C   UNK N   1      27.188  12.693   4.102  0.00  0.00     0.072 C 
BRANCH  44  45
HETATM   45  C   UNK N   1      27.514  11.764   2.971  0.00  0.00    -0.056 A 
HETATM   46  C   UNK N   1      28.167  12.278   1.846  0.00  0.00     0.007 A 
HETATM   47  C   UNK N   1      28.414  11.458   0.741  0.00  0.00     0.001 A 
HETATM   48  C   UNK N   1      28.006  10.122   0.757  0.00  0.00     0.000 A 
HETATM   49  C   UNK N   1      27.352   9.603   1.878  0.00  0.00     0.001 A 
HETATM   50  C   UNK N   1      27.100  10.425   2.978  0.00  0.00     0.007 A 
ENDBRANCH  44  45
ENDBRANCH   9  44
BRANCH  14  51
HETATM   51  O   UNK N   1      28.665  14.984   5.360  0.00  0.00    -0.348 OA
HETATM   52  H   UNK N   1      29.375  15.274   5.899  0.00  0.00     0.219 HD
ENDBRANCH  14  51
BRANCH  10  53
HETATM   53  N   UNK N   1      21.221  18.911   5.016  0.00  0.00    -0.366 N 
ATOM     54  HN  UNK N   1      20.816  19.174   5.914  1.00  0.00     0.161 HD
BRANCH  53  55
HETATM   55  C   UNK N   1      20.714  19.382   3.931  0.00  0.00     0.219 C 
BRANCH  55  56
HETATM   56  O   UNK N   1      20.953  20.653   3.568  0.00  0.00    -0.357 OA
HETATM   57  H   UNK N   1      20.988  20.913   2.668  0.00  0.00     0.218 HD
ENDBRANCH  55  56
ENDBRANCH  53  55
ENDBRANCH  10  53
BRANCH   7  58
HETATM   58  C   UNK N   1      29.327  17.819   5.172  0.00  0.00     0.067 C 
BRANCH  58  59
HETATM   59  C   UNK N   1      29.394  17.840   6.646  0.00  0.00    -0.056 A 
HETATM   60  C   UNK N   1      28.346  18.447   7.337  0.00  0.00     0.010 A 
HETATM   61  C   UNK N   1      28.445  18.655   8.712  0.00  0.00     0.037 A 
HETATM   62  C   UNK N   1      29.601  18.264   9.393  0.00  0.00     0.065 A 
HETATM   63  C   UNK N   1      30.653  17.656   8.701  0.00  0.00     0.037 A 
HETATM   64  C   UNK N   1      30.556  17.459   7.322  0.00  0.00     0.010 A 
BRANCH  62  65
HETATM   65  O   UNK N   1      29.703  18.481  10.712  0.00  0.00    -0.361 OA
HETATM   66  H   UNK N   1      29.681  17.772  11.325  0.00  0.00     0.217 HD
ENDBRANCH  62  65
ENDBRANCH  58  59
ENDBRANCH   7  58
BRANCH  12  67
HETATM   67  O   UNK N   1      25.372  20.423   2.188  0.00  0.00    -0.346 OA
HETATM   68  H   UNK N   1      25.486  21.344   2.302  0.00  0.00     0.219 HD
ENDBRANCH  12  67
TORSDOF 15
ENDMDL
MODEL 5
REMARK VINA RESULT:      -7.6      7.850     11.989
REMARK  15 active torsions:
REMARK  status: ('A' for Active; 'I' for Inactive)
REMARK    1  A    between atoms: C_8  and  C_4 
REMARK    2  A    between atoms: C_16  and  C_4 
REMARK    3  A    between atoms: C_26  and  C_8 
REMARK    4  A    between atoms: N_40  and  C_16 
REMARK    5  A    between atoms: C_23  and  C_18 
REMARK    6  A    between atoms: C_24  and  C_18 
REMARK    7  A    between atoms: C_22  and  C_19 
REMARK    8  A    between atoms: C_27  and  C_19 
REMARK    9  A    between atoms: N_43  and  C_21 
REMARK   10  A    between atoms: C_21  and  O_51 
REMARK   11  A    between atoms: O_52  and  C_25 
REMARK   12  A    between atoms: C_28  and  N_43 
REMARK   13  A    between atoms: O_53  and  C_30 
REMARK   14  A    between atoms: C_32  and  O_55 
REMARK   15  A    between atoms: C_33  and  O_56 
REMARK       I    between atoms: N_37  and  C_36 
REMARK       I    between atoms: N_39  and  C_36 
REMARK       I    between atoms: N_40  and  C_36 
ROOT
HETATM    1  C   UNK N   1      22.630  18.672   4.757  0.00  0.00     0.022 C 
HETATM    2  C   UNK N   1      21.122  18.484   4.907  0.00  0.00     0.035 C 
HETATM    3  C   UNK N   1      23.783  10.427   7.665  0.00  0.00     0.003 C 
HETATM    4  C   UNK N   1      23.636  11.757   7.694  0.00  0.00     0.053 C 
HETATM    5  C   UNK N   1      23.298  17.453   5.372  0.00  0.00     0.127 C 
HETATM    6  C   UNK N   1      21.668  13.595   8.161  0.00  0.00     0.156 C 
HETATM    7  C   UNK N   1      23.413   9.755   6.363  0.00  0.00     0.110 C 
HETATM    8  C   UNK N   1      20.761  14.951   2.421  0.00  0.00     0.163 C 
HETATM    9  C   UNK N   1      24.066  11.488   3.309  0.00  0.00     0.163 C 
HETATM   10  C   UNK N   1      21.367  14.953   7.535  0.00  0.00     0.193 C 
HETATM   11  C   UNK N   1      20.905  17.123   5.544  0.00  0.00     0.161 C 
HETATM   12  C   UNK N   1      23.698  12.594   8.906  0.00  0.00     0.135 C 
HETATM   13  C   UNK N   1      21.857  13.904   2.477  0.00  0.00     0.238 C 
HETATM   14  C   UNK N   1      23.924  10.187   4.045  0.00  0.00     0.135 C 
HETATM   15  C   UNK N   1      20.356  16.173   4.502  0.00  0.00     0.135 C 
HETATM   16  C   UNK N   1      22.063  13.171   3.749  0.00  0.00     0.290 C 
HETATM   17  C   UNK N   1      22.474  15.580   6.712  0.00  0.00     0.244 C 
HETATM   18  N   UNK N   1      22.803  13.513   9.072  0.00  0.00    -0.369 N 
ATOM     19  HN  UNK N   1      22.891  14.178   9.841  1.00  0.00     0.161 HD
HETATM   20  N   UNK N   1      24.245  10.261   5.293  0.00  0.00    -0.365 N 
ATOM     21  HN  UNK N   1      25.133  10.700   5.538  1.00  0.00     0.162 HD
HETATM   22  N   UNK N   1      21.071  15.925   3.451  0.00  0.00    -0.361 N 
ATOM     23  HN  UNK N   1      21.931  16.462   3.338  1.00  0.00     0.162 HD
HETATM   24  N   UNK N   1      23.052  12.280   3.990  0.00  0.00    -0.342 N 
HETATM   25  N   UNK N   1      22.234  16.674   5.925  0.00  0.00    -0.338 N 
HETATM   26  O   UNK N   1      22.606  13.739   1.527  0.00  0.00    -0.285 OA
HETATM   27  O   UNK N   1      21.305  13.415   4.673  0.00  0.00    -0.264 OA
HETATM   28  O   UNK N   1      23.623  15.156   6.823  0.00  0.00    -0.271 OA
HETATM   29  H   UNK N   1      23.104  12.109   4.957  0.00  0.00     0.163 HD
ENDROOT
BRANCH   8  30
HETATM   30  C   UNK N   1      20.780  15.624   1.057  0.00  0.00     0.035 C 
BRANCH  30  31
HETATM   31  C   UNK N   1      19.694  16.664   0.841  0.00  0.00     0.023 C 
BRANCH  31  32
HETATM   32  C   UNK N   1      20.355  17.986   0.454  0.00  0.00     0.138 C 
BRANCH  32  33
HETATM   33  N   UNK N   1      20.378  18.895   1.580  0.00  0.00    -0.227 N 
HETATM   34  C   UNK N   1      20.589  20.288   1.423  0.00  0.00     0.665 C 
HETATM   35  N   UNK N   1      20.549  20.827   0.260  0.00  0.00    -0.235 N 
HETATM   36  N   UNK N   1      20.903  21.077   2.550  0.00  0.00    -0.235 N 
HETATM   37  H   UNK N   1      20.797  20.807  -0.693  0.00  0.00     0.174 HD
ATOM     38  HN  UNK N   1      20.003  21.681   0.378  1.00  0.00     0.174 HD
HETATM   39  H   UNK N   1      20.300  21.780   2.883  0.00  0.00     0.174 HD
HETATM   40  H   UNK N   1      21.754  20.919   3.019  0.00  0.00     0.174 HD
HETATM   41  H   UNK N   1      20.242  18.534   2.485  0.00  0.00     0.177 HD
ENDBRANCH  32  33
ENDBRANCH  31  32
ENDBRANCH  30  31
ENDBRANCH   8  30
BRANCH  15  42
HETATM   42  O   UNK N   1      19.176  15.548   4.707  0.00  0.00    -0.348 OA
HETATM   43  H   UNK N   1      18.351  15.210   4.998  0.00  0.00     0.219 HD
ENDBRANCH  15  42
BRANCH   9  44
HETATM   44  C   UNK N   1      23.985  11.433   1.775  0.00  0.00     0.072 C 
BRANCH  44  45
HETATM   45  C   UNK N   1      24.907  10.519   1.024  0.00  0.00    -0.056 A 
HETATM   46  C   UNK N   1      24.353   9.556   0.175  0.00  0.00     0.007 A 
HETATM   47  C   UNK N   1      25.179   8.636  -0.478  0.00  0.00     0.001 A 
HETATM   48  C   UNK N   1      26.562   8.676  -0.281  0.00  0.00     0.000 A 
HETATM   49  C   UNK N   1      27.120   9.635   0.567  0.00  0.00     0.001 A 
HETATM   50  C   UNK N   1      26.293  10.550   1.224  0.00  0.00     0.007 A 
ENDBRANCH  44  45
ENDBRANCH   9  44
BRANCH  14  51
HETATM   51  O   UNK N   1      22.951   9.335   3.656  0.00  0.00    -0.348 OA
HETATM   52  H   UNK N   1      22.472   8.563   3.886  0.00  0.00     0.219 HD
ENDBRANCH  14  51
BRANCH  10  53
HETATM   53  N   UNK N   1      20.949  15.881   8.565  0.00  0.00    -0.366 N 
ATOM     54  HN  UNK N   1      21.653  16.391   9.098  1.00  0.00     0.161 HD
BRANCH  53  55
HETATM   55  C   UNK N   1      19.702  16.073   8.819  0.00  0.00     0.219 C 
BRANCH  55  56
HETATM   56  O   UNK N   1      18.787  15.956   7.842  0.00  0.00    -0.357 OA
HETATM   57  H   UNK N   1      17.883  16.158   7.983  0.00  0.00     0.218 HD
ENDBRANCH  55  56
ENDBRANCH  53  55
ENDBRANCH  10  53
BRANCH   7  58
HETATM   58  C   UNK N   1      23.038   8.281   6.374  0.00  0.00     0.067 C 
BRANCH  58  59
HETATM   59  C   UNK N   1      24.035   7.246   6.709  0.00  0.00    -0.056 A 
HETATM   60  C   UNK N   1      23.904   6.586   7.930  0.00  0.00     0.010 A 
HETATM   61  C   UNK N   1      24.915   5.734   8.374  0.00  0.00     0.037 A 
HETATM   62  C   UNK N   1      26.063   5.553   7.598  0.00  0.00     0.065 A 
HETATM   63  C   UNK N   1      26.196   6.216   6.374  0.00  0.00     0.037 A 
HETATM   64  C   UNK N   1      25.187   7.076   5.936  0.00  0.00     0.010 A 
BRANCH  62  65
HETATM   65  O   UNK N   1      27.042   4.748   8.034  0.00  0.00    -0.361 OA
HETATM   66  H   UNK N   1      27.173   3.897   7.665  0.00  0.00     0.217 HD
ENDBRANCH  62  65
ENDBRANCH  58  59
ENDBRANCH   7  58
BRANCH  12  67
HETATM   67  O   UNK N   1      24.616  12.362   9.864  0.00  0.00    -0.346 OA
HETATM   68  H   UNK N   1      25.544  12.315   9.748  0.00  0.00     0.219 HD
ENDBRANCH  12  67
TORSDOF 15
ENDMDL
MODEL 6
REMARK VINA RESULT:      -7.5      3.555      7.150
REMARK  15 active torsions:
REMARK  status: ('A' for Active; 'I' for Inactive)
REMARK    1  A    between atoms: C_8  and  C_4 
REMARK    2  A    between atoms: C_16  and  C_4 
REMARK    3  A    between atoms: C_26  and  C_8 
REMARK    4  A    between atoms: N_40  and  C_16 
REMARK    5  A    between atoms: C_23  and  C_18 
REMARK    6  A    between atoms: C_24  and  C_18 
REMARK    7  A    between atoms: C_22  and  C_19 
REMARK    8  A    between atoms: C_27  and  C_19 
REMARK    9  A    between atoms: N_43  and  C_21 
REMARK   10  A    between atoms: C_21  and  O_51 
REMARK   11  A    between atoms: O_52  and  C_25 
REMARK   12  A    between atoms: C_28  and  N_43 
REMARK   13  A    between atoms: O_53  and  C_30 
REMARK   14  A    between atoms: C_32  and  O_55 
REMARK   15  A    between atoms: C_33  and  O_56 
REMARK       I    between atoms: N_37  and  C_36 
REMARK       I    between atoms: N_39  and  C_36 
REMARK       I    between atoms: N_40  and  C_36 
ROOT
HETATM    1  C   UNK N   1      33.945  13.017   1.975  0.00  0.00     0.022 C 
HETATM    2  C   UNK N   1      34.351  12.414   3.319  0.00  0.00     0.035 C 
HETATM    3  C   UNK N   1      25.578  13.169   4.754  0.00  0.00     0.003 C 
HETATM    4  C   UNK N   1      26.703  12.712   4.192  0.00  0.00     0.053 C 
HETATM    5  C   UNK N   1      32.426  13.046   1.936  0.00  0.00     0.127 C 
HETATM    6  C   UNK N   1      28.806  11.089   4.833  0.00  0.00     0.156 C 
HETATM    7  C   UNK N   1      25.729  14.396   5.623  0.00  0.00     0.110 C 
HETATM    8  C   UNK N   1      32.677  15.519   5.839  0.00  0.00     0.163 C 
HETATM    9  C   UNK N   1      28.140  16.856   4.682  0.00  0.00     0.163 C 
HETATM   10  C   UNK N   1      30.291  11.157   4.493  0.00  0.00     0.193 C 
HETATM   11  C   UNK N   1      33.071  12.158   4.095  0.00  0.00     0.161 C 
HETATM   12  C   UNK N   1      26.849  11.411   3.514  0.00  0.00     0.135 C 
HETATM   13  C   UNK N   1      31.354  16.147   5.442  0.00  0.00     0.238 C 
HETATM   14  C   UNK N   1      26.837  16.521   5.349  0.00  0.00     0.135 C 
HETATM   15  C   UNK N   1      32.963  13.170   5.214  0.00  0.00     0.135 C 
HETATM   16  C   UNK N   1      30.144  15.290   5.436  0.00  0.00     0.290 C 
HETATM   17  C   UNK N   1      30.687  12.097   3.373  0.00  0.00     0.244 C 
HETATM   18  N   UNK N   1      27.891  10.691   3.770  0.00  0.00    -0.369 N 
ATOM     19  HN  UNK N   1      28.073   9.845   3.229  1.00  0.00     0.161 HD
HETATM   20  N   UNK N   1      26.243  15.496   4.836  0.00  0.00    -0.365 N 
ATOM     21  HN  UNK N   1      26.131  15.458   3.822  1.00  0.00     0.162 HD
HETATM   22  N   UNK N   1      32.907  14.427   4.910  0.00  0.00    -0.361 N 
ATOM     23  HN  UNK N   1      33.035  14.673   3.928  1.00  0.00     0.162 HD
HETATM   24  N   UNK N   1      28.915  15.671   5.020  0.00  0.00    -0.342 N 
HETATM   25  N   UNK N   1      32.001  12.405   3.142  0.00  0.00    -0.338 N 
HETATM   26  O   UNK N   1      31.309  17.302   5.050  0.00  0.00    -0.285 OA
HETATM   27  O   UNK N   1      30.267  14.133   5.800  0.00  0.00    -0.264 OA
HETATM   28  O   UNK N   1      29.825  12.517   2.603  0.00  0.00    -0.271 OA
HETATM   29  H   UNK N   1      28.350  14.873   4.906  0.00  0.00     0.163 HD
ENDROOT
BRANCH   8  30
HETATM   30  C   UNK N   1      33.784  16.552   5.700  0.00  0.00     0.035 C 
BRANCH  30  31
HETATM   31  C   UNK N   1      33.986  17.440   6.915  0.00  0.00     0.023 C 
BRANCH  31  32
HETATM   32  C   UNK N   1      33.362  16.754   8.129  0.00  0.00     0.138 C 
BRANCH  32  33
HETATM   33  N   UNK N   1      33.963  17.236   9.354  0.00  0.00    -0.227 N 
HETATM   34  C   UNK N   1      34.950  16.495  10.054  0.00  0.00     0.665 C 
HETATM   35  N   UNK N   1      35.506  15.474   9.513  0.00  0.00    -0.235 N 
HETATM   36  N   UNK N   1      35.280  16.852  11.379  0.00  0.00    -0.235 N 
HETATM   37  H   UNK N   1      35.426  14.641   8.993  0.00  0.00     0.174 HD
ATOM     38  HN  UNK N   1      36.500  15.568   9.719  1.00  0.00     0.174 HD
HETATM   39  H   UNK N   1      36.171  17.191  11.625  0.00  0.00     0.174 HD
HETATM   40  H   UNK N   1      34.596  16.760  12.080  0.00  0.00     0.174 HD
HETATM   41  H   UNK N   1      33.679  18.106   9.713  0.00  0.00     0.177 HD
ENDBRANCH  32  33
ENDBRANCH  31  32
ENDBRANCH  30  31
ENDBRANCH   8  30
BRANCH  15  42
HETATM   42  O   UNK N   1      32.857  12.756   6.496  0.00  0.00    -0.348 OA
HETATM   43  H   UNK N   1      32.611  12.461   7.351  0.00  0.00     0.219 HD
ENDBRANCH  15  42
BRANCH   9  44
HETATM   44  C   UNK N   1      28.770  18.216   5.028  0.00  0.00     0.072 C 
BRANCH  44  45
HETATM   45  C   UNK N   1      27.880  19.404   5.239  0.00  0.00    -0.056 A 
HETATM   46  C   UNK N   1      27.831  19.991   6.508  0.00  0.00     0.007 A 
HETATM   47  C   UNK N   1      26.953  21.049   6.760  0.00  0.00     0.001 A 
HETATM   48  C   UNK N   1      26.119  21.522   5.744  0.00  0.00     0.000 A 
HETATM   49  C   UNK N   1      26.162  20.939   4.475  0.00  0.00     0.001 A 
HETATM   50  C   UNK N   1      27.036  19.878   4.226  0.00  0.00     0.007 A 
ENDBRANCH  44  45
ENDBRANCH   9  44
BRANCH  14  51
HETATM   51  O   UNK N   1      26.710  16.775   6.669  0.00  0.00    -0.348 OA
HETATM   52  H   UNK N   1      26.938  17.365   7.361  0.00  0.00     0.219 HD
ENDBRANCH  14  51
BRANCH  10  53
HETATM   53  N   UNK N   1      30.785   9.827   4.202  0.00  0.00    -0.366 N 
ATOM     54  HN  UNK N   1      30.678   9.446   3.263  1.00  0.00     0.161 HD
BRANCH  53  55
HETATM   55  C   UNK N   1      31.357   9.118   5.111  0.00  0.00     0.219 C 
BRANCH  55  56
HETATM   56  O   UNK N   1      31.765   9.689   6.257  0.00  0.00    -0.357 OA
HETATM   57  H   UNK N   1      31.174  10.157   6.815  0.00  0.00     0.218 HD
ENDBRANCH  55  56
ENDBRANCH  53  55
ENDBRANCH  10  53
BRANCH   7  58
HETATM   58  C   UNK N   1      24.685  14.676   6.692  0.00  0.00     0.067 C 
BRANCH  58  59
HETATM   59  C   UNK N   1      24.278  13.631   7.650  0.00  0.00    -0.056 A 
HETATM   60  C   UNK N   1      23.033  13.030   7.469  0.00  0.00     0.010 A 
HETATM   61  C   UNK N   1      22.524  12.172   8.442  0.00  0.00     0.037 A 
HETATM   62  C   UNK N   1      23.259  11.924   9.605  0.00  0.00     0.065 A 
HETATM   63  C   UNK N   1      24.508  12.527   9.788  0.00  0.00     0.037 A 
HETATM   64  C   UNK N   1      25.010  13.395   8.817  0.00  0.00     0.010 A 
BRANCH  62  65
HETATM   65  O   UNK N   1      22.762  11.113  10.549  0.00  0.00    -0.361 OA
HETATM   66  H   UNK N   1      21.968  11.321  11.001  0.00  0.00     0.217 HD
ENDBRANCH  62  65
ENDBRANCH  58  59
ENDBRANCH   7  58
BRANCH  12  67
HETATM   67  O   UNK N   1      25.883  10.939   2.701  0.00  0.00    -0.346 OA
HETATM   68  H   UNK N   1      25.265  10.265   2.903  0.00  0.00     0.219 HD
ENDBRANCH  12  67
TORSDOF 15
ENDMDL
MODEL 7
REMARK VINA RESULT:      -7.4      4.294     10.350
REMARK  15 active torsions:
REMARK  status: ('A' for Active; 'I' for Inactive)
REMARK    1  A    between atoms: C_8  and  C_4 
REMARK    2  A    between atoms: C_16  and  C_4 
REMARK    3  A    between atoms: C_26  and  C_8 
REMARK    4  A    between atoms: N_40  and  C_16 
REMARK    5  A    between atoms: C_23  and  C_18 
REMARK    6  A    between atoms: C_24  and  C_18 
REMARK    7  A    between atoms: C_22  and  C_19 
REMARK    8  A    between atoms: C_27  and  C_19 
REMARK    9  A    between atoms: N_43  and  C_21 
REMARK   10  A    between atoms: C_21  and  O_51 
REMARK   11  A    between atoms: O_52  and  C_25 
REMARK   12  A    between atoms: C_28  and  N_43 
REMARK   13  A    between atoms: O_53  and  C_30 
REMARK   14  A    between atoms: C_32  and  O_55 
REMARK   15  A    between atoms: C_33  and  O_56 
REMARK       I    between atoms: N_37  and  C_36 
REMARK       I    between atoms: N_39  and  C_36 
REMARK       I    between atoms: N_40  and  C_36 
ROOT
HETATM    1  C   UNK N   1      21.735  10.771   4.284  0.00  0.00     0.022 C 
HETATM    2  C   UNK N   1      21.849  10.407   2.805  0.00  0.00     0.035 C 
HETATM    3  C   UNK N   1      30.368  12.564   4.348  0.00  0.00     0.003 C 
HETATM    4  C   UNK N   1      29.234  11.861   4.448  0.00  0.00     0.053 C 
HETATM    5  C   UNK N   1      23.146  10.988   4.805  0.00  0.00     0.127 C 
HETATM    6  C   UNK N   1      27.741  10.145   2.935  0.00  0.00     0.156 C 
HETATM    7  C   UNK N   1      30.248  13.912   3.675  0.00  0.00     0.110 C 
HETATM    8  C   UNK N   1      23.571  14.148   1.452  0.00  0.00     0.163 C 
HETATM    9  C   UNK N   1      27.256  15.798   4.174  0.00  0.00     0.163 C 
HETATM   10  C   UNK N   1      26.235   9.949   2.794  0.00  0.00     0.193 C 
HETATM   11  C   UNK N   1      23.322  10.481   2.443  0.00  0.00     0.161 C 
HETATM   12  C   UNK N   1      29.143  10.442   4.838  0.00  0.00     0.135 C 
HETATM   13  C   UNK N   1      24.585  14.848   2.338  0.00  0.00     0.238 C 
HETATM   14  C   UNK N   1      28.734  15.776   3.909  0.00  0.00     0.135 C 
HETATM   15  C   UNK N   1      23.557  11.705   1.585  0.00  0.00     0.135 C 
HETATM   16  C   UNK N   1      25.878  14.172   2.593  0.00  0.00     0.290 C 
HETATM   17  C   UNK N   1      25.367  10.583   3.863  0.00  0.00     0.244 C 
HETATM   18  N   UNK N   1      28.370   9.661   4.158  0.00  0.00    -0.369 N 
ATOM     19  HN  UNK N   1      28.200   8.706   4.477  1.00  0.00     0.161 HD
HETATM   20  N   UNK N   1      29.335  14.753   4.419  0.00  0.00    -0.365 N 
ATOM     21  HN  UNK N   1      29.157  14.526   5.397  1.00  0.00     0.162 HD
HETATM   22  N   UNK N   1      23.291  12.871   2.081  0.00  0.00    -0.361 N 
ATOM     23  HN  UNK N   1      22.843  12.893   2.998  1.00  0.00     0.162 HD
HETATM   24  N   UNK N   1      26.844  14.616   3.430  0.00  0.00    -0.342 N 
HETATM   25  N   UNK N   1      24.009  10.666   3.711  0.00  0.00    -0.338 N 
HETATM   26  O   UNK N   1      24.301  15.896   2.897  0.00  0.00    -0.285 OA
HETATM   27  O   UNK N   1      26.081  13.106   2.035  0.00  0.00    -0.264 OA
HETATM   28  O   UNK N   1      25.880  10.946   4.920  0.00  0.00    -0.271 OA
HETATM   29  H   UNK N   1      27.490  13.891   3.592  0.00  0.00     0.163 HD
ENDROOT
BRANCH   8  30
HETATM   30  C   UNK N   1      22.299  14.980   1.391  0.00  0.00     0.035 C 
BRANCH  30  31
HETATM   31  C   UNK N   1      21.126  14.412   2.170  0.00  0.00     0.023 C 
BRANCH  31  32
HETATM   32  C   UNK N   1      20.706  15.430   3.230  0.00  0.00     0.138 C 
BRANCH  32  33
HETATM   33  N   UNK N   1      19.713  16.339   2.700  0.00  0.00    -0.227 N 
HETATM   34  C   UNK N   1      19.911  17.744   2.673  0.00  0.00     0.665 C 
HETATM   35  N   UNK N   1      21.066  18.244   2.914  0.00  0.00    -0.235 N 
HETATM   36  N   UNK N   1      18.813  18.598   2.436  0.00  0.00    -0.235 N 
HETATM   37  H   UNK N   1      21.885  18.263   3.462  0.00  0.00     0.174 HD
ATOM     38  HN  UNK N   1      21.201  18.963   2.204  1.00  0.00     0.174 HD
HETATM   39  H   UNK N   1      18.751  19.161   1.631  0.00  0.00     0.174 HD
HETATM   40  H   UNK N   1      18.085  18.631   3.097  0.00  0.00     0.174 HD
HETATM   41  H   UNK N   1      18.872  15.971   2.346  0.00  0.00     0.177 HD
ENDBRANCH  32  33
ENDBRANCH  31  32
ENDBRANCH  30  31
ENDBRANCH   8  30
BRANCH  15  42
HETATM   42  O   UNK N   1      24.101  11.577   0.355  0.00  0.00    -0.348 OA
HETATM   43  H   UNK N   1      24.354  11.366  -0.523  0.00  0.00     0.219 HD
ENDBRANCH  15  42
BRANCH   9  44
HETATM   44  C   UNK N   1      26.512  17.106   3.859  0.00  0.00     0.072 C 
BRANCH  44  45
HETATM   45  C   UNK N   1      26.900  18.362   4.580  0.00  0.00    -0.056 A 
HETATM   46  C   UNK N   1      27.392  18.262   5.886  0.00  0.00     0.007 A 
HETATM   47  C   UNK N   1      27.688  19.417   6.616  0.00  0.00     0.001 A 
HETATM   48  C   UNK N   1      27.490  20.676   6.042  0.00  0.00     0.000 A 
HETATM   49  C   UNK N   1      26.998  20.782   4.739  0.00  0.00     0.001 A 
HETATM   50  C   UNK N   1      26.697  19.627   4.013  0.00  0.00     0.007 A 
ENDBRANCH  44  45
ENDBRANCH   9  44
BRANCH  14  51
HETATM   51  O   UNK N   1      29.185  16.307   2.752  0.00  0.00    -0.348 OA
HETATM   52  H   UNK N   1      28.970  16.490   1.858  0.00  0.00     0.219 HD
ENDBRANCH  14  51
BRANCH  10  53
HETATM   53  N   UNK N   1      25.933   8.536   2.707  0.00  0.00    -0.366 N 
ATOM     54  HN  UNK N   1      25.768   8.004   3.560  1.00  0.00     0.161 HD
BRANCH  53  55
HETATM   55  C   UNK N   1      25.872   7.941   1.567  0.00  0.00     0.219 C 
BRANCH  55  56
HETATM   56  O   UNK N   1      25.395   8.587   0.490  0.00  0.00    -0.357 OA
HETATM   57  H   UNK N   1      24.842   9.340   0.570  0.00  0.00     0.218 HD
ENDBRANCH  55  56
ENDBRANCH  53  55
ENDBRANCH  10  53
BRANCH   7  58
HETATM   58  C   UNK N   1      31.484  14.536   3.047  0.00  0.00     0.067 C 
BRANCH  58  59
HETATM   59  C   UNK N   1      32.367  15.424   3.827  0.00  0.00    -0.056 A 
HETATM   60  C   UNK N   1      33.058  14.873   4.904  0.00  0.00     0.010 A 
HETATM   61  C   UNK N   1      33.759  15.700   5.780  0.00  0.00     0.037 A 
HETATM   62  C   UNK N   1      33.758  17.083   5.582  0.00  0.00     0.065 A 
HETATM   63  C   UNK N   1      33.063  17.638   4.502  0.00  0.00     0.037 A 
HETATM   64  C   UNK N   1      32.353  16.808   3.633  0.00  0.00     0.010 A 
BRANCH  62  65
HETATM   65  O   UNK N   1      34.417  17.880   6.435  0.00  0.00    -0.361 OA
HETATM   66  H   UNK N   1      34.718  17.564   7.264  0.00  0.00     0.217 HD
ENDBRANCH  62  65
ENDBRANCH  58  59
ENDBRANCH   7  58
BRANCH  12  67
HETATM   67  O   UNK N   1      29.906   9.944   5.830  0.00  0.00    -0.346 OA
HETATM   68  H   UNK N   1      30.190   9.057   5.924  0.00  0.00     0.219 HD
ENDBRANCH  12  67
TORSDOF 15
ENDMDL
MODEL 8
REMARK VINA RESULT:      -7.2      2.758      8.531
REMARK  15 active torsions:
REMARK  status: ('A' for Active; 'I' for Inactive)
REMARK    1  A    between atoms: C_8  and  C_4 
REMARK    2  A    between atoms: C_16  and  C_4 
REMARK    3  A    between atoms: C_26  and  C_8 
REMARK    4  A    between atoms: N_40  and  C_16 
REMARK    5  A    between atoms: C_23  and  C_18 
REMARK    6  A    between atoms: C_24  and  C_18 
REMARK    7  A    between atoms: C_22  and  C_19 
REMARK    8  A    between atoms: C_27  and  C_19 
REMARK    9  A    between atoms: N_43  and  C_21 
REMARK   10  A    between atoms: C_21  and  O_51 
REMARK   11  A    between atoms: O_52  and  C_25 
REMARK   12  A    between atoms: C_28  and  N_43 
REMARK   13  A    between atoms: O_53  and  C_30 
REMARK   14  A    between atoms: C_32  and  O_55 
REMARK   15  A    between atoms: C_33  and  O_56 
REMARK       I    between atoms: N_37  and  C_36 
REMARK       I    between atoms: N_39  and  C_36 
REMARK       I    between atoms: N_40  and  C_36 
ROOT
HETATM    1  C   UNK N   1      26.497  18.735   3.688  0.00  0.00     0.022 C 
HETATM    2  C   UNK N   1      25.824  18.194   4.947  0.00  0.00     0.035 C 
HETATM    3  C   UNK N   1      34.064  15.079   6.359  0.00  0.00     0.003 C 
HETATM    4  C   UNK N   1      33.096  15.992   6.215  0.00  0.00     0.053 C 
HETATM    5  C   UNK N   1      27.988  18.475   3.828  0.00  0.00     0.127 C 
HETATM    6  C   UNK N   1      30.938  16.932   7.602  0.00  0.00     0.156 C 
HETATM    7  C   UNK N   1      33.704  13.670   5.949  0.00  0.00     0.110 C 
HETATM    8  C   UNK N   1      26.852  14.023   4.368  0.00  0.00     0.163 C 
HETATM    9  C   UNK N   1      31.503  13.218   3.173  0.00  0.00     0.163 C 
HETATM   10  C   UNK N   1      29.559  17.405   7.153  0.00  0.00     0.193 C 
HETATM   11  C   UNK N   1      26.911  17.553   5.791  0.00  0.00     0.161 C 
HETATM   12  C   UNK N   1      33.126  17.359   6.764  0.00  0.00     0.135 C 
HETATM   13  C   UNK N   1      28.216  13.679   3.800  0.00  0.00     0.238 C 
HETATM   14  C   UNK N   1      32.638  12.705   4.013  0.00  0.00     0.135 C 
HETATM   15  C   UNK N   1      26.754  16.049   5.736  0.00  0.00     0.135 C 
HETATM   16  C   UNK N   1      29.415  14.019   4.602  0.00  0.00     0.290 C 
HETATM   17  C   UNK N   1      29.395  17.706   5.677  0.00  0.00     0.244 C 
HETATM   18  N   UNK N   1      32.068  17.817   7.349  0.00  0.00    -0.369 N 
ATOM     19  HN  UNK N   1      32.024  18.797   7.632  1.00  0.00     0.161 HD
HETATM   20  N   UNK N   1      33.349  13.640   4.547  0.00  0.00    -0.365 N 
ATOM     21  HN  UNK N   1      33.678  14.399   3.949  1.00  0.00     0.162 HD
HETATM   22  N   UNK N   1      26.850  15.457   4.589  0.00  0.00    -0.361 N 
ATOM     23  HN  UNK N   1      26.931  16.053   3.765  1.00  0.00     0.162 HD
HETATM   24  N   UNK N   1      30.698  13.865   4.199  0.00  0.00    -0.342 N 
HETATM   25  N   UNK N   1      28.156  17.913   5.132  0.00  0.00    -0.338 N 
HETATM   26  O   UNK N   1      28.321  13.220   2.674  0.00  0.00    -0.285 OA
HETATM   27  O   UNK N   1      29.241  14.514   5.703  0.00  0.00    -0.264 OA
HETATM   28  O   UNK N   1      30.395  17.856   4.975  0.00  0.00    -0.271 OA
HETATM   29  H   UNK N   1      31.290  14.363   4.807  0.00  0.00     0.163 HD
ENDROOT
BRANCH   8  30
HETATM   30  C   UNK N   1      25.780  13.658   3.353  0.00  0.00     0.035 C 
BRANCH  30  31
HETATM   31  C   UNK N   1      24.955  14.828   2.846  0.00  0.00     0.023 C 
BRANCH  31  32
HETATM   32  C   UNK N   1      23.542  14.710   3.414  0.00  0.00     0.138 C 
BRANCH  32  33
HETATM   33  N   UNK N   1      23.220  15.862   4.228  0.00  0.00    -0.227 N 
HETATM   34  C   UNK N   1      23.123  15.786   5.641  0.00  0.00     0.665 C 
HETATM   35  N   UNK N   1      23.532  14.745   6.268  0.00  0.00    -0.235 N 
HETATM   36  N   UNK N   1      22.519  16.842   6.356  0.00  0.00    -0.235 N 
HETATM   37  H   UNK N   1      23.581  13.764   6.342  0.00  0.00     0.174 HD
ATOM     38  HN  UNK N   1      24.052  15.101   7.070  1.00  0.00     0.174 HD
HETATM   39  H   UNK N   1      23.023  17.404   6.988  0.00  0.00     0.174 HD
HETATM   40  H   UNK N   1      21.562  17.022   6.219  0.00  0.00     0.174 HD
HETATM   41  H   UNK N   1      23.064  16.727   3.787  0.00  0.00     0.177 HD
ENDBRANCH  32  33
ENDBRANCH  31  32
ENDBRANCH  30  31
ENDBRANCH   8  30
BRANCH  15  42
HETATM   42  O   UNK N   1      26.590  15.341   6.876  0.00  0.00    -0.348 OA
HETATM   43  H   UNK N   1      26.330  14.791   7.589  0.00  0.00     0.219 HD
ENDBRANCH  15  42
BRANCH   9  44
HETATM   44  C   UNK N   1      30.785  12.197   2.274  0.00  0.00     0.072 C 
BRANCH  44  45
HETATM   45  C   UNK N   1      31.245  12.017   0.858  0.00  0.00    -0.056 A 
HETATM   46  C   UNK N   1      32.598  12.214   0.561  0.00  0.00     0.007 A 
HETATM   47  C   UNK N   1      33.046  12.133  -0.761  0.00  0.00     0.001 A 
HETATM   48  C   UNK N   1      32.142  11.857  -1.790  0.00  0.00     0.000 A 
HETATM   49  C   UNK N   1      30.790  11.660  -1.499  0.00  0.00     0.001 A 
HETATM   50  C   UNK N   1      30.342  11.748  -0.179  0.00  0.00     0.007 A 
ENDBRANCH  44  45
ENDBRANCH   9  44
BRANCH  14  51
HETATM   51  O   UNK N   1      32.472  11.536   4.667  0.00  0.00    -0.348 OA
HETATM   52  H   UNK N   1      31.856  10.869   4.900  0.00  0.00     0.219 HD
ENDBRANCH  14  51
BRANCH  10  53
HETATM   53  N   UNK N   1      29.168  18.565   7.926  0.00  0.00    -0.366 N 
ATOM     54  HN  UNK N   1      29.252  19.495   7.515  1.00  0.00     0.161 HD
BRANCH  53  55
HETATM   55  C   UNK N   1      28.714  18.441   9.124  0.00  0.00     0.219 C 
BRANCH  55  56
HETATM   56  O   UNK N   1      27.427  18.114   9.330  0.00  0.00    -0.357 OA
HETATM   57  H   UNK N   1      27.127  17.228   9.277  0.00  0.00     0.218 HD
ENDBRANCH  55  56
ENDBRANCH  53  55
ENDBRANCH  10  53
BRANCH   7  58
HETATM   58  C   UNK N   1      34.488  12.507   6.538  0.00  0.00     0.067 C 
BRANCH  58  59
HETATM   59  C   UNK N   1      35.522  12.731   7.566  0.00  0.00    -0.056 A 
HETATM   60  C   UNK N   1      35.116  12.784   8.899  0.00  0.00     0.010 A 
HETATM   61  C   UNK N   1      36.018  13.171   9.888  0.00  0.00     0.037 A 
HETATM   62  C   UNK N   1      37.326  13.518   9.540  0.00  0.00     0.065 A 
HETATM   63  C   UNK N   1      37.734  13.467   8.204  0.00  0.00     0.037 A 
HETATM   64  C   UNK N   1      36.826  13.089   7.213  0.00  0.00     0.010 A 
BRANCH  62  65
HETATM   65  O   UNK N   1      38.188  13.908  10.490  0.00  0.00    -0.361 OA
HETATM   66  H   UNK N   1      37.900  14.097  11.361  0.00  0.00     0.217 HD
ENDBRANCH  62  65
ENDBRANCH  58  59
ENDBRANCH   7  58
BRANCH  12  67
HETATM   67  O   UNK N   1      34.254  18.096   6.732  0.00  0.00    -0.346 OA
HETATM   68  H   UNK N   1      34.334  19.003   6.950  0.00  0.00     0.219 HD
ENDBRANCH  12  67
TORSDOF 15
ENDMDL
MODEL 9
REMARK VINA RESULT:      -7.1      4.073     11.372
REMARK  15 active torsions:
REMARK  status: ('A' for Active; 'I' for Inactive)
REMARK    1  A    between atoms: C_8  and  C_4 
REMARK    2  A    between atoms: C_16  and  C_4 
REMARK    3  A    between atoms: C_26  and  C_8 
REMARK    4  A    between atoms: N_40  and  C_16 
REMARK    5  A    between atoms: C_23  and  C_18 
REMARK    6  A    between atoms: C_24  and  C_18 
REMARK    7  A    between atoms: C_22  and  C_19 
REMARK    8  A    between atoms: C_27  and  C_19 
REMARK    9  A    between atoms: N_43  and  C_21 
REMARK   10  A    between atoms: C_21  and  O_51 
REMARK   11  A    between atoms: O_52  and  C_25 
REMARK   12  A    between atoms: C_28  and  N_43 
REMARK   13  A    between atoms: O_53  and  C_30 
REMARK   14  A    between atoms: C_32  and  O_55 
REMARK   15  A    between atoms: C_33  and  O_56 
REMARK       I    between atoms: N_37  and  C_36 
REMARK       I    between atoms: N_39  and  C_36 
REMARK       I    between atoms: N_40  and  C_36 
ROOT
HETATM    1  C   UNK N   1      30.265  14.933   5.172  0.00  0.00     0.022 C 
HETATM    2  C   UNK N   1      30.987  16.097   4.497  0.00  0.00     0.035 C 
HETATM    3  C   UNK N   1      38.107  11.322   6.966  0.00  0.00     0.003 C 
HETATM    4  C   UNK N   1      36.984  11.610   6.298  0.00  0.00     0.053 C 
HETATM    5  C   UNK N   1      31.314  13.883   5.501  0.00  0.00     0.127 C 
HETATM    6  C   UNK N   1      36.159  13.269   4.289  0.00  0.00     0.156 C 
HETATM    7  C   UNK N   1      38.425  12.224   8.136  0.00  0.00     0.110 C 
HETATM    8  C   UNK N   1      33.475  17.224   7.862  0.00  0.00     0.163 C 
HETATM    9  C   UNK N   1      35.715  13.510  10.075  0.00  0.00     0.163 C 
HETATM   10  C   UNK N   1      34.860  14.035   4.063  0.00  0.00     0.193 C 
HETATM   11  C   UNK N   1      32.468  15.761   4.496  0.00  0.00     0.161 C 
HETATM   12  C   UNK N   1      36.596  11.036   4.997  0.00  0.00     0.135 C 
HETATM   13  C   UNK N   1      34.054  16.131   8.741  0.00  0.00     0.238 C 
HETATM   14  C   UNK N   1      37.148  13.068  10.001  0.00  0.00     0.135 C 
HETATM   15  C   UNK N   1      33.173  16.640   5.506  0.00  0.00     0.135 C 
HETATM   16  C   UNK N   1      35.031  15.192   8.141  0.00  0.00     0.290 C 
HETATM   17  C   UNK N   1      33.673  13.620   4.910  0.00  0.00     0.244 C 
HETATM   18  N   UNK N   1      36.133  11.826   4.084  0.00  0.00    -0.369 N 
ATOM     19  HN  UNK N   1      35.751  11.439   3.220  1.00  0.00     0.161 HD
HETATM   20  N   UNK N   1      37.362  12.153   9.116  0.00  0.00    -0.365 N 
ATOM     21  HN  UNK N   1      36.748  11.338   9.105  1.00  0.00     0.162 HD
HETATM   22  N   UNK N   1      32.826  16.555   6.750  0.00  0.00    -0.361 N 
ATOM     23  HN  UNK N   1      32.023  15.964   6.969  1.00  0.00     0.162 HD
HETATM   24  N   UNK N   1      35.565  14.114   8.759  0.00  0.00    -0.342 N 
HETATM   25  N   UNK N   1      32.537  14.382   4.953  0.00  0.00    -0.338 N 
HETATM   26  O   UNK N   1      33.653  15.977   9.884  0.00  0.00    -0.285 OA
HETATM   27  O   UNK N   1      35.358  15.378   6.980  0.00  0.00    -0.264 OA
HETATM   28  O   UNK N   1      33.697  12.538   5.495  0.00  0.00    -0.271 OA
HETATM   29  H   UNK N   1      36.000  13.539   8.088  0.00  0.00     0.163 HD
ENDROOT
BRANCH   8  30
HETATM   30  C   UNK N   1      32.447  18.014   8.657  0.00  0.00     0.035 C 
BRANCH  30  31
HETATM   31  C   UNK N   1      31.014  17.536   8.502  0.00  0.00     0.023 C 
BRANCH  31  32
HETATM   32  C   UNK N   1      30.120  18.371   9.417  0.00  0.00     0.138 C 
BRANCH  32  33
HETATM   33  N   UNK N   1      29.180  19.151   8.641  0.00  0.00    -0.227 N 
HETATM   34  C   UNK N   1      27.935  18.626   8.210  0.00  0.00     0.665 C 
HETATM   35  N   UNK N   1      27.499  17.514   8.677  0.00  0.00    -0.235 N 
HETATM   36  N   UNK N   1      27.199  19.304   7.216  0.00  0.00    -0.235 N 
HETATM   37  H   UNK N   1      27.666  16.578   8.933  0.00  0.00     0.174 HD
ATOM     38  HN  UNK N   1      26.513  17.676   8.880  1.00  0.00     0.174 HD
HETATM   39  H   UNK N   1      26.321  19.711   7.398  0.00  0.00     0.174 HD
HETATM   40  H   UNK N   1      27.576  19.374   6.310  0.00  0.00     0.174 HD
HETATM   41  H   UNK N   1      29.412  20.077   8.405  0.00  0.00     0.177 HD
ENDBRANCH  32  33
ENDBRANCH  31  32
ENDBRANCH  30  31
ENDBRANCH   8  30
BRANCH  15  42
HETATM   42  O   UNK N   1      34.190  17.440   5.117  0.00  0.00    -0.348 OA
HETATM   43  H   UNK N   1      34.928  18.010   5.019  0.00  0.00     0.219 HD
ENDBRANCH  15  42
BRANCH   9  44
HETATM   44  C   UNK N   1      35.314  14.375  11.281  0.00  0.00     0.072 C 
BRANCH  44  45
HETATM   45  C   UNK N   1      35.574  13.865  12.668  0.00  0.00    -0.056 A 
HETATM   46  C   UNK N   1      34.911  12.710  13.094  0.00  0.00     0.007 A 
HETATM   47  C   UNK N   1      35.069  12.253  14.406  0.00  0.00     0.001 A 
HETATM   48  C   UNK N   1      35.889  12.951  15.296  0.00  0.00     0.000 A 
HETATM   49  C   UNK N   1      36.554  14.107  14.875  0.00  0.00     0.001 A 
HETATM   50  C   UNK N   1      36.390  14.566  13.566  0.00  0.00     0.007 A 
ENDBRANCH  44  45
ENDBRANCH   9  44
BRANCH  14  51
HETATM   51  O   UNK N   1      38.112  13.974  10.271  0.00  0.00    -0.348 OA
HETATM   52  H   UNK N   1      38.437  14.580  10.908  0.00  0.00     0.219 HD
ENDBRANCH  14  51
BRANCH  10  53
HETATM   53  N   UNK N   1      34.496  13.972   2.663  0.00  0.00    -0.366 N 
ATOM     54  HN  UNK N   1      33.511  13.977   2.399  1.00  0.00     0.161 HD
BRANCH  53  55
HETATM   55  C   UNK N   1      35.396  13.909   1.746  0.00  0.00     0.219 C 
BRANCH  55  56
HETATM   56  O   UNK N   1      35.252  14.606   0.606  0.00  0.00    -0.357 OA
HETATM   57  H   UNK N   1      35.176  15.540   0.604  0.00  0.00     0.218 HD
ENDBRANCH  55  56
ENDBRANCH  53  55
ENDBRANCH  10  53
BRANCH   7  58
HETATM   58  C   UNK N   1      39.864  12.333   8.614  0.00  0.00     0.067 C 
BRANCH  58  59
HETATM   59  C   UNK N   1      40.983  12.368   7.654  0.00  0.00    -0.056 A 
HETATM   60  C   UNK N   1      42.031  11.467   7.841  0.00  0.00     0.010 A 
HETATM   61  C   UNK N   1      43.191  11.578   7.076  0.00  0.00     0.037 A 
HETATM   62  C   UNK N   1      43.306  12.600   6.130  0.00  0.00     0.065 A 
HETATM   63  C   UNK N   1      42.256  13.505   5.942  0.00  0.00     0.037 A 
HETATM   64  C   UNK N   1      41.100  13.399   6.717  0.00  0.00     0.010 A 
BRANCH  62  65
HETATM   65  O   UNK N   1      44.428  12.717   5.407  0.00  0.00    -0.361 OA
HETATM   66  H   UNK N   1      44.425  13.128   4.565  0.00  0.00     0.217 HD
ENDBRANCH  62  65
ENDBRANCH  58  59
ENDBRANCH   7  58
BRANCH  12  67
HETATM   67  O   UNK N   1      36.790   9.730   4.728  0.00  0.00    -0.346 OA
HETATM   68  H   UNK N   1      36.501   9.005   5.244  0.00  0.00     0.219 HD
ENDBRANCH  12  67
TORSDOF 15
ENDMDL
