MODEL 1
REMARK VINA RESULT:      -5.8      0.000      0.000
REMARK  6 active torsions:
REMARK  status: ('A' for Active; 'I' for Inactive)
REMARK    1  A    between atoms: C_8  and  C_6 
REMARK    2  A    between atoms: C_10  and  C_7 
REMARK    3  A    between atoms: O_12  and  C_8 
REMARK    4  A    between atoms: C_10  and  C_9 
REMARK    5  A    between atoms: O_15  and  C_9 
REMARK    6  A    between atoms: C_10  and  N_11 
ROOT
HETATM    1  C   UNK N   1      29.762  16.931   7.409  0.00  0.00     0.019 A 
HETATM    2  C   UNK N   1      30.457  18.533   9.083  0.00  0.00     0.019 A 
HETATM    3  C   UNK N   1      31.096  16.736   7.041  0.00  0.00     0.011 A 
HETATM    4  C   UNK N   1      31.791  18.345   8.711  0.00  0.00     0.011 A 
HETATM    5  C   UNK N   1      29.436  17.816   8.444  0.00  0.00     0.037 A 
HETATM    6  C   UNK N   1      32.127  17.430   7.697  0.00  0.00    -0.021 A 
ENDROOT
BRANCH   6   7
HETATM    7  C   UNK N   1      33.585  17.151   7.368  0.00  0.00     0.134 C 
HETATM    8  C   UNK N   1      33.826  15.651   7.500  0.00  0.00     0.055 C 
BRANCH   7   9
HETATM    9  C   UNK N   1      34.513  17.922   8.280  0.00  0.00     0.173 C 
HETATM   10  O   UNK N   1      35.032  18.955   7.886  0.00  0.00    -0.648 OA
BRANCH   9  11
HETATM   11  O   UNK N   1      34.802  17.465   9.516  0.00  0.00    -0.774 OA
HETATM   12  H   UNK N   1      35.681  17.503   9.836  0.00  0.00     0.167 HD
ENDBRANCH   9  11
ENDBRANCH   7   9
BRANCH   7  13
HETATM   13  N   UNK N   1      33.884  17.525   5.992  0.00  0.00    -0.410 N 
HETATM   14  H   UNK N   1      34.819  17.733   5.641  0.00  0.00     0.151 HD
HETATM   15  H   UNK N   1      33.106  17.583   5.336  0.00  0.00     0.151 HD
ENDBRANCH   7  13
ENDBRANCH   6   7
BRANCH   5  16
HETATM   16  C   UNK N   1      28.034  17.963   8.885  0.00  0.00     0.176 C 
HETATM   17  O   UNK N   1      27.487  17.065   9.510  0.00  0.00    -0.646 OA
BRANCH  16  18
HETATM   18  O   UNK N   1      27.359  19.101   8.633  0.00  0.00    -0.773 OA
HETATM   19  H   UNK N   1      27.795  19.894   8.391  0.00  0.00     0.167 HD
ENDBRANCH  16  18
ENDBRANCH   5  16
TORSDOF 6
ENDMDL
MODEL 2
REMARK VINA RESULT:      -5.7      2.247      5.565
REMARK  6 active torsions:
REMARK  status: ('A' for Active; 'I' for Inactive)
REMARK    1  A    between atoms: C_8  and  C_6 
REMARK    2  A    between atoms: C_10  and  C_7 
REMARK    3  A    between atoms: O_12  and  C_8 
REMARK    4  A    between atoms: C_10  and  C_9 
REMARK    5  A    between atoms: O_15  and  C_9 
REMARK    6  A    between atoms: C_10  and  N_11 
ROOT
HETATM    1  C   UNK N   1      31.811  17.113   6.227  0.00  0.00     0.019 A 
HETATM    2  C   UNK N   1      31.992  18.002   8.469  0.00  0.00     0.019 A 
HETATM    3  C   UNK N   1      30.419  17.122   6.335  0.00  0.00     0.011 A 
HETATM    4  C   UNK N   1      30.599  18.005   8.582  0.00  0.00     0.011 A 
HETATM    5  C   UNK N   1      32.606  17.570   7.286  0.00  0.00     0.037 A 
HETATM    6  C   UNK N   1      29.795  17.582   7.508  0.00  0.00    -0.021 A 
ENDROOT
BRANCH   6   7
HETATM    7  C   UNK N   1      28.281  17.686   7.595  0.00  0.00     0.134 C 
HETATM    8  C   UNK N   1      27.676  16.641   6.665  0.00  0.00     0.055 C 
BRANCH   7   9
HETATM    9  C   UNK N   1      27.802  19.071   7.223  0.00  0.00     0.173 C 
HETATM   10  O   UNK N   1      28.039  19.518   6.112  0.00  0.00    -0.648 OA
BRANCH   9  11
HETATM   11  O   UNK N   1      27.141  19.836   8.116  0.00  0.00    -0.774 OA
HETATM   12  H   UNK N   1      27.452  19.905   8.996  0.00  0.00     0.167 HD
ENDBRANCH   9  11
ENDBRANCH   7   9
BRANCH   7  13
HETATM   13  N   UNK N   1      27.821  17.393   8.946  0.00  0.00    -0.410 N 
HETATM   14  H   UNK N   1      28.150  17.872   9.784  0.00  0.00     0.151 HD
HETATM   15  H   UNK N   1      27.122  16.659   9.061  0.00  0.00     0.151 HD
ENDBRANCH   7  13
ENDBRANCH   6   7
BRANCH   5  16
HETATM   16  C   UNK N   1      34.074  17.632   7.143  0.00  0.00     0.176 C 
HETATM   17  O   UNK N   1      34.660  16.821   6.438  0.00  0.00    -0.646 OA
BRANCH  16  18
HETATM   18  O   UNK N   1      34.777  18.602   7.758  0.00  0.00    -0.773 OA
HETATM   19  H   UNK N   1      35.700  18.530   7.903  0.00  0.00     0.167 HD
ENDBRANCH  16  18
ENDBRANCH   5  16
TORSDOF 6
ENDMDL
MODEL 3
REMARK VINA RESULT:      -5.6      3.282      5.374
REMARK  6 active torsions:
REMARK  status: ('A' for Active; 'I' for Inactive)
REMARK    1  A    between atoms: C_8  and  C_6 
REMARK    2  A    between atoms: C_10  and  C_7 
REMARK    3  A    between atoms: O_12  and  C_8 
REMARK    4  A    between atoms: C_10  and  C_9 
REMARK    5  A    between atoms: O_15  and  C_9 
REMARK    6  A    between atoms: C_10  and  N_11 
ROOT
HETATM    1  C   UNK N   1      33.844  17.585   6.283  0.00  0.00     0.019 A 
HETATM    2  C   UNK N   1      32.158  17.517   8.016  0.00  0.00     0.019 A 
HETATM    3  C   UNK N   1      32.874  17.282   5.326  0.00  0.00     0.011 A 
HETATM    4  C   UNK N   1      31.187  17.205   7.060  0.00  0.00     0.011 A 
HETATM    5  C   UNK N   1      33.491  17.723   7.631  0.00  0.00     0.037 A 
HETATM    6  C   UNK N   1      31.531  17.103   5.700  0.00  0.00    -0.021 A 
ENDROOT
BRANCH   6   7
HETATM    7  C   UNK N   1      30.454  16.869   4.652  0.00  0.00     0.134 C 
HETATM    8  C   UNK N   1      29.455  15.862   5.210  0.00  0.00     0.055 C 
BRANCH   7   9
HETATM    9  C   UNK N   1      31.048  16.367   3.355  0.00  0.00     0.173 C 
HETATM   10  O   UNK N   1      31.186  15.168   3.174  0.00  0.00    -0.648 OA
BRANCH   9  11
HETATM   11  O   UNK N   1      31.459  17.231   2.404  0.00  0.00    -0.774 OA
HETATM   12  H   UNK N   1      31.680  18.112   2.634  0.00  0.00     0.167 HD
ENDBRANCH   9  11
ENDBRANCH   7   9
BRANCH   7  13
HETATM   13  N   UNK N   1      29.729  18.101   4.374  0.00  0.00    -0.410 N 
HETATM   14  H   UNK N   1      28.987  18.479   4.963  0.00  0.00     0.151 HD
HETATM   15  H   UNK N   1      29.981  18.622   3.534  0.00  0.00     0.151 HD
ENDBRANCH   7  13
ENDBRANCH   6   7
BRANCH   5  16
HETATM   16  C   UNK N   1      34.502  18.119   8.630  0.00  0.00     0.176 C 
HETATM   17  O   UNK N   1      35.222  19.088   8.428  0.00  0.00    -0.646 OA
BRANCH  16  18
HETATM   18  O   UNK N   1      34.616  17.440   9.788  0.00  0.00    -0.773 OA
HETATM   19  H   UNK N   1      34.646  17.874  10.617  0.00  0.00     0.167 HD
ENDBRANCH  16  18
ENDBRANCH   5  16
TORSDOF 6
ENDMDL
MODEL 4
REMARK VINA RESULT:      -5.5      9.557     10.876
REMARK  6 active torsions:
REMARK  status: ('A' for Active; 'I' for Inactive)
REMARK    1  A    between atoms: C_8  and  C_6 
REMARK    2  A    between atoms: C_10  and  C_7 
REMARK    3  A    between atoms: O_12  and  C_8 
REMARK    4  A    between atoms: C_10  and  C_9 
REMARK    5  A    between atoms: O_15  and  C_9 
REMARK    6  A    between atoms: C_10  and  N_11 
ROOT
HETATM    1  C   UNK N   1      35.741  10.987  17.497  0.00  0.00     0.019 A 
HETATM    2  C   UNK N   1      34.878  13.246  17.448  0.00  0.00     0.019 A 
HETATM    3  C   UNK N   1      35.755  10.961  16.101  0.00  0.00     0.011 A 
HETATM    4  C   UNK N   1      34.884  13.219  16.050  0.00  0.00     0.011 A 
HETATM    5  C   UNK N   1      35.321  12.136  18.180  0.00  0.00     0.037 A 
HETATM    6  C   UNK N   1      35.341  12.082  15.360  0.00  0.00    -0.021 A 
ENDROOT
BRANCH   6   7
HETATM    7  C   UNK N   1      35.446  12.095  13.844  0.00  0.00     0.134 C 
HETATM    8  C   UNK N   1      36.564  11.143  13.434  0.00  0.00     0.055 C 
BRANCH   7   9
HETATM    9  C   UNK N   1      35.716  13.488  13.322  0.00  0.00     0.173 C 
HETATM   10  O   UNK N   1      34.848  14.085  12.704  0.00  0.00    -0.648 OA
BRANCH   9  11
HETATM   11  O   UNK N   1      36.919  14.072  13.502  0.00  0.00    -0.774 OA
HETATM   12  H   UNK N   1      37.473  13.796  14.205  0.00  0.00     0.167 HD
ENDBRANCH   9  11
ENDBRANCH   7   9
BRANCH   7  13
HETATM   13  N   UNK N   1      34.213  11.612  13.237  0.00  0.00    -0.410 N 
HETATM   14  H   UNK N   1      34.109  10.704  12.785  0.00  0.00     0.151 HD
HETATM   15  H   UNK N   1      33.398  12.225  13.266  0.00  0.00     0.151 HD
ENDBRANCH   7  13
ENDBRANCH   6   7
BRANCH   5  16
HETATM   16  C   UNK N   1      35.378  12.190  19.654  0.00  0.00     0.176 C 
HETATM   17  O   UNK N   1      35.939  11.303  20.282  0.00  0.00    -0.646 OA
BRANCH  16  18
HETATM   18  O   UNK N   1      34.845  13.234  20.317  0.00  0.00    -0.773 OA
HETATM   19  H   UNK N   1      35.065  14.120  20.108  0.00  0.00     0.167 HD
ENDBRANCH  16  18
ENDBRANCH   5  16
TORSDOF 6
ENDMDL
MODEL 5
REMARK VINA RESULT:      -5.4      1.387      1.891
REMARK  6 active torsions:
REMARK  status: ('A' for Active; 'I' for Inactive)
REMARK    1  A    between atoms: C_8  and  C_6 
REMARK    2  A    between atoms: C_10  and  C_7 
REMARK    3  A    between atoms: O_12  and  C_8 
REMARK    4  A    between atoms: C_10  and  C_9 
REMARK    5  A    between atoms: O_15  and  C_9 
REMARK    6  A    between atoms: C_10  and  N_11 
ROOT
HETATM    1  C   UNK N   1      30.624  17.604   8.686  0.00  0.00     0.019 A 
HETATM    2  C   UNK N   1      29.258  17.186   6.734  0.00  0.00     0.019 A 
HETATM    3  C   UNK N   1      31.774  17.339   7.939  0.00  0.00     0.011 A 
HETATM    4  C   UNK N   1      30.408  16.914   5.986  0.00  0.00     0.011 A 
HETATM    5  C   UNK N   1      29.361  17.548   8.085  0.00  0.00     0.037 A 
HETATM    6  C   UNK N   1      31.681  17.005   6.577  0.00  0.00    -0.021 A 
ENDROOT
BRANCH   6   7
HETATM    7  C   UNK N   1      32.933  16.812   5.735  0.00  0.00     0.134 C 
HETATM    8  C   UNK N   1      32.923  15.391   5.184  0.00  0.00     0.055 C 
BRANCH   7   9
HETATM    9  C   UNK N   1      34.185  17.060   6.545  0.00  0.00     0.173 C 
HETATM   10  O   UNK N   1      34.493  18.201   6.854  0.00  0.00    -0.648 OA
BRANCH   9  11
HETATM   11  O   UNK N   1      34.988  16.038   6.905  0.00  0.00    -0.774 OA
HETATM   12  H   UNK N   1      35.073  15.804   7.808  0.00  0.00     0.167 HD
ENDBRANCH   9  11
ENDBRANCH   7   9
BRANCH   7  13
HETATM   13  N   UNK N   1      32.936  17.724   4.599  0.00  0.00    -0.410 N 
HETATM   14  H   UNK N   1      32.104  18.000   4.078  0.00  0.00     0.151 HD
HETATM   15  H   UNK N   1      33.832  18.114   4.306  0.00  0.00     0.151 HD
ENDBRANCH   7  13
ENDBRANCH   6   7
BRANCH   5  16
HETATM   16  C   UNK N   1      28.152  17.902   8.854  0.00  0.00     0.176 C 
HETATM   17  O   UNK N   1      27.751  17.164   9.745  0.00  0.00    -0.646 OA
BRANCH  16  18
HETATM   18  O   UNK N   1      27.502  19.055   8.608  0.00  0.00    -0.773 OA
HETATM   19  H   UNK N   1      26.624  19.202   8.900  0.00  0.00     0.167 HD
ENDBRANCH  16  18
ENDBRANCH   5  16
TORSDOF 6
ENDMDL
MODEL 6
REMARK VINA RESULT:      -5.4      7.998      9.577
REMARK  6 active torsions:
REMARK  status: ('A' for Active; 'I' for Inactive)
REMARK    1  A    between atoms: C_8  and  C_6 
REMARK    2  A    between atoms: C_10  and  C_7 
REMARK    3  A    between atoms: O_12  and  C_8 
REMARK    4  A    between atoms: C_10  and  C_9 
REMARK    5  A    between atoms: O_15  and  C_9 
REMARK    6  A    between atoms: C_10  and  N_11 
ROOT
HETATM    1  C   UNK N   1      36.572  14.137  15.825  0.00  0.00     0.019 A 
HETATM    2  C   UNK N   1      34.599  12.839  16.343  0.00  0.00     0.019 A 
HETATM    3  C   UNK N   1      36.531  13.675  14.507  0.00  0.00     0.011 A 
HETATM    4  C   UNK N   1      34.560  12.369  15.027  0.00  0.00     0.011 A 
HETATM    5  C   UNK N   1      35.597  13.738  16.746  0.00  0.00     0.037 A 
HETATM    6  C   UNK N   1      35.516  12.797  14.088  0.00  0.00    -0.021 A 
ENDROOT
BRANCH   6   7
HETATM    7  C   UNK N   1      35.409  12.368  12.634  0.00  0.00     0.134 C 
HETATM    8  C   UNK N   1      36.687  11.628  12.259  0.00  0.00     0.055 C 
BRANCH   7   9
HETATM    9  C   UNK N   1      35.195  13.556  11.724  0.00  0.00     0.173 C 
HETATM   10  O   UNK N   1      36.078  13.898  10.953  0.00  0.00    -0.648 OA
BRANCH   9  11
HETATM   11  O   UNK N   1      34.049  14.267  11.774  0.00  0.00    -0.774 OA
HETATM   12  H   UNK N   1      33.934  15.010  11.217  0.00  0.00     0.167 HD
ENDBRANCH   9  11
ENDBRANCH   7   9
BRANCH   7  13
HETATM   13  N   UNK N   1      34.296  11.447  12.449  0.00  0.00    -0.410 N 
HETATM   14  H   UNK N   1      33.440  11.670  11.942  0.00  0.00     0.151 HD
HETATM   15  H   UNK N   1      34.379  10.514  12.854  0.00  0.00     0.151 HD
ENDBRANCH   7  13
ENDBRANCH   6   7
BRANCH   5  16
HETATM   16  C   UNK N   1      35.596  14.286  18.117  0.00  0.00     0.176 C 
HETATM   17  O   UNK N   1      36.004  15.420  18.327  0.00  0.00    -0.646 OA
BRANCH  16  18
HETATM   18  O   UNK N   1      35.114  13.556  19.141  0.00  0.00    -0.773 OA
HETATM   19  H   UNK N   1      34.739  13.955  19.901  0.00  0.00     0.167 HD
ENDBRANCH  16  18
ENDBRANCH   5  16
TORSDOF 6
ENDMDL
MODEL 7
REMARK VINA RESULT:      -5.3      2.650      5.400
REMARK  6 active torsions:
REMARK  status: ('A' for Active; 'I' for Inactive)
REMARK    1  A    between atoms: C_8  and  C_6 
REMARK    2  A    between atoms: C_10  and  C_7 
REMARK    3  A    between atoms: O_12  and  C_8 
REMARK    4  A    between atoms: C_10  and  C_9 
REMARK    5  A    between atoms: O_15  and  C_9 
REMARK    6  A    between atoms: C_10  and  N_11 
ROOT
HETATM    1  C   UNK N   1      32.235  17.689   8.247  0.00  0.00     0.019 A 
HETATM    2  C   UNK N   1      33.749  17.591   6.363  0.00  0.00     0.019 A 
HETATM    3  C   UNK N   1      31.184  17.277   7.425  0.00  0.00     0.011 A 
HETATM    4  C   UNK N   1      32.696  17.185   5.537  0.00  0.00     0.011 A 
HETATM    5  C   UNK N   1      33.528  17.831   7.726  0.00  0.00     0.037 A 
HETATM    6  C   UNK N   1      31.404  17.006   6.063  0.00  0.00    -0.021 A 
ENDROOT
BRANCH   6   7
HETATM    7  C   UNK N   1      30.287  16.464   5.186  0.00  0.00     0.134 C 
HETATM    8  C   UNK N   1      29.068  17.364   5.355  0.00  0.00     0.055 C 
BRANCH   7   9
HETATM    9  C   UNK N   1      29.948  15.035   5.546  0.00  0.00     0.173 C 
HETATM   10  O   UNK N   1      30.823  14.288   5.957  0.00  0.00    -0.648 OA
BRANCH   9  11
HETATM   11  O   UNK N   1      28.695  14.562   5.389  0.00  0.00    -0.774 OA
HETATM   12  H   UNK N   1      28.194  14.302   6.136  0.00  0.00     0.167 HD
ENDBRANCH   9  11
ENDBRANCH   7   9
BRANCH   7  13
HETATM   13  N   UNK N   1      30.670  16.501   3.781  0.00  0.00    -0.410 N 
HETATM   14  H   UNK N   1      30.620  17.331   3.191  0.00  0.00     0.151 HD
HETATM   15  H   UNK N   1      31.012  15.637   3.359  0.00  0.00     0.151 HD
ENDBRANCH   7  13
ENDBRANCH   6   7
BRANCH   5  16
HETATM   16  C   UNK N   1      34.653  18.192   8.611  0.00  0.00     0.176 C 
HETATM   17  O   UNK N   1      35.284  19.222   8.415  0.00  0.00    -0.646 OA
BRANCH  16  18
HETATM   18  O   UNK N   1      34.971  17.411   9.660  0.00  0.00    -0.773 OA
HETATM   19  H   UNK N   1      34.401  17.313  10.397  0.00  0.00     0.167 HD
ENDBRANCH  16  18
ENDBRANCH   5  16
TORSDOF 6
ENDMDL
MODEL 8
REMARK VINA RESULT:      -5.3     14.642     15.746
REMARK  6 active torsions:
REMARK  status: ('A' for Active; 'I' for Inactive)
REMARK    1  A    between atoms: C_8  and  C_6 
REMARK    2  A    between atoms: C_10  and  C_7 
REMARK    3  A    between atoms: O_12  and  C_8 
REMARK    4  A    between atoms: C_10  and  C_9 
REMARK    5  A    between atoms: O_15  and  C_9 
REMARK    6  A    between atoms: C_10  and  N_11 
ROOT
HETATM    1  C   UNK N   1      29.385  25.119  -3.949  0.00  0.00     0.019 A 
HETATM    2  C   UNK N   1      27.424  23.852  -3.318  0.00  0.00     0.019 A 
HETATM    3  C   UNK N   1      28.569  26.107  -4.505  0.00  0.00     0.011 A 
HETATM    4  C   UNK N   1      26.605  24.835  -3.881  0.00  0.00     0.011 A 
HETATM    5  C   UNK N   1      28.819  23.995  -3.336  0.00  0.00     0.037 A 
HETATM    6  C   UNK N   1      27.169  25.984  -4.465  0.00  0.00    -0.021 A 
ENDROOT
BRANCH   6   7
HETATM    7  C   UNK N   1      26.274  27.100  -4.981  0.00  0.00     0.134 C 
HETATM    8  C   UNK N   1      26.963  27.751  -6.175  0.00  0.00     0.055 C 
BRANCH   7   9
HETATM    9  C   UNK N   1      25.995  28.124  -3.904  0.00  0.00     0.173 C 
HETATM   10  O   UNK N   1      26.243  29.303  -4.107  0.00  0.00    -0.648 OA
BRANCH   9  11
HETATM   11  O   UNK N   1      25.504  27.749  -2.705  0.00  0.00    -0.774 OA
HETATM   12  H   UNK N   1      25.834  28.139  -1.920  0.00  0.00     0.167 HD
ENDBRANCH   9  11
ENDBRANCH   7   9
BRANCH   7  13
HETATM   13  N   UNK N   1      25.000  26.567  -5.444  0.00  0.00    -0.410 N 
HETATM   14  H   UNK N   1      24.883  25.656  -5.886  0.00  0.00     0.151 HD
HETATM   15  H   UNK N   1      24.169  27.145  -5.317  0.00  0.00     0.151 HD
ENDBRANCH   7  13
ENDBRANCH   6   7
BRANCH   5  16
HETATM   16  C   UNK N   1      29.679  22.990  -2.681  0.00  0.00     0.176 C 
HETATM   17  O   UNK N   1      29.961  21.949  -3.259  0.00  0.00    -0.646 OA
BRANCH  16  18
HETATM   18  O   UNK N   1      30.189  23.225  -1.457  0.00  0.00    -0.773 OA
HETATM   19  H   UNK N   1      29.670  23.580  -0.763  0.00  0.00     0.167 HD
ENDBRANCH  16  18
ENDBRANCH   5  16
TORSDOF 6
ENDMDL
MODEL 9
REMARK VINA RESULT:      -5.3      6.251      7.997
REMARK  6 active torsions:
REMARK  status: ('A' for Active; 'I' for Inactive)
REMARK    1  A    between atoms: C_8  and  C_6 
REMARK    2  A    between atoms: C_10  and  C_7 
REMARK    3  A    between atoms: O_12  and  C_8 
REMARK    4  A    between atoms: C_10  and  C_9 
REMARK    5  A    between atoms: O_15  and  C_9 
REMARK    6  A    between atoms: C_10  and  N_11 
ROOT
HETATM    1  C   UNK N   1      24.516  20.661   2.793  0.00  0.00     0.019 A 
HETATM    2  C   UNK N   1      23.516  18.901   4.117  0.00  0.00     0.019 A 
HETATM    3  C   UNK N   1      25.784  20.263   3.220  0.00  0.00     0.011 A 
HETATM    4  C   UNK N   1      24.785  18.506   4.552  0.00  0.00     0.011 A 
HETATM    5  C   UNK N   1      23.375  19.972   3.223  0.00  0.00     0.037 A 
HETATM    6  C   UNK N   1      25.936  19.172   4.093  0.00  0.00    -0.021 A 
ENDROOT
BRANCH   6   7
HETATM    7  C   UNK N   1      27.318  18.673   4.484  0.00  0.00     0.134 C 
HETATM    8  C   UNK N   1      27.602  17.393   3.706  0.00  0.00     0.055 C 
BRANCH   7   9
HETATM    9  C   UNK N   1      27.412  18.424   5.972  0.00  0.00     0.173 C 
HETATM   10  O   UNK N   1      27.623  17.295   6.387  0.00  0.00    -0.648 OA
BRANCH   9  11
HETATM   11  O   UNK N   1      27.234  19.430   6.854  0.00  0.00    -0.774 OA
HETATM   12  H   UNK N   1      27.504  20.299   6.634  0.00  0.00     0.167 HD
ENDBRANCH   9  11
ENDBRANCH   7   9
BRANCH   7  13
HETATM   13  N   UNK N   1      28.339  19.646   4.119  0.00  0.00    -0.410 N 
HETATM   14  H   UNK N   1      28.237  20.340   3.379  0.00  0.00     0.151 HD
HETATM   15  H   UNK N   1      29.217  19.631   4.640  0.00  0.00     0.151 HD
ENDBRANCH   7  13
ENDBRANCH   6   7
BRANCH   5  16
HETATM   16  C   UNK N   1      22.042  20.344   2.711  0.00  0.00     0.176 C 
HETATM   17  O   UNK N   1      21.250  19.477   2.365  0.00  0.00    -0.646 OA
BRANCH  16  18
HETATM   18  O   UNK N   1      21.671  21.638   2.655  0.00  0.00    -0.773 OA
HETATM   19  H   UNK N   1      21.159  22.037   3.330  0.00  0.00     0.167 HD
ENDBRANCH  16  18
ENDBRANCH   5  16
TORSDOF 6
ENDMDL
