MODEL 1
REMARK VINA RESULT:      -5.4      0.000      0.000
REMARK  18 active torsions:
REMARK  status: ('A' for Active; 'I' for Inactive)
REMARK    1  A    between atoms: P_1  and  O_2 
REMARK    2  A    between atoms: P_1  and  O_3 
REMARK    3  A    between atoms: P_1  and  O_4 
REMARK    4  A    between atoms: C_6  and  O_2 
REMARK    5  A    between atoms: C_7  and  O_10 
REMARK    6  A    between atoms: C_8  and  O_12 
REMARK    7  A    between atoms: C_9  and  O_14 
REMARK    8  A    between atoms: O_10  and  P_15 
REMARK    9  A    between atoms: C_11  and  O_16 
REMARK   10  A    between atoms: C_13  and  O_17 
REMARK   11  A    between atoms: P_15  and  O_18 
REMARK   12  A    between atoms: P_15  and  O_19 
REMARK   13  A    between atoms: O_16  and  P_21 
REMARK   14  A    between atoms: O_17  and  P_22 
REMARK   15  A    between atoms: P_21  and  O_23 
REMARK   16  A    between atoms: P_21  and  O_24 
REMARK   17  A    between atoms: P_22  and  O_26 
REMARK   18  A    between atoms: P_22  and  O_27 
ROOT
HETATM    1  C   UNK N   1      30.878  16.875   7.761  0.00  0.00     0.197 C 
HETATM    2  C   UNK N   1      31.200  16.788   6.267  0.00  0.00     0.197 C 
HETATM    3  C   UNK N   1      31.647  15.811   8.544  0.00  0.00     0.182 C 
HETATM    4  C   UNK N   1      32.707  16.933   6.044  0.00  0.00     0.182 C 
HETATM    5  C   UNK N   1      33.157  15.971   8.327  0.00  0.00     0.197 C 
HETATM    6  C   UNK N   1      33.507  15.888   6.831  0.00  0.00     0.197 C 
ENDROOT
BRANCH   1   7
HETATM    7  O   UNK N   1      29.499  16.721   7.968  0.00  0.00    -0.286 OA
BRANCH   7   8
HETATM    8  P   UNK N   1      28.982  18.191   8.748  0.00  0.00     0.391 P 
HETATM    9  O   UNK N   1      28.891  17.168   9.912  0.00  0.00    -0.632 OA
BRANCH   8  10
HETATM   10  O   UNK N   1      27.348  18.384   9.296  0.00  0.00    -0.307 OA
HETATM   11  H   UNK N   1      26.705  18.902   8.786  0.00  0.00     0.222 HD
ENDBRANCH   8  10
BRANCH   8  12
HETATM   12  O   UNK N   1      27.844  17.755   7.511  0.00  0.00    -0.307 OA
HETATM   13  H   UNK N   1      27.947  18.005   6.580  0.00  0.00     0.222 HD
ENDBRANCH   8  12
ENDBRANCH   7   8
ENDBRANCH   1   7
BRANCH   2  14
HETATM   14  O   UNK N   1      30.536  17.813   5.586  0.00  0.00    -0.286 OA
BRANCH  14  15
HETATM   15  P   UNK N   1      29.439  17.038   4.474  0.00  0.00     0.391 P 
HETATM   16  O   UNK N   1      30.280  16.317   3.387  0.00  0.00    -0.632 OA
BRANCH  15  17
HETATM   17  O   UNK N   1      28.435  15.851   5.248  0.00  0.00    -0.307 OA
HETATM   18  H   UNK N   1      28.265  15.111   5.852  0.00  0.00     0.222 HD
ENDBRANCH  15  17
BRANCH  15  19
HETATM   19  O   UNK N   1      28.469  18.221   3.656  0.00  0.00    -0.307 OA
HETATM   20  H   UNK N   1      28.688  19.160   3.558  0.00  0.00     0.222 HD
ENDBRANCH  15  19
ENDBRANCH  14  15
ENDBRANCH   2  14
BRANCH   3  21
HETATM   21  O   UNK N   1      31.353  15.935   9.904  0.00  0.00    -0.390 OA
HETATM   22  H   UNK N   1      30.789  16.662  10.214  0.00  0.00     0.210 HD
ENDBRANCH   3  21
BRANCH   4  23
HETATM   23  O   UNK N   1      32.989  16.819   4.681  0.00  0.00    -0.390 OA
HETATM   24  H   UNK N   1      32.268  16.839   4.032  0.00  0.00     0.210 HD
ENDBRANCH   4  23
BRANCH   5  25
HETATM   25  O   UNK N   1      33.852  14.994   9.058  0.00  0.00    -0.286 OA
BRANCH  25  26
HETATM   26  P   UNK N   1      34.778  15.863  10.256  0.00  0.00     0.391 P 
HETATM   27  O   UNK N   1      35.575  14.905  11.179  0.00  0.00    -0.632 OA
BRANCH  26  28
HETATM   28  O   UNK N   1      35.870  15.027   9.198  0.00  0.00    -0.307 OA
HETATM   29  H   UNK N   1      35.648  14.325   8.565  0.00  0.00     0.222 HD
ENDBRANCH  26  28
BRANCH  26  30
HETATM   30  O   UNK N   1      33.566  14.950  11.098  0.00  0.00    -0.307 OA
HETATM   31  H   UNK N   1      32.700  15.213  11.448  0.00  0.00     0.222 HD
ENDBRANCH  26  30
ENDBRANCH  25  26
ENDBRANCH   5  25
BRANCH   6  32
HETATM   32  O   UNK N   1      34.874  16.144   6.662  0.00  0.00    -0.286 OA
BRANCH  32  33
HETATM   33  P   UNK N   1      35.569  14.719   5.938  0.00  0.00     0.391 P 
HETATM   34  O   UNK N   1      34.851  14.534   4.574  0.00  0.00    -0.632 OA
BRANCH  33  35
HETATM   35  O   UNK N   1      37.257  14.903   5.576  0.00  0.00    -0.307 OA
HETATM   36  H   UNK N   1      38.055  15.260   5.154  0.00  0.00     0.222 HD
ENDBRANCH  33  35
BRANCH  33  37
HETATM   37  O   UNK N   1      35.247  13.280   6.853  0.00  0.00    -0.307 OA
HETATM   38  H   UNK N   1      34.863  12.504   6.417  0.00  0.00     0.222 HD
ENDBRANCH  33  37
ENDBRANCH  32  33
ENDBRANCH   6  32
TORSDOF 18
ENDMDL
MODEL 2
REMARK VINA RESULT:      -5.1      3.282      4.865
REMARK  18 active torsions:
REMARK  status: ('A' for Active; 'I' for Inactive)
REMARK    1  A    between atoms: P_1  and  O_2 
REMARK    2  A    between atoms: P_1  and  O_3 
REMARK    3  A    between atoms: P_1  and  O_4 
REMARK    4  A    between atoms: C_6  and  O_2 
REMARK    5  A    between atoms: C_7  and  O_10 
REMARK    6  A    between atoms: C_8  and  O_12 
REMARK    7  A    between atoms: C_9  and  O_14 
REMARK    8  A    between atoms: O_10  and  P_15 
REMARK    9  A    between atoms: C_11  and  O_16 
REMARK   10  A    between atoms: C_13  and  O_17 
REMARK   11  A    between atoms: P_15  and  O_18 
REMARK   12  A    between atoms: P_15  and  O_19 
REMARK   13  A    between atoms: O_16  and  P_21 
REMARK   14  A    between atoms: O_17  and  P_22 
REMARK   15  A    between atoms: P_21  and  O_23 
REMARK   16  A    between atoms: P_21  and  O_24 
REMARK   17  A    between atoms: P_22  and  O_26 
REMARK   18  A    between atoms: P_22  and  O_27 
ROOT
HETATM    1  C   UNK N   1      34.010  15.456   9.021  0.00  0.00     0.197 C 
HETATM    2  C   UNK N   1      33.227  14.551   8.066  0.00  0.00     0.197 C 
HETATM    3  C   UNK N   1      34.018  14.874  10.435  0.00  0.00     0.182 C 
HETATM    4  C   UNK N   1      33.823  13.141   8.069  0.00  0.00     0.182 C 
HETATM    5  C   UNK N   1      34.629  13.467  10.432  0.00  0.00     0.197 C 
HETATM    6  C   UNK N   1      33.860  12.537   9.478  0.00  0.00     0.197 C 
ENDROOT
BRANCH   1   7
HETATM    7  O   UNK N   1      33.451  16.742   9.035  0.00  0.00    -0.286 OA
BRANCH   7   8
HETATM    8  P   UNK N   1      34.553  17.733   8.117  0.00  0.00     0.391 P 
HETATM    9  O   UNK N   1      35.181  17.795   9.536  0.00  0.00    -0.632 OA
BRANCH   8  10
HETATM   10  O   UNK N   1      34.672  19.440   8.407  0.00  0.00    -0.307 OA
HETATM   11  H   UNK N   1      34.558  20.081   7.687  0.00  0.00     0.222 HD
ENDBRANCH   8  10
BRANCH   8  12
HETATM   12  O   UNK N   1      32.986  18.480   8.151  0.00  0.00    -0.307 OA
HETATM   13  H   UNK N   1      32.539  18.746   8.969  0.00  0.00     0.222 HD
ENDBRANCH   8  12
ENDBRANCH   7   8
ENDBRANCH   1   7
BRANCH   2  14
HETATM   14  O   UNK N   1      33.293  15.073   6.770  0.00  0.00    -0.286 OA
BRANCH  14  15
HETATM   15  P   UNK N   1      31.657  15.463   6.311  0.00  0.00     0.391 P 
HETATM   16  O   UNK N   1      30.883  14.134   6.097  0.00  0.00    -0.632 OA
BRANCH  15  17
HETATM   17  O   UNK N   1      30.823  16.376   7.530  0.00  0.00    -0.307 OA
HETATM   18  H   UNK N   1      30.312  17.133   7.856  0.00  0.00     0.222 HD
ENDBRANCH  15  17
BRANCH  15  19
HETATM   19  O   UNK N   1      31.637  16.305   4.794  0.00  0.00    -0.307 OA
HETATM   20  H   UNK N   1      31.260  17.185   4.643  0.00  0.00     0.222 HD
ENDBRANCH  15  19
ENDBRANCH  14  15
ENDBRANCH   2  14
BRANCH   3  21
HETATM   21  O   UNK N   1      34.762  15.707  11.273  0.00  0.00    -0.390 OA
HETATM   22  H   UNK N   1      34.957  16.618  11.002  0.00  0.00     0.210 HD
ENDBRANCH   3  21
BRANCH   4  23
HETATM   23  O   UNK N   1      33.080  12.320   7.219  0.00  0.00    -0.390 OA
HETATM   24  H   UNK N   1      32.481  11.652   7.590  0.00  0.00     0.210 HD
ENDBRANCH   4  23
BRANCH   5  25
HETATM   25  O   UNK N   1      34.639  12.947  11.737  0.00  0.00    -0.286 OA
BRANCH  25  26
HETATM   26  P   UNK N   1      36.276  13.135  12.313  0.00  0.00     0.391 P 
HETATM   27  O   UNK N   1      36.521  12.349  13.628  0.00  0.00    -0.632 OA
BRANCH  26  28
HETATM   28  O   UNK N   1      36.014  11.471  11.896  0.00  0.00    -0.307 OA
HETATM   29  H   UNK N   1      36.226  10.693  12.437  0.00  0.00     0.222 HD
ENDBRANCH  26  28
BRANCH  26  30
HETATM   30  O   UNK N   1      35.227  13.881  13.477  0.00  0.00    -0.307 OA
HETATM   31  H   UNK N   1      34.571  14.590  13.380  0.00  0.00     0.222 HD
ENDBRANCH  26  30
ENDBRANCH  25  26
ENDBRANCH   5  25
BRANCH   6  32
HETATM   32  O   UNK N   1      34.508  11.296   9.420  0.00  0.00    -0.286 OA
BRANCH  32  33
HETATM   33  P   UNK N   1      33.395  10.116  10.059  0.00  0.00     0.391 P 
HETATM   34  O   UNK N   1      32.000  10.483   9.487  0.00  0.00    -0.632 OA
BRANCH  33  35
HETATM   35  O   UNK N   1      33.736   8.505   9.510  0.00  0.00    -0.307 OA
HETATM   36  H   UNK N   1      33.719   7.534   9.497  0.00  0.00     0.222 HD
ENDBRANCH  33  35
BRANCH  33  37
HETATM   37  O   UNK N   1      33.248  10.203  11.786  0.00  0.00    -0.307 OA
HETATM   38  H   UNK N   1      32.417   9.946  12.216  0.00  0.00     0.222 HD
ENDBRANCH  33  37
ENDBRANCH  32  33
ENDBRANCH   6  32
TORSDOF 18
ENDMDL
MODEL 3
REMARK VINA RESULT:      -5.0      3.846      7.626
REMARK  18 active torsions:
REMARK  status: ('A' for Active; 'I' for Inactive)
REMARK    1  A    between atoms: P_1  and  O_2 
REMARK    2  A    between atoms: P_1  and  O_3 
REMARK    3  A    between atoms: P_1  and  O_4 
REMARK    4  A    between atoms: C_6  and  O_2 
REMARK    5  A    between atoms: C_7  and  O_10 
REMARK    6  A    between atoms: C_8  and  O_12 
REMARK    7  A    between atoms: C_9  and  O_14 
REMARK    8  A    between atoms: O_10  and  P_15 
REMARK    9  A    between atoms: C_11  and  O_16 
REMARK   10  A    between atoms: C_13  and  O_17 
REMARK   11  A    between atoms: P_15  and  O_18 
REMARK   12  A    between atoms: P_15  and  O_19 
REMARK   13  A    between atoms: O_16  and  P_21 
REMARK   14  A    between atoms: O_17  and  P_22 
REMARK   15  A    between atoms: P_21  and  O_23 
REMARK   16  A    between atoms: P_21  and  O_24 
REMARK   17  A    between atoms: P_22  and  O_26 
REMARK   18  A    between atoms: P_22  and  O_27 
ROOT
HETATM    1  C   UNK N   1      35.738  13.988  11.485  0.00  0.00     0.197 C 
HETATM    2  C   UNK N   1      35.088  12.759  10.843  0.00  0.00     0.197 C 
HETATM    3  C   UNK N   1      36.213  14.971  10.413  0.00  0.00     0.182 C 
HETATM    4  C   UNK N   1      33.926  13.186   9.945  0.00  0.00     0.182 C 
HETATM    5  C   UNK N   1      35.040  15.405   9.525  0.00  0.00     0.197 C 
HETATM    6  C   UNK N   1      34.369  14.186   8.870  0.00  0.00     0.197 C 
ENDROOT
BRANCH   1   7
HETATM    7  O   UNK N   1      36.818  13.599  12.291  0.00  0.00    -0.286 OA
BRANCH   7   8
HETATM    8  P   UNK N   1      36.215  13.655  13.926  0.00  0.00     0.391 P 
HETATM    9  O   UNK N   1      36.590  15.141  13.676  0.00  0.00    -0.632 OA
BRANCH   8  10
HETATM   10  O   UNK N   1      37.272  14.009  15.255  0.00  0.00    -0.307 OA
HETATM   11  H   UNK N   1      37.182  14.832  15.763  0.00  0.00     0.222 HD
ENDBRANCH   8  10
BRANCH   8  12
HETATM   12  O   UNK N   1      37.653  12.683  13.866  0.00  0.00    -0.307 OA
HETATM   13  H   UNK N   1      38.534  13.021  14.088  0.00  0.00     0.222 HD
ENDBRANCH   8  12
ENDBRANCH   7   8
ENDBRANCH   1   7
BRANCH   2  14
HETATM   14  O   UNK N   1      34.605  11.912  11.845  0.00  0.00    -0.286 OA
BRANCH  14  15
HETATM   15  P   UNK N   1      35.460  10.402  11.671  0.00  0.00     0.391 P 
HETATM   16  O   UNK N   1      35.166   9.840  10.254  0.00  0.00    -0.632 OA
BRANCH  15  17
HETATM   17  O   UNK N   1      37.180  10.589  11.825  0.00  0.00    -0.307 OA
HETATM   18  H   UNK N   1      37.986  10.927  12.244  0.00  0.00     0.222 HD
ENDBRANCH  15  17
BRANCH  15  19
HETATM   19  O   UNK N   1      34.867   9.234  12.808  0.00  0.00    -0.307 OA
HETATM   20  H   UNK N   1      33.935   9.009  12.952  0.00  0.00     0.222 HD
ENDBRANCH  15  19
ENDBRANCH  14  15
ENDBRANCH   2  14
BRANCH   3  21
HETATM   21  O   UNK N   1      36.775  16.091  11.030  0.00  0.00    -0.390 OA
HETATM   22  H   UNK N   1      36.202  16.796  11.370  0.00  0.00     0.210 HD
ENDBRANCH   3  21
BRANCH   4  23
HETATM   23  O   UNK N   1      33.364  12.059   9.343  0.00  0.00    -0.390 OA
HETATM   24  H   UNK N   1      33.757  11.184   9.488  0.00  0.00     0.210 HD
ENDBRANCH   4  23
BRANCH   5  25
HETATM   25  O   UNK N   1      35.487  16.313   8.551  0.00  0.00    -0.286 OA
BRANCH  25  26
HETATM   26  P   UNK N   1      34.296  17.588   8.506  0.00  0.00     0.391 P 
HETATM   27  O   UNK N   1      34.863  18.888   7.877  0.00  0.00    -0.632 OA
BRANCH  26  28
HETATM   28  O   UNK N   1      34.717  17.153   6.880  0.00  0.00    -0.307 OA
HETATM   29  H   UNK N   1      35.125  16.323   6.584  0.00  0.00     0.222 HD
ENDBRANCH  26  28
BRANCH  26  30
HETATM   30  O   UNK N   1      35.555  18.092   9.590  0.00  0.00    -0.307 OA
HETATM   31  H   UNK N   1      35.920  18.971   9.775  0.00  0.00     0.222 HD
ENDBRANCH  26  30
ENDBRANCH  25  26
ENDBRANCH   5  25
BRANCH   6  32
HETATM   32  O   UNK N   1      33.241  14.609   8.154  0.00  0.00    -0.286 OA
BRANCH  32  33
HETATM   33  P   UNK N   1      33.373  13.930   6.554  0.00  0.00     0.391 P 
HETATM   34  O   UNK N   1      34.863  13.536   6.375  0.00  0.00    -0.632 OA
BRANCH  33  35
HETATM   35  O   UNK N   1      32.458  12.467   6.367  0.00  0.00    -0.307 OA
HETATM   36  H   UNK N   1      32.221  11.589   6.029  0.00  0.00     0.222 HD
ENDBRANCH  33  35
BRANCH  33  37
HETATM   37  O   UNK N   1      33.025  15.086   5.307  0.00  0.00    -0.307 OA
HETATM   38  H   UNK N   1      33.575  15.119   4.509  0.00  0.00     0.222 HD
ENDBRANCH  33  37
ENDBRANCH  32  33
ENDBRANCH   6  32
TORSDOF 18
ENDMDL
MODEL 4
REMARK VINA RESULT:      -5.0      1.436      4.760
REMARK  18 active torsions:
REMARK  status: ('A' for Active; 'I' for Inactive)
REMARK    1  A    between atoms: P_1  and  O_2 
REMARK    2  A    between atoms: P_1  and  O_3 
REMARK    3  A    between atoms: P_1  and  O_4 
REMARK    4  A    between atoms: C_6  and  O_2 
REMARK    5  A    between atoms: C_7  and  O_10 
REMARK    6  A    between atoms: C_8  and  O_12 
REMARK    7  A    between atoms: C_9  and  O_14 
REMARK    8  A    between atoms: O_10  and  P_15 
REMARK    9  A    between atoms: C_11  and  O_16 
REMARK   10  A    between atoms: C_13  and  O_17 
REMARK   11  A    between atoms: P_15  and  O_18 
REMARK   12  A    between atoms: P_15  and  O_19 
REMARK   13  A    between atoms: O_16  and  P_21 
REMARK   14  A    between atoms: O_17  and  P_22 
REMARK   15  A    between atoms: P_21  and  O_23 
REMARK   16  A    between atoms: P_21  and  O_24 
REMARK   17  A    between atoms: P_22  and  O_26 
REMARK   18  A    between atoms: P_22  and  O_27 
ROOT
HETATM    1  C   UNK N   1      32.507  16.216   6.699  0.00  0.00     0.197 C 
HETATM    2  C   UNK N   1      31.932  16.298   8.116  0.00  0.00     0.197 C 
HETATM    3  C   UNK N   1      34.036  16.231   6.734  0.00  0.00     0.182 C 
HETATM    4  C   UNK N   1      32.468  15.145   8.969  0.00  0.00     0.182 C 
HETATM    5  C   UNK N   1      34.565  15.066   7.579  0.00  0.00     0.197 C 
HETATM    6  C   UNK N   1      34.000  15.125   9.008  0.00  0.00     0.197 C 
ENDROOT
BRANCH   1   7
HETATM    7  O   UNK N   1      32.034  17.285   5.924  0.00  0.00    -0.286 OA
BRANCH   7   8
HETATM    8  P   UNK N   1      31.213  16.546   4.575  0.00  0.00     0.391 P 
HETATM    9  O   UNK N   1      32.261  17.439   3.856  0.00  0.00    -0.632 OA
BRANCH   8  10
HETATM   10  O   UNK N   1      30.234  17.491   3.499  0.00  0.00    -0.307 OA
HETATM   11  H   UNK N   1      29.798  17.087   2.731  0.00  0.00     0.222 HD
ENDBRANCH   8  10
BRANCH   8  12
HETATM   12  O   UNK N   1      30.105  17.555   5.451  0.00  0.00    -0.307 OA
HETATM   13  H   UNK N   1      29.776  18.403   5.114  0.00  0.00     0.222 HD
ENDBRANCH   8  12
ENDBRANCH   7   8
ENDBRANCH   1   7
BRANCH   2  14
HETATM   14  O   UNK N   1      30.537  16.215   8.058  0.00  0.00    -0.286 OA
BRANCH  14  15
HETATM   15  P   UNK N   1      29.924  17.603   8.916  0.00  0.00     0.391 P 
HETATM   16  O   UNK N   1      31.038  18.683   8.951  0.00  0.00    -0.632 OA
BRANCH  15  17
HETATM   17  O   UNK N   1      28.530  18.298   8.147  0.00  0.00    -0.307 OA
HETATM   18  H   UNK N   1      28.082  18.880   7.513  0.00  0.00     0.222 HD
ENDBRANCH  15  17
BRANCH  15  19
HETATM   19  O   UNK N   1      29.572  17.192  10.564  0.00  0.00    -0.307 OA
HETATM   20  H   UNK N   1      29.568  16.295  10.933  0.00  0.00     0.222 HD
ENDBRANCH  15  19
ENDBRANCH  14  15
ENDBRANCH   2  14
BRANCH   3  21
HETATM   21  O   UNK N   1      34.528  16.128   5.431  0.00  0.00    -0.390 OA
HETATM   22  H   UNK N   1      34.294  16.799   4.770  0.00  0.00     0.210 HD
ENDBRANCH   3  21
BRANCH   4  23
HETATM   23  O   UNK N   1      31.960  15.251  10.266  0.00  0.00    -0.390 OA
HETATM   24  H   UNK N   1      31.503  16.060  10.544  0.00  0.00     0.210 HD
ENDBRANCH   4  23
BRANCH   5  25
HETATM   25  O   UNK N   1      35.970  15.086   7.596  0.00  0.00    -0.286 OA
BRANCH  25  26
HETATM   26  P   UNK N   1      36.476  13.593   6.846  0.00  0.00     0.391 P 
HETATM   27  O   UNK N   1      38.020  13.501   6.725  0.00  0.00    -0.632 OA
BRANCH  26  28
HETATM   28  O   UNK N   1      37.058  13.628   8.481  0.00  0.00    -0.307 OA
HETATM   29  H   UNK N   1      37.899  13.998   8.794  0.00  0.00     0.222 HD
ENDBRANCH  26  28
BRANCH  26  30
HETATM   30  O   UNK N   1      36.914  14.887   5.775  0.00  0.00    -0.307 OA
HETATM   31  H   UNK N   1      37.463  14.892   4.975  0.00  0.00     0.222 HD
ENDBRANCH  26  30
ENDBRANCH  25  26
ENDBRANCH   5  25
BRANCH   6  32
HETATM   32  O   UNK N   1      34.419  13.991   9.717  0.00  0.00    -0.286 OA
BRANCH  32  33
HETATM   33  P   UNK N   1      35.008  14.549  11.260  0.00  0.00     0.391 P 
HETATM   34  O   UNK N   1      36.546  14.348  11.233  0.00  0.00    -0.632 OA
BRANCH  33  35
HETATM   35  O   UNK N   1      34.744  16.246  11.507  0.00  0.00    -0.307 OA
HETATM   36  H   UNK N   1      34.545  17.068  11.984  0.00  0.00     0.222 HD
ENDBRANCH  33  35
BRANCH  33  37
HETATM   37  O   UNK N   1      34.419  13.594  12.585  0.00  0.00    -0.307 OA
HETATM   38  H   UNK N   1      34.018  14.027  13.354  0.00  0.00     0.222 HD
ENDBRANCH  33  37
ENDBRANCH  32  33
ENDBRANCH   6  32
TORSDOF 18
ENDMDL
MODEL 5
REMARK VINA RESULT:      -4.9      3.623      7.957
REMARK  18 active torsions:
REMARK  status: ('A' for Active; 'I' for Inactive)
REMARK    1  A    between atoms: P_1  and  O_2 
REMARK    2  A    between atoms: P_1  and  O_3 
REMARK    3  A    between atoms: P_1  and  O_4 
REMARK    4  A    between atoms: C_6  and  O_2 
REMARK    5  A    between atoms: C_7  and  O_10 
REMARK    6  A    between atoms: C_8  and  O_12 
REMARK    7  A    between atoms: C_9  and  O_14 
REMARK    8  A    between atoms: O_10  and  P_15 
REMARK    9  A    between atoms: C_11  and  O_16 
REMARK   10  A    between atoms: C_13  and  O_17 
REMARK   11  A    between atoms: P_15  and  O_18 
REMARK   12  A    between atoms: P_15  and  O_19 
REMARK   13  A    between atoms: O_16  and  P_21 
REMARK   14  A    between atoms: O_17  and  P_22 
REMARK   15  A    between atoms: P_21  and  O_23 
REMARK   16  A    between atoms: P_21  and  O_24 
REMARK   17  A    between atoms: P_22  and  O_26 
REMARK   18  A    between atoms: P_22  and  O_27 
ROOT
HETATM    1  C   UNK N   1      34.767  12.136  10.331  0.00  0.00     0.197 C 
HETATM    2  C   UNK N   1      35.466  13.286  11.062  0.00  0.00     0.197 C 
HETATM    3  C   UNK N   1      33.586  12.655   9.510  0.00  0.00     0.182 C 
HETATM    4  C   UNK N   1      35.926  14.346  10.058  0.00  0.00     0.182 C 
HETATM    5  C   UNK N   1      34.056  13.707   8.498  0.00  0.00     0.197 C 
HETATM    6  C   UNK N   1      34.764  14.873   9.209  0.00  0.00     0.197 C 
ENDROOT
BRANCH   1   7
HETATM    7  O   UNK N   1      34.327  11.175  11.252  0.00  0.00    -0.286 OA
BRANCH   7   8
HETATM    8  P   UNK N   1      35.231   9.732  10.880  0.00  0.00     0.391 P 
HETATM    9  O   UNK N   1      33.777   9.277  10.582  0.00  0.00    -0.632 OA
BRANCH   8  10
HETATM   10  O   UNK N   1      35.073   8.303  11.851  0.00  0.00    -0.307 OA
HETATM   11  H   UNK N   1      35.705   8.106  12.561  0.00  0.00     0.222 HD
ENDBRANCH   8  10
BRANCH   8  12
HETATM   12  O   UNK N   1      35.383  10.097  12.571  0.00  0.00    -0.307 OA
HETATM   13  H   UNK N   1      35.116   9.486  13.274  0.00  0.00     0.222 HD
ENDBRANCH   8  12
ENDBRANCH   7   8
ENDBRANCH   1   7
BRANCH   2  14
HETATM   14  O   UNK N   1      36.580  12.792  11.748  0.00  0.00    -0.286 OA
BRANCH  14  15
HETATM   15  P   UNK N   1      36.323  13.157  13.433  0.00  0.00     0.391 P 
HETATM   16  O   UNK N   1      37.175  12.171  14.278  0.00  0.00    -0.632 OA
BRANCH  15  17
HETATM   17  O   UNK N   1      36.808  14.772  13.847  0.00  0.00    -0.307 OA
HETATM   18  H   UNK N   1      37.451  15.451  14.107  0.00  0.00     0.222 HD
ENDBRANCH  15  17
BRANCH  15  19
HETATM   19  O   UNK N   1      34.665  12.886  13.867  0.00  0.00    -0.307 OA
HETATM   20  H   UNK N   1      34.167  12.069  13.710  0.00  0.00     0.222 HD
ENDBRANCH  15  19
ENDBRANCH  14  15
ENDBRANCH   2  14
BRANCH   3  21
HETATM   21  O   UNK N   1      32.987  11.589   8.836  0.00  0.00    -0.390 OA
HETATM   22  H   UNK N   1      32.196  11.740   8.295  0.00  0.00     0.210 HD
ENDBRANCH   3  21
BRANCH   4  23
HETATM   23  O   UNK N   1      36.533  15.402  10.741  0.00  0.00    -0.390 OA
HETATM   24  H   UNK N   1      36.066  15.842  11.469  0.00  0.00     0.210 HD
ENDBRANCH   4  23
BRANCH   5  25
HETATM   25  O   UNK N   1      32.963  14.170   7.746  0.00  0.00    -0.286 OA
BRANCH  25  26
HETATM   26  P   UNK N   1      33.412  13.956   6.072  0.00  0.00     0.391 P 
HETATM   27  O   UNK N   1      32.224  14.232   5.114  0.00  0.00    -0.632 OA
BRANCH  26  28
HETATM   28  O   UNK N   1      33.000  15.621   6.337  0.00  0.00    -0.307 OA
HETATM   29  H   UNK N   1      32.139  16.041   6.181  0.00  0.00     0.222 HD
ENDBRANCH  26  28
BRANCH  26  30
HETATM   30  O   UNK N   1      32.241  12.733   6.456  0.00  0.00    -0.307 OA
HETATM   31  H   UNK N   1      32.343  11.781   6.612  0.00  0.00     0.222 HD
ENDBRANCH  26  30
ENDBRANCH  25  26
ENDBRANCH   5  25
BRANCH   6  32
HETATM   32  O   UNK N   1      35.271  15.759   8.248  0.00  0.00    -0.286 OA
BRANCH  32  33
HETATM   33  P   UNK N   1      34.483  17.292   8.508  0.00  0.00     0.391 P 
HETATM   34  O   UNK N   1      35.288  18.008   9.624  0.00  0.00    -0.632 OA
BRANCH  33  35
HETATM   35  O   UNK N   1      34.553  18.328   7.117  0.00  0.00    -0.307 OA
HETATM   36  H   UNK N   1      34.907  18.993   6.505  0.00  0.00     0.222 HD
ENDBRANCH  33  35
BRANCH  33  37
HETATM   37  O   UNK N   1      32.866  17.117   9.115  0.00  0.00    -0.307 OA
HETATM   38  H   UNK N   1      32.601  16.297   9.559  0.00  0.00     0.222 HD
ENDBRANCH  33  37
ENDBRANCH  32  33
ENDBRANCH   6  32
TORSDOF 18
ENDMDL
MODEL 6
REMARK VINA RESULT:      -4.7      3.051      7.283
REMARK  18 active torsions:
REMARK  status: ('A' for Active; 'I' for Inactive)
REMARK    1  A    between atoms: P_1  and  O_2 
REMARK    2  A    between atoms: P_1  and  O_3 
REMARK    3  A    between atoms: P_1  and  O_4 
REMARK    4  A    between atoms: C_6  and  O_2 
REMARK    5  A    between atoms: C_7  and  O_10 
REMARK    6  A    between atoms: C_8  and  O_12 
REMARK    7  A    between atoms: C_9  and  O_14 
REMARK    8  A    between atoms: O_10  and  P_15 
REMARK    9  A    between atoms: C_11  and  O_16 
REMARK   10  A    between atoms: C_13  and  O_17 
REMARK   11  A    between atoms: P_15  and  O_18 
REMARK   12  A    between atoms: P_15  and  O_19 
REMARK   13  A    between atoms: O_16  and  P_21 
REMARK   14  A    between atoms: O_17  and  P_22 
REMARK   15  A    between atoms: P_21  and  O_23 
REMARK   16  A    between atoms: P_21  and  O_24 
REMARK   17  A    between atoms: P_22  and  O_26 
REMARK   18  A    between atoms: P_22  and  O_27 
ROOT
HETATM    1  C   UNK N   1      35.176  13.453  10.658  0.00  0.00     0.197 C 
HETATM    2  C   UNK N   1      36.085  13.158   9.460  0.00  0.00     0.197 C 
HETATM    3  C   UNK N   1      34.535  14.835  10.523  0.00  0.00     0.182 C 
HETATM    4  C   UNK N   1      35.289  13.263   8.157  0.00  0.00     0.182 C 
HETATM    5  C   UNK N   1      33.729  14.928   9.221  0.00  0.00     0.197 C 
HETATM    6  C   UNK N   1      34.620  14.634   8.003  0.00  0.00     0.197 C 
ENDROOT
BRANCH   1   7
HETATM    7  O   UNK N   1      35.910  13.378  11.850  0.00  0.00    -0.286 OA
BRANCH   7   8
HETATM    8  P   UNK N   1      35.157  12.107  12.775  0.00  0.00     0.391 P 
HETATM    9  O   UNK N   1      34.831  13.357  13.636  0.00  0.00    -0.632 OA
BRANCH   8  10
HETATM   10  O   UNK N   1      35.762  11.661  14.339  0.00  0.00    -0.307 OA
HETATM   11  H   UNK N   1      36.003  10.742  14.541  0.00  0.00     0.222 HD
ENDBRANCH   8  10
BRANCH   8  12
HETATM   12  O   UNK N   1      36.876  11.865  12.742  0.00  0.00    -0.307 OA
HETATM   13  H   UNK N   1      37.362  11.395  13.437  0.00  0.00     0.222 HD
ENDBRANCH   8  12
ENDBRANCH   7   8
ENDBRANCH   1   7
BRANCH   2  14
HETATM   14  O   UNK N   1      36.603  11.864   9.577  0.00  0.00    -0.286 OA
BRANCH  14  15
HETATM   15  P   UNK N   1      38.337  12.032   9.656  0.00  0.00     0.391 P 
HETATM   16  O   UNK N   1      38.834  12.575   8.290  0.00  0.00    -0.632 OA
BRANCH  15  17
HETATM   17  O   UNK N   1      38.842  13.145  10.890  0.00  0.00    -0.307 OA
HETATM   18  H   UNK N   1      38.692  13.798  11.591  0.00  0.00     0.222 HD
ENDBRANCH  15  17
BRANCH  15  19
HETATM   19  O   UNK N   1      39.086  10.484   9.884  0.00  0.00    -0.307 OA
HETATM   20  H   UNK N   1      38.933   9.888  10.632  0.00  0.00     0.222 HD
ENDBRANCH  15  19
ENDBRANCH  14  15
ENDBRANCH   2  14
BRANCH   3  21
HETATM   21  O   UNK N   1      33.694  15.062  11.614  0.00  0.00    -0.390 OA
HETATM   22  H   UNK N   1      32.735  14.951  11.518  0.00  0.00     0.210 HD
ENDBRANCH   3  21
BRANCH   4  23
HETATM   23  O   UNK N   1      36.137  13.023   7.074  0.00  0.00    -0.390 OA
HETATM   24  H   UNK N   1      36.898  12.429   7.175  0.00  0.00     0.210 HD
ENDBRANCH   4  23
BRANCH   5  25
HETATM   25  O   UNK N   1      33.139  16.198   9.114  0.00  0.00    -0.286 OA
BRANCH  25  26
HETATM   26  P   UNK N   1      31.551  15.930   8.440  0.00  0.00     0.391 P 
HETATM   27  O   UNK N   1      30.488  16.865   9.074  0.00  0.00    -0.632 OA
BRANCH  26  28
HETATM   28  O   UNK N   1      32.069  17.537   8.038  0.00  0.00    -0.307 OA
HETATM   29  H   UNK N   1      31.644  18.370   8.297  0.00  0.00     0.222 HD
ENDBRANCH  26  28
BRANCH  26  30
HETATM   30  O   UNK N   1      31.491  15.464  10.111  0.00  0.00    -0.307 OA
HETATM   31  H   UNK N   1      30.769  15.092  10.642  0.00  0.00     0.222 HD
ENDBRANCH  26  30
ENDBRANCH  25  26
ENDBRANCH   5  25
BRANCH   6  32
HETATM   32  O   UNK N   1      33.830  14.623   6.845  0.00  0.00    -0.286 OA
BRANCH  32  33
HETATM   33  P   UNK N   1      34.492  15.825   5.771  0.00  0.00     0.391 P 
HETATM   34  O   UNK N   1      35.985  15.451   5.571  0.00  0.00    -0.632 OA
BRANCH  33  35
HETATM   35  O   UNK N   1      33.768  15.790   4.194  0.00  0.00    -0.307 OA
HETATM   36  H   UNK N   1      33.341  15.417   3.406  0.00  0.00     0.222 HD
ENDBRANCH  33  35
BRANCH  33  37
HETATM   37  O   UNK N   1      34.481  17.417   6.462  0.00  0.00    -0.307 OA
HETATM   38  H   UNK N   1      35.276  17.763   6.895  0.00  0.00     0.222 HD
ENDBRANCH  33  37
ENDBRANCH  32  33
ENDBRANCH   6  32
TORSDOF 18
ENDMDL
MODEL 7
REMARK VINA RESULT:      -4.6      1.627      6.314
REMARK  18 active torsions:
REMARK  status: ('A' for Active; 'I' for Inactive)
REMARK    1  A    between atoms: P_1  and  O_2 
REMARK    2  A    between atoms: P_1  and  O_3 
REMARK    3  A    between atoms: P_1  and  O_4 
REMARK    4  A    between atoms: C_6  and  O_2 
REMARK    5  A    between atoms: C_7  and  O_10 
REMARK    6  A    between atoms: C_8  and  O_12 
REMARK    7  A    between atoms: C_9  and  O_14 
REMARK    8  A    between atoms: O_10  and  P_15 
REMARK    9  A    between atoms: C_11  and  O_16 
REMARK   10  A    between atoms: C_13  and  O_17 
REMARK   11  A    between atoms: P_15  and  O_18 
REMARK   12  A    between atoms: P_15  and  O_19 
REMARK   13  A    between atoms: O_16  and  P_21 
REMARK   14  A    between atoms: O_17  and  P_22 
REMARK   15  A    between atoms: P_21  and  O_23 
REMARK   16  A    between atoms: P_21  and  O_24 
REMARK   17  A    between atoms: P_22  and  O_26 
REMARK   18  A    between atoms: P_22  and  O_27 
ROOT
HETATM    1  C   UNK N   1      33.716  15.860   8.315  0.00  0.00     0.197 C 
HETATM    2  C   UNK N   1      33.729  14.899   7.123  0.00  0.00     0.197 C 
HETATM    3  C   UNK N   1      32.855  17.087   8.011  0.00  0.00     0.182 C 
HETATM    4  C   UNK N   1      32.300  14.484   6.764  0.00  0.00     0.182 C 
HETATM    5  C   UNK N   1      31.421  16.665   7.666  0.00  0.00     0.197 C 
HETATM    6  C   UNK N   1      31.409  15.696   6.471  0.00  0.00     0.197 C 
ENDROOT
BRANCH   1   7
HETATM    7  O   UNK N   1      35.023  16.257   8.631  0.00  0.00    -0.286 OA
BRANCH   7   8
HETATM    8  P   UNK N   1      35.195  15.960  10.339  0.00  0.00     0.391 P 
HETATM    9  O   UNK N   1      35.561  17.466  10.243  0.00  0.00    -0.632 OA
BRANCH   8  10
HETATM   10  O   UNK N   1      36.751  16.023  11.105  0.00  0.00    -0.307 OA
HETATM   11  H   UNK N   1      37.278  16.838  11.103  0.00  0.00     0.222 HD
ENDBRANCH   8  10
BRANCH   8  12
HETATM   12  O   UNK N   1      36.369  15.028   9.463  0.00  0.00    -0.307 OA
HETATM   13  H   UNK N   1      36.500  14.076   9.593  0.00  0.00     0.222 HD
ENDBRANCH   8  12
ENDBRANCH   7   8
ENDBRANCH   1   7
BRANCH   2  14
HETATM   14  O   UNK N   1      34.468  13.758   7.453  0.00  0.00    -0.286 OA
BRANCH  14  15
HETATM   15  P   UNK N   1      35.816  13.705   6.350  0.00  0.00     0.391 P 
HETATM   16  O   UNK N   1      35.417  12.820   5.139  0.00  0.00    -0.632 OA
BRANCH  15  17
HETATM   17  O   UNK N   1      36.244  15.276   5.745  0.00  0.00    -0.307 OA
HETATM   18  H   UNK N   1      36.057  16.192   5.485  0.00  0.00     0.222 HD
ENDBRANCH  15  17
BRANCH  15  19
HETATM   19  O   UNK N   1      37.184  12.945   7.099  0.00  0.00    -0.307 OA
HETATM   20  H   UNK N   1      37.145  12.301   7.823  0.00  0.00     0.222 HD
ENDBRANCH  15  19
ENDBRANCH  14  15
ENDBRANCH   2  14
BRANCH   3  21
HETATM   21  O   UNK N   1      32.841  17.929   9.125  0.00  0.00    -0.390 OA
HETATM   22  H   UNK N   1      33.646  18.046   9.654  0.00  0.00     0.210 HD
ENDBRANCH   3  21
BRANCH   4  23
HETATM   23  O   UNK N   1      32.327  13.634   5.657  0.00  0.00    -0.390 OA
HETATM   24  H   UNK N   1      31.903  13.904   4.827  0.00  0.00     0.210 HD
ENDBRANCH   4  23
BRANCH   5  25
HETATM   25  O   UNK N   1      30.639  17.800   7.397  0.00  0.00    -0.286 OA
BRANCH  25  26
HETATM   26  P   UNK N   1      29.270  17.702   8.476  0.00  0.00     0.391 P 
HETATM   27  O   UNK N   1      28.424  19.002   8.458  0.00  0.00    -0.632 OA
BRANCH  26  28
HETATM   28  O   UNK N   1      28.693  17.839   6.845  0.00  0.00    -0.307 OA
HETATM   29  H   UNK N   1      28.062  18.491   6.502  0.00  0.00     0.222 HD
ENDBRANCH  26  28
BRANCH  26  30
HETATM   30  O   UNK N   1      30.331  18.929   9.094  0.00  0.00    -0.307 OA
HETATM   31  H   UNK N   1      30.954  18.916   9.838  0.00  0.00     0.222 HD
ENDBRANCH  26  30
ENDBRANCH  25  26
ENDBRANCH   5  25
BRANCH   6  32
HETATM   32  O   UNK N   1      30.098  15.250   6.252  0.00  0.00    -0.286 OA
BRANCH  32  33
HETATM   33  P   UNK N   1      29.671  15.714   4.627  0.00  0.00     0.391 P 
HETATM   34  O   UNK N   1      30.554  14.852   3.686  0.00  0.00    -0.632 OA
BRANCH  33  35
HETATM   35  O   UNK N   1      28.025  15.334   4.230  0.00  0.00    -0.307 OA
HETATM   36  H   UNK N   1      27.269  15.057   3.687  0.00  0.00     0.222 HD
ENDBRANCH  33  35
BRANCH  33  37
HETATM   37  O   UNK N   1      30.065  17.368   4.278  0.00  0.00    -0.307 OA
HETATM   38  H   UNK N   1      30.921  17.731   4.554  0.00  0.00     0.222 HD
ENDBRANCH  33  37
ENDBRANCH  32  33
ENDBRANCH   6  32
TORSDOF 18
ENDMDL
MODEL 8
REMARK VINA RESULT:      -4.6     12.577     16.915
REMARK  18 active torsions:
REMARK  status: ('A' for Active; 'I' for Inactive)
REMARK    1  A    between atoms: P_1  and  O_2 
REMARK    2  A    between atoms: P_1  and  O_3 
REMARK    3  A    between atoms: P_1  and  O_4 
REMARK    4  A    between atoms: C_6  and  O_2 
REMARK    5  A    between atoms: C_7  and  O_10 
REMARK    6  A    between atoms: C_8  and  O_12 
REMARK    7  A    between atoms: C_9  and  O_14 
REMARK    8  A    between atoms: O_10  and  P_15 
REMARK    9  A    between atoms: C_11  and  O_16 
REMARK   10  A    between atoms: C_13  and  O_17 
REMARK   11  A    between atoms: P_15  and  O_18 
REMARK   12  A    between atoms: P_15  and  O_19 
REMARK   13  A    between atoms: O_16  and  P_21 
REMARK   14  A    between atoms: O_17  and  P_22 
REMARK   15  A    between atoms: P_21  and  O_23 
REMARK   16  A    between atoms: P_21  and  O_24 
REMARK   17  A    between atoms: P_22  and  O_26 
REMARK   18  A    between atoms: P_22  and  O_27 
ROOT
HETATM    1  C   UNK N   1      29.819  22.097  -6.429  0.00  0.00     0.197 C 
HETATM    2  C   UNK N   1      29.879  22.811  -5.076  0.00  0.00     0.197 C 
HETATM    3  C   UNK N   1      28.380  22.031  -6.943  0.00  0.00     0.182 C 
HETATM    4  C   UNK N   1      29.279  24.214  -5.194  0.00  0.00     0.182 C 
HETATM    5  C   UNK N   1      27.791  23.441  -7.072  0.00  0.00     0.197 C 
HETATM    6  C   UNK N   1      27.841  24.180  -5.724  0.00  0.00     0.197 C 
ENDROOT
BRANCH   1   7
HETATM    7  O   UNK N   1      30.349  20.803  -6.316  0.00  0.00    -0.286 OA
BRANCH   7   8
HETATM    8  P   UNK N   1      31.738  20.781  -7.368  0.00  0.00     0.391 P 
HETATM    9  O   UNK N   1      30.813  19.734  -8.046  0.00  0.00    -0.632 OA
BRANCH   8  10
HETATM   10  O   UNK N   1      32.759  19.382  -7.471  0.00  0.00    -0.307 OA
HETATM   11  H   UNK N   1      33.632  19.428  -7.891  0.00  0.00     0.222 HD
ENDBRANCH   8  10
BRANCH   8  12
HETATM   12  O   UNK N   1      32.191  20.212  -5.792  0.00  0.00    -0.307 OA
HETATM   13  H   UNK N   1      33.079  19.891  -5.575  0.00  0.00     0.222 HD
ENDBRANCH   8  12
ENDBRANCH   7   8
ENDBRANCH   1   7
BRANCH   2  14
HETATM   14  O   UNK N   1      31.210  22.916  -4.663  0.00  0.00    -0.286 OA
BRANCH  14  15
HETATM   15  P   UNK N   1      31.339  22.015  -3.176  0.00  0.00     0.391 P 
HETATM   16  O   UNK N   1      32.829  21.635  -2.966  0.00  0.00    -0.632 OA
BRANCH  15  17
HETATM   17  O   UNK N   1      30.821  22.932  -1.795  0.00  0.00    -0.307 OA
HETATM   18  H   UNK N   1      30.158  23.350  -1.223  0.00  0.00     0.222 HD
ENDBRANCH  15  17
BRANCH  15  19
HETATM   19  O   UNK N   1      30.453  20.528  -3.289  0.00  0.00    -0.307 OA
HETATM   20  H   UNK N   1      30.393  19.852  -2.596  0.00  0.00     0.222 HD
ENDBRANCH  15  19
ENDBRANCH  14  15
ENDBRANCH   2  14
BRANCH   3  21
HETATM   21  O   UNK N   1      28.364  21.399  -8.189  0.00  0.00    -0.390 OA
HETATM   22  H   UNK N   1      27.517  21.191  -8.616  0.00  0.00     0.210 HD
ENDBRANCH   3  21
BRANCH   4  23
HETATM   23  O   UNK N   1      29.311  24.841  -3.946  0.00  0.00    -0.390 OA
HETATM   24  H   UNK N   1      29.586  25.768  -3.876  0.00  0.00     0.210 HD
ENDBRANCH   4  23
BRANCH   5  25
HETATM   25  O   UNK N   1      26.473  23.367  -7.553  0.00  0.00    -0.286 OA
BRANCH  25  26
HETATM   26  P   UNK N   1      26.519  24.021  -9.171  0.00  0.00     0.391 P 
HETATM   27  O   UNK N   1      25.103  24.113  -9.798  0.00  0.00    -0.632 OA
BRANCH  26  28
HETATM   28  O   UNK N   1      25.644  25.114  -8.146  0.00  0.00    -0.307 OA
HETATM   29  H   UNK N   1      25.318  25.998  -8.378  0.00  0.00     0.222 HD
ENDBRANCH  26  28
BRANCH  26  30
HETATM   30  O   UNK N   1      25.981  22.375  -9.291  0.00  0.00    -0.307 OA
HETATM   31  H   UNK N   1      26.171  21.691  -9.952  0.00  0.00     0.222 HD
ENDBRANCH  26  30
ENDBRANCH  25  26
ENDBRANCH   5  25
BRANCH   6  32
HETATM   32  O   UNK N   1      27.394  25.497  -5.903  0.00  0.00    -0.286 OA
BRANCH  32  33
HETATM   33  P   UNK N   1      26.110  25.755  -4.753  0.00  0.00     0.391 P 
HETATM   34  O   UNK N   1      24.851  25.072  -5.350  0.00  0.00    -0.632 OA
BRANCH  33  35
HETATM   35  O   UNK N   1      26.406  24.980  -3.228  0.00  0.00    -0.307 OA
HETATM   36  H   UNK N   1      26.723  24.305  -2.607  0.00  0.00     0.222 HD
ENDBRANCH  33  35
BRANCH  33  37
HETATM   37  O   UNK N   1      25.707  27.433  -4.568  0.00  0.00    -0.307 OA
HETATM   38  H   UNK N   1      26.176  27.976  -3.916  0.00  0.00     0.222 HD
ENDBRANCH  33  37
ENDBRANCH  32  33
ENDBRANCH   6  32
TORSDOF 18
ENDMDL
MODEL 9
REMARK VINA RESULT:      -4.5      3.279      5.748
REMARK  18 active torsions:
REMARK  status: ('A' for Active; 'I' for Inactive)
REMARK    1  A    between atoms: P_1  and  O_2 
REMARK    2  A    between atoms: P_1  and  O_3 
REMARK    3  A    between atoms: P_1  and  O_4 
REMARK    4  A    between atoms: C_6  and  O_2 
REMARK    5  A    between atoms: C_7  and  O_10 
REMARK    6  A    between atoms: C_8  and  O_12 
REMARK    7  A    between atoms: C_9  and  O_14 
REMARK    8  A    between atoms: O_10  and  P_15 
REMARK    9  A    between atoms: C_11  and  O_16 
REMARK   10  A    between atoms: C_13  and  O_17 
REMARK   11  A    between atoms: P_15  and  O_18 
REMARK   12  A    between atoms: P_15  and  O_19 
REMARK   13  A    between atoms: O_16  and  P_21 
REMARK   14  A    between atoms: O_17  and  P_22 
REMARK   15  A    between atoms: P_21  and  O_23 
REMARK   16  A    between atoms: P_21  and  O_24 
REMARK   17  A    between atoms: P_22  and  O_26 
REMARK   18  A    between atoms: P_22  and  O_27 
ROOT
HETATM    1  C   UNK N   1      34.381  14.276   8.982  0.00  0.00     0.197 C 
HETATM    2  C   UNK N   1      34.143  15.241   7.817  0.00  0.00     0.197 C 
HETATM    3  C   UNK N   1      33.407  13.100   8.918  0.00  0.00     0.182 C 
HETATM    4  C   UNK N   1      34.274  14.500   6.484  0.00  0.00     0.182 C 
HETATM    5  C   UNK N   1      33.553  12.353   7.586  0.00  0.00     0.197 C 
HETATM    6  C   UNK N   1      33.320  13.303   6.398  0.00  0.00     0.197 C 
ENDROOT
BRANCH   1   7
HETATM    7  O   UNK N   1      34.241  14.951  10.204  0.00  0.00    -0.286 OA
BRANCH   7   8
HETATM    8  P   UNK N   1      35.846  15.020  10.879  0.00  0.00     0.391 P 
HETATM    9  O   UNK N   1      35.176  13.938  11.769  0.00  0.00    -0.632 OA
BRANCH   8  10
HETATM   10  O   UNK N   1      36.115  15.626  12.482  0.00  0.00    -0.307 OA
HETATM   11  H   UNK N   1      36.566  16.472  12.630  0.00  0.00     0.222 HD
ENDBRANCH   8  10
BRANCH   8  12
HETATM   12  O   UNK N   1      35.044  16.540  11.123  0.00  0.00    -0.307 OA
HETATM   13  H   UNK N   1      35.436  17.277  11.615  0.00  0.00     0.222 HD
ENDBRANCH   8  12
ENDBRANCH   7   8
ENDBRANCH   1   7
BRANCH   2  14
HETATM   14  O   UNK N   1      35.090  16.270   7.863  0.00  0.00    -0.286 OA
BRANCH  14  15
HETATM   15  P   UNK N   1      34.195  17.759   7.997  0.00  0.00     0.391 P 
HETATM   16  O   UNK N   1      33.634  18.116   6.594  0.00  0.00    -0.632 OA
BRANCH  15  17
HETATM   17  O   UNK N   1      32.853  17.634   9.092  0.00  0.00    -0.307 OA
HETATM   18  H   UNK N   1      32.340  17.212   9.799  0.00  0.00     0.222 HD
ENDBRANCH  15  17
BRANCH  15  19
HETATM   19  O   UNK N   1      35.245  19.059   8.462  0.00  0.00    -0.307 OA
HETATM   20  H   UNK N   1      34.974  19.977   8.613  0.00  0.00     0.222 HD
ENDBRANCH  15  19
ENDBRANCH  14  15
ENDBRANCH   2  14
BRANCH   3  21
HETATM   21  O   UNK N   1      33.667  12.226   9.976  0.00  0.00    -0.390 OA
HETATM   22  H   UNK N   1      34.091  12.556  10.784  0.00  0.00     0.210 HD
ENDBRANCH   3  21
BRANCH   4  23
HETATM   23  O   UNK N   1      34.023  15.384   5.433  0.00  0.00    -0.390 OA
HETATM   24  H   UNK N   1      34.126  16.340   5.567  0.00  0.00     0.210 HD
ENDBRANCH   4  23
BRANCH   5  25
HETATM   25  O   UNK N   1      32.659  11.271   7.543  0.00  0.00    -0.286 OA
BRANCH  25  26
HETATM   26  P   UNK N   1      33.649   9.833   7.598  0.00  0.00     0.391 P 
HETATM   27  O   UNK N   1      32.798   8.541   7.500  0.00  0.00    -0.632 OA
BRANCH  26  28
HETATM   28  O   UNK N   1      32.873   9.924   6.049  0.00  0.00    -0.307 OA
HETATM   29  H   UNK N   1      33.163   9.502   5.224  0.00  0.00     0.222 HD
ENDBRANCH  26  28
BRANCH  26  30
HETATM   30  O   UNK N   1      32.665   9.842   9.028  0.00  0.00    -0.307 OA
HETATM   31  H   UNK N   1      31.912   9.287   9.285  0.00  0.00     0.222 HD
ENDBRANCH  26  30
ENDBRANCH  25  26
ENDBRANCH   5  25
BRANCH   6  32
HETATM   32  O   UNK N   1      33.565  12.615   5.202  0.00  0.00    -0.286 OA
BRANCH  32  33
HETATM   33  P   UNK N   1      32.090  12.672   4.275  0.00  0.00     0.391 P 
HETATM   34  O   UNK N   1      32.370  11.882   2.969  0.00  0.00    -0.632 OA
BRANCH  33  35
HETATM   35  O   UNK N   1      30.771  11.860   5.059  0.00  0.00    -0.307 OA
HETATM   36  H   UNK N   1      30.087  11.188   5.209  0.00  0.00     0.222 HD
ENDBRANCH  33  35
BRANCH  33  37
HETATM   37  O   UNK N   1      31.671  14.283   3.785  0.00  0.00    -0.307 OA
HETATM   38  H   UNK N   1      32.270  15.020   3.977  0.00  0.00     0.222 HD
ENDBRANCH  33  37
ENDBRANCH  32  33
ENDBRANCH   6  32
TORSDOF 18
ENDMDL
