MODEL 1
REMARK VINA RESULT:      -2.7      0.000      0.000
REMARK  1 active torsions:
REMARK  status: ('A' for Active; 'I' for Inactive)
REMARK    1  A    between atoms: C_2  and  C_3 
ROOT
HETATM    1  C   UNK N   1      21.353  12.255  11.081  0.00  0.00     0.215 C 
HETATM    2  N   UNK N   1      21.190  13.370  10.244  0.00  0.00    -0.472 NA
HETATM    3  C   UNK N   1      21.059  14.285   9.549  0.00  0.00     0.220 C 
ENDROOT
BRANCH   1   4
HETATM    4  C   UNK N   1      22.830  12.059  11.334  0.00  0.00     0.029 C 
HETATM    5  C   UNK N   1      23.063  11.898  12.816  0.00  0.00     0.007 C 
ENDBRANCH   1   4
TORSDOF 1
ENDMDL
MODEL 2
REMARK VINA RESULT:      -2.7      1.662      3.173
REMARK  1 active torsions:
REMARK  status: ('A' for Active; 'I' for Inactive)
REMARK    1  A    between atoms: C_2  and  C_3 
ROOT
HETATM    1  C   UNK N   1      23.121  11.963  10.543  0.00  0.00     0.215 C 
HETATM    2  N   UNK N   1      23.202  11.932  11.944  0.00  0.00    -0.472 NA
HETATM    3  C   UNK N   1      23.261  11.906  13.099  0.00  0.00     0.220 C 
ENDROOT
BRANCH   1   4
HETATM    4  C   UNK N   1      22.346  13.193  10.135  0.00  0.00     0.029 C 
HETATM    5  C   UNK N   1      20.877  12.965  10.400  0.00  0.00     0.007 C 
ENDBRANCH   1   4
TORSDOF 1
ENDMDL
MODEL 3
REMARK VINA RESULT:      -2.6     13.198     13.735
REMARK  1 active torsions:
REMARK  status: ('A' for Active; 'I' for Inactive)
REMARK    1  A    between atoms: C_2  and  C_3 
ROOT
HETATM    1  C   UNK N   1      34.691  18.398   8.333  0.00  0.00     0.215 C 
HETATM    2  N   UNK N   1      34.981  17.528   9.397  0.00  0.00    -0.472 NA
HETATM    3  C   UNK N   1      35.222  16.806  10.267  0.00  0.00     0.220 C 
ENDROOT
BRANCH   1   4
HETATM    4  C   UNK N   1      33.573  17.797   7.515  0.00  0.00     0.029 C 
HETATM    5  C   UNK N   1      32.281  17.901   8.288  0.00  0.00     0.007 C 
ENDBRANCH   1   4
TORSDOF 1
ENDMDL
MODEL 4
REMARK VINA RESULT:      -2.6      2.028      2.420
REMARK  1 active torsions:
REMARK  status: ('A' for Active; 'I' for Inactive)
REMARK    1  A    between atoms: C_2  and  C_3 
ROOT
HETATM    1  C   UNK N   1      23.014  11.541  10.324  0.00  0.00     0.215 C 
HETATM    2  N   UNK N   1      24.042  12.427   9.962  0.00  0.00    -0.472 NA
HETATM    3  C   UNK N   1      24.892  13.155   9.671  0.00  0.00     0.220 C 
ENDROOT
BRANCH   1   4
HETATM    4  C   UNK N   1      22.283  12.118  11.513  0.00  0.00     0.029 C 
HETATM    5  C   UNK N   1      23.097  11.878  12.761  0.00  0.00     0.007 C 
ENDBRANCH   1   4
TORSDOF 1
ENDMDL
MODEL 5
REMARK VINA RESULT:      -2.6     21.703     22.347
REMARK  1 active torsions:
REMARK  status: ('A' for Active; 'I' for Inactive)
REMARK    1  A    between atoms: C_2  and  C_3 
ROOT
HETATM    1  C   UNK N   1      25.703  27.996  -3.652  0.00  0.00     0.215 C 
HETATM    2  N   UNK N   1      26.254  29.257  -3.368  0.00  0.00    -0.472 NA
HETATM    3  C   UNK N   1      26.703  30.298  -3.140  0.00  0.00     0.220 C 
ENDROOT
BRANCH   1   4
HETATM    4  C   UNK N   1      25.931  27.693  -5.114  0.00  0.00     0.029 C 
HETATM    5  C   UNK N   1      24.678  27.084  -5.695  0.00  0.00     0.007 C 
ENDBRANCH   1   4
TORSDOF 1
ENDMDL
MODEL 6
REMARK VINA RESULT:      -2.6     19.692     21.166
REMARK  1 active torsions:
REMARK  status: ('A' for Active; 'I' for Inactive)
REMARK    1  A    between atoms: C_2  and  C_3 
ROOT
HETATM    1  C   UNK N   1      25.876  27.286  -3.436  0.00  0.00     0.215 C 
HETATM    2  N   UNK N   1      26.401  25.984  -3.443  0.00  0.00    -0.472 NA
HETATM    3  C   UNK N   1      26.840  24.914  -3.452  0.00  0.00     0.220 C 
ENDROOT
BRANCH   1   4
HETATM    4  C   UNK N   1      25.860  27.803  -4.855  0.00  0.00     0.029 C 
HETATM    5  C   UNK N   1      24.739  27.136  -5.614  0.00  0.00     0.007 C 
ENDBRANCH   1   4
TORSDOF 1
ENDMDL
MODEL 7
REMARK VINA RESULT:      -2.5     13.890     14.581
REMARK  1 active torsions:
REMARK  status: ('A' for Active; 'I' for Inactive)
REMARK    1  A    between atoms: C_2  and  C_3 
ROOT
HETATM    1  C   UNK N   1      34.624  12.892  15.945  0.00  0.00     0.215 C 
HETATM    2  N   UNK N   1      35.622  13.451  15.130  0.00  0.00    -0.472 NA
HETATM    3  C   UNK N   1      36.448  13.905  14.460  0.00  0.00     0.220 C 
ENDROOT
BRANCH   1   4
HETATM    4  C   UNK N   1      35.204  12.658  17.320  0.00  0.00     0.029 C 
HETATM    5  C   UNK N   1      35.243  13.966  18.071  0.00  0.00     0.007 C 
ENDBRANCH   1   4
TORSDOF 1
ENDMDL
MODEL 8
REMARK VINA RESULT:      -2.5     21.409     22.023
REMARK  1 active torsions:
REMARK  status: ('A' for Active; 'I' for Inactive)
REMARK    1  A    between atoms: C_2  and  C_3 
ROOT
HETATM    1  C   UNK N   1      25.408  25.578  -5.529  0.00  0.00     0.215 C 
HETATM    2  N   UNK N   1      25.563  25.012  -6.805  0.00  0.00    -0.472 NA
HETATM    3  C   UNK N   1      25.695  24.551  -7.857  0.00  0.00     0.220 C 
ENDROOT
BRANCH   1   4
HETATM    4  C   UNK N   1      24.868  26.980  -5.690  0.00  0.00     0.029 C 
HETATM    5  C   UNK N   1      25.428  27.856  -4.596  0.00  0.00     0.007 C 
ENDBRANCH   1   4
TORSDOF 1
ENDMDL
MODEL 9
REMARK VINA RESULT:      -2.4     13.626     14.522
REMARK  1 active torsions:
REMARK  status: ('A' for Active; 'I' for Inactive)
REMARK    1  A    between atoms: C_2  and  C_3 
ROOT
HETATM    1  C   UNK N   1      35.385  13.184  14.826  0.00  0.00     0.215 C 
HETATM    2  N   UNK N   1      35.268  13.603  13.490  0.00  0.00    -0.472 NA
HETATM    3  C   UNK N   1      35.176  13.943  12.389  0.00  0.00     0.220 C 
ENDROOT
BRANCH   1   4
HETATM    4  C   UNK N   1      36.832  13.310  15.241  0.00  0.00     0.029 C 
HETATM    5  C   UNK N   1      37.119  14.745  15.611  0.00  0.00     0.007 C 
ENDBRANCH   1   4
TORSDOF 1
ENDMDL
