REMARK  4 active torsions:
REMARK  status: ('A' for Active; 'I' for Inactive)
REMARK    1  A    between atoms: C_3  and  C_4 
REMARK    2  A    between atoms: C_4  and  C_5 
REMARK    3  A    between atoms: C_5  and  C_6 
REMARK    4  A    between atoms: C_6  and  O_7 
ROOT
HETATM    1  C   UNK N   1       2.821   1.985  -0.144  0.00  0.00     0.056 C 
HETATM    2  C   UNK N   1       1.586   1.142  -0.083  0.00  0.00     0.029 A 
HETATM    3  C   UNK N   1       1.649  -0.257  -0.237  0.00  0.00     0.025 A 
HETATM    4  N   UNK N   1       0.505  -0.990  -0.191  0.00  0.00    -0.312 N 
HETATM    5  C   UNK N   1      -0.713  -0.394   0.008  0.00  0.00     0.327 A 
HETATM    6  O   UNK N   1      -1.724  -1.069   0.042  0.00  0.00    -0.247 OA
HETATM    7  N   UNK N   1      -0.793   0.964   0.161  0.00  0.00    -0.275 N 
HETATM    8  C   UNK N   1       0.334   1.739   0.119  0.00  0.00     0.257 A 
HETATM    9  O   UNK N   1       0.238   2.947   0.251  0.00  0.00    -0.267 OA
HETATM   10  H   UNK N   1       0.552  -1.967  -0.303  0.00  0.00     0.170 HD
HETATM   11  H   UNK N   1      -1.670   1.387   0.303  0.00  0.00     0.173 HD
ENDROOT
BRANCH   3  12
HETATM   12  C   UNK N   1       2.950  -0.956  -0.493  0.00  0.00     0.060 C 
BRANCH  12  13
HETATM   13  C   UNK N   1       3.900  -0.838   0.688  0.00  0.00     0.032 C 
BRANCH  13  14
HETATM   14  C   UNK N   1       5.337  -0.878   0.201  0.00  0.00     0.164 C 
BRANCH  14  15
HETATM   15  O   UNK N   1       5.749   0.405  -0.163  0.00  0.00    -0.401 OA
HETATM   16  H   UNK N   1       6.664   0.603  -0.416  0.00  0.00     0.209 HD
ENDBRANCH  14  15
ENDBRANCH  13  14
ENDBRANCH  12  13
ENDBRANCH   3  12
TORSDOF 4
