MODEL 1
REMARK VINA RESULT:      -3.2      0.000      0.000
REMARK  1 active torsions:
REMARK  status: ('A' for Active; 'I' for Inactive)
REMARK       I    between atoms: N_1  and  C_2 
REMARK    1  A    between atoms: C_2  and  O_3 
ROOT
HETATM    1  N   UNK N   1      33.851  17.643   9.102  0.00  0.00    -0.347 N 
HETATM    2  C   UNK N   1      34.568  18.333   8.196  0.00  0.00     0.247 C 
HETATM    3  O   UNK N   1      34.480  18.057   7.011  0.00  0.00    -0.632 OA
HETATM    4  H   UNK N   1      33.922  17.865  10.059  0.00  0.00     0.162 HD
HETATM    5  H   UNK N   1      33.256  16.916   8.809  0.00  0.00     0.162 HD
ENDROOT
BRANCH   2   6
HETATM    6  O   UNK N   1      35.381  19.326   8.597  0.00  0.00    -0.760 OA
HETATM    7  H   UNK N   1      35.409  19.573   9.501  0.00  0.00     0.169 HD
ENDBRANCH   2   6
TORSDOF 1
ENDMDL
MODEL 2
REMARK VINA RESULT:      -3.1     15.238     15.603
REMARK  1 active torsions:
REMARK  status: ('A' for Active; 'I' for Inactive)
REMARK       I    between atoms: N_1  and  C_2 
REMARK    1  A    between atoms: C_2  and  O_3 
ROOT
HETATM    1  N   UNK N   1      19.972  19.706   1.769  0.00  0.00    -0.347 N 
HETATM    2  C   UNK N   1      20.922  20.462   1.189  0.00  0.00     0.247 C 
HETATM    3  O   UNK N   1      21.916  20.781   1.820  0.00  0.00    -0.632 OA
HETATM    4  H   UNK N   1      19.169  19.448   1.261  0.00  0.00     0.162 HD
HETATM    5  H   UNK N   1      20.079  19.410   2.702  0.00  0.00     0.162 HD
ENDROOT
BRANCH   2   6
HETATM    6  O   UNK N   1      20.775  20.867  -0.084  0.00  0.00    -0.760 OA
HETATM    7  H   UNK N   1      21.341  21.526  -0.436  0.00  0.00     0.169 HD
ENDBRANCH   2   6
TORSDOF 1
ENDMDL
MODEL 3
REMARK VINA RESULT:      -2.9      3.203      3.428
REMARK  1 active torsions:
REMARK  status: ('A' for Active; 'I' for Inactive)
REMARK       I    between atoms: N_1  and  C_2 
REMARK    1  A    between atoms: C_2  and  O_3 
ROOT
HETATM    1  N   UNK N   1      34.559  15.842  11.006  0.00  0.00    -0.347 N 
HETATM    2  C   UNK N   1      35.640  16.574  10.679  0.00  0.00     0.247 C 
HETATM    3  O   UNK N   1      35.500  17.675  10.173  0.00  0.00    -0.632 OA
HETATM    4  H   UNK N   1      34.672  14.953  11.414  0.00  0.00     0.162 HD
HETATM    5  H   UNK N   1      33.656  16.194  10.837  0.00  0.00     0.162 HD
ENDROOT
BRANCH   2   6
HETATM    6  O   UNK N   1      36.873  16.091  10.910  0.00  0.00    -0.760 OA
HETATM    7  H   UNK N   1      37.367  15.712  10.209  0.00  0.00     0.169 HD
ENDBRANCH   2   6
TORSDOF 1
ENDMDL
MODEL 4
REMARK VINA RESULT:      -2.9     14.871     15.037
REMARK  1 active torsions:
REMARK  status: ('A' for Active; 'I' for Inactive)
REMARK       I    between atoms: N_1  and  C_2 
REMARK    1  A    between atoms: C_2  and  O_3 
ROOT
HETATM    1  N   UNK N   1      20.283  20.127   1.740  0.00  0.00    -0.347 N 
HETATM    2  C   UNK N   1      20.832  20.714   2.819  0.00  0.00     0.247 C 
HETATM    3  O   UNK N   1      20.442  20.420   3.937  0.00  0.00    -0.632 OA
HETATM    4  H   UNK N   1      20.597  20.364   0.837  0.00  0.00     0.162 HD
HETATM    5  H   UNK N   1      19.568  19.460   1.852  0.00  0.00     0.162 HD
ENDROOT
BRANCH   2   6
HETATM    6  O   UNK N   1      21.809  21.625   2.665  0.00  0.00    -0.760 OA
HETATM    7  H   UNK N   1      22.522  21.454   2.082  0.00  0.00     0.169 HD
ENDBRANCH   2   6
TORSDOF 1
ENDMDL
MODEL 5
REMARK VINA RESULT:      -2.9     13.363     13.519
REMARK  1 active torsions:
REMARK  status: ('A' for Active; 'I' for Inactive)
REMARK       I    between atoms: N_1  and  C_2 
REMARK    1  A    between atoms: C_2  and  O_3 
ROOT
HETATM    1  N   UNK N   1      22.334  11.679  12.176  0.00  0.00    -0.347 N 
HETATM    2  C   UNK N   1      23.557  12.007  12.631  0.00  0.00     0.247 C 
HETATM    3  O   UNK N   1      24.521  11.946  11.885  0.00  0.00    -0.632 OA
HETATM    4  H   UNK N   1      21.556  11.728  12.777  0.00  0.00     0.162 HD
HETATM    5  H   UNK N   1      22.216  11.392  11.242  0.00  0.00     0.162 HD
ENDROOT
BRANCH   2   6
HETATM    6  O   UNK N   1      23.717  12.399  13.907  0.00  0.00    -0.760 OA
HETATM    7  H   UNK N   1      23.098  12.136  14.560  0.00  0.00     0.169 HD
ENDBRANCH   2   6
TORSDOF 1
ENDMDL
MODEL 6
REMARK VINA RESULT:      -2.5     18.656     18.732
REMARK  1 active torsions:
REMARK  status: ('A' for Active; 'I' for Inactive)
REMARK       I    between atoms: N_1  and  C_2 
REMARK    1  A    between atoms: C_2  and  O_3 
ROOT
HETATM    1  N   UNK N   1      49.203  20.482  21.257  0.00  0.00    -0.347 N 
HETATM    2  C   UNK N   1      48.662  19.620  20.376  0.00  0.00     0.247 C 
HETATM    3  O   UNK N   1      49.199  19.436  19.296  0.00  0.00    -0.632 OA
HETATM    4  H   UNK N   1      48.771  20.630  22.129  0.00  0.00     0.162 HD
HETATM    5  H   UNK N   1      50.031  20.963  21.031  0.00  0.00     0.162 HD
ENDROOT
BRANCH   2   6
HETATM    6  O   UNK N   1      47.532  18.963  20.686  0.00  0.00    -0.760 OA
HETATM    7  H   UNK N   1      46.717  19.223  20.302  0.00  0.00     0.169 HD
ENDBRANCH   2   6
TORSDOF 1
ENDMDL
MODEL 7
REMARK VINA RESULT:      -2.4     17.793     18.042
REMARK  1 active torsions:
REMARK  status: ('A' for Active; 'I' for Inactive)
REMARK       I    between atoms: N_1  and  C_2 
REMARK    1  A    between atoms: C_2  and  O_3 
ROOT
HETATM    1  N   UNK N   1      51.454  24.108  11.942  0.00  0.00    -0.347 N 
HETATM    2  C   UNK N   1      51.437  22.812  12.303  0.00  0.00     0.247 C 
HETATM    3  O   UNK N   1      50.688  22.437  13.190  0.00  0.00    -0.632 OA
HETATM    4  H   UNK N   1      52.058  24.412  11.227  0.00  0.00     0.162 HD
HETATM    5  H   UNK N   1      50.863  24.754  12.393  0.00  0.00     0.162 HD
ENDROOT
BRANCH   2   6
HETATM    6  O   UNK N   1      52.245  21.932  11.687  0.00  0.00    -0.760 OA
HETATM    7  H   UNK N   1      52.026  21.021  11.679  0.00  0.00     0.169 HD
ENDBRANCH   2   6
TORSDOF 1
ENDMDL
MODEL 8
REMARK VINA RESULT:      -2.3      6.888      7.027
REMARK  1 active torsions:
REMARK  status: ('A' for Active; 'I' for Inactive)
REMARK       I    between atoms: N_1  and  C_2 
REMARK    1  A    between atoms: C_2  and  O_3 
ROOT
HETATM    1  N   UNK N   1      36.713  14.075  12.820  0.00  0.00    -0.347 N 
HETATM    2  C   UNK N   1      35.431  13.808  13.127  0.00  0.00     0.247 C 
HETATM    3  O   UNK N   1      35.125  13.524  14.274  0.00  0.00    -0.632 OA
HETATM    4  H   UNK N   1      36.961  14.304  11.895  0.00  0.00     0.162 HD
HETATM    5  H   UNK N   1      37.405  14.041  13.520  0.00  0.00     0.162 HD
ENDROOT
BRANCH   2   6
HETATM    6  O   UNK N   1      34.487  13.855  12.171  0.00  0.00    -0.760 OA
HETATM    7  H   UNK N   1      33.645  14.221  12.360  0.00  0.00     0.169 HD
ENDBRANCH   2   6
TORSDOF 1
ENDMDL
MODEL 9
REMARK VINA RESULT:      -2.3     17.867     18.022
REMARK  1 active torsions:
REMARK  status: ('A' for Active; 'I' for Inactive)
REMARK       I    between atoms: N_1  and  C_2 
REMARK    1  A    between atoms: C_2  and  O_3 
ROOT
HETATM    1  N   UNK N   1      52.443  21.725  11.823  0.00  0.00    -0.347 N 
HETATM    2  C   UNK N   1      51.537  22.657  12.172  0.00  0.00     0.247 C 
HETATM    3  O   UNK N   1      51.488  23.716  11.568  0.00  0.00    -0.632 OA
HETATM    4  H   UNK N   1      52.484  20.871  12.309  0.00  0.00     0.162 HD
HETATM    5  H   UNK N   1      53.067  21.898  11.080  0.00  0.00     0.162 HD
ENDROOT
BRANCH   2   6
HETATM    6  O   UNK N   1      50.687  22.420  13.186  0.00  0.00    -0.760 OA
HETATM    7  H   UNK N   1      50.570  23.062  13.859  0.00  0.00     0.169 HD
ENDBRANCH   2   6
TORSDOF 1
ENDMDL
