MODEL 1
REMARK VINA RESULT:      -5.8      0.000      0.000
REMARK  11 active torsions:
REMARK  status: ('A' for Active; 'I' for Inactive)
REMARK    1  A    between atoms: C_2  and  C_1 
REMARK    2  A    between atoms: C_4  and  C_1 
REMARK    3  A    between atoms: C_6  and  C_2 
REMARK    4  A    between atoms: C_5  and  C_3 
REMARK    5  A    between atoms: C_7  and  C_3 
REMARK    6  A    between atoms: N_14  and  C_4 
REMARK    7  A    between atoms: N_13  and  C_5 
REMARK    8  A    between atoms: C_8  and  C_6 
REMARK    9  A    between atoms: C_6  and  N_13 
REMARK   10  A    between atoms: O_16  and  C_7 
REMARK   11  A    between atoms: O_18  and  C_8 
REMARK       I    between atoms: N_12  and  C_9 
REMARK       I    between atoms: N_14  and  C_9 
ROOT
HETATM    1  C   UNK N   1      32.830  17.559   8.054  0.00  0.00     0.175 C 
ENDROOT
BRANCH   1   2
HETATM    2  C   UNK N   1      32.149  16.556   7.101  0.00  0.00     0.037 C 
BRANCH   2   3
HETATM    3  C   UNK N   1      30.871  17.065   6.442  0.00  0.00     0.023 C 
BRANCH   3   4
HETATM    4  C   UNK N   1      29.785  17.376   7.457  0.00  0.00     0.138 C 
BRANCH   4   5
HETATM    5  N   UNK N   1      28.890  18.351   6.895  0.00  0.00    -0.227 N 
HETATM    6  C   UNK N   1      27.875  18.950   7.681  0.00  0.00     0.665 C 
HETATM    7  N   UNK N   1      27.051  19.766   7.139  0.00  0.00    -0.235 N 
HETATM    8  N   UNK N   1      27.750  18.633   9.053  0.00  0.00    -0.235 N 
HETATM    9  H   UNK N   1      26.228  20.079   7.581  0.00  0.00     0.174 HD
ATOM     10  HN  UNK N   1      27.257  20.108   6.202  1.00  0.00     0.174 HD
HETATM   11  H   UNK N   1      28.268  17.896   9.451  0.00  0.00     0.174 HD
HETATM   12  H   UNK N   1      27.137  19.156   9.618  0.00  0.00     0.174 HD
HETATM   13  H   UNK N   1      28.984  18.607   5.950  0.00  0.00     0.177 HD
ENDBRANCH   4   5
ENDBRANCH   3   4
ENDBRANCH   2   3
ENDBRANCH   1   2
BRANCH   1  14
HETATM   14  C   UNK N   1      34.119  18.138   7.497  0.00  0.00     0.163 C 
HETATM   15  O   UNK N   1      34.538  17.793   6.404  0.00  0.00    -0.648 OA
BRANCH  14  16
HETATM   16  O   UNK N   1      34.838  19.011   8.230  0.00  0.00    -0.775 OA
HETATM   17  H   UNK N   1      34.515  19.873   8.400  0.00  0.00     0.167 HD
ENDBRANCH  14  16
ENDBRANCH   1  14
BRANCH   1  18
HETATM   18  N   UNK N   1      33.032  16.940   9.372  0.00  0.00    -0.408 N 
HETATM   19  H   UNK N   1      32.705  17.341  10.251  0.00  0.00     0.154 HD
BRANCH  18  20
HETATM   20  C   UNK N   1      33.759  15.675   9.263  0.00  0.00     0.125 C 
BRANCH  20  21
HETATM   21  C   UNK N   1      34.589  15.440  10.517  0.00  0.00     0.129 C 
BRANCH  21  22
HETATM   22  C   UNK N   1      35.763  16.369  10.625  0.00  0.00     0.140 C 
HETATM   23  O   UNK N   1      35.597  17.565  10.460  0.00  0.00    -0.650 OA
BRANCH  22  24
HETATM   24  O   UNK N   1      36.996  15.901  10.908  0.00  0.00    -0.776 OA
HETATM   25  H   UNK N   1      37.621  16.450  11.338  0.00  0.00     0.167 HD
ENDBRANCH  22  24
ENDBRANCH  21  22
ENDBRANCH  20  21
ENDBRANCH  18  20
ENDBRANCH   1  18
TORSDOF 11
ENDMDL
MODEL 2
REMARK VINA RESULT:      -5.6      3.612      7.014
REMARK  11 active torsions:
REMARK  status: ('A' for Active; 'I' for Inactive)
REMARK    1  A    between atoms: C_2  and  C_1 
REMARK    2  A    between atoms: C_4  and  C_1 
REMARK    3  A    between atoms: C_6  and  C_2 
REMARK    4  A    between atoms: C_5  and  C_3 
REMARK    5  A    between atoms: C_7  and  C_3 
REMARK    6  A    between atoms: N_14  and  C_4 
REMARK    7  A    between atoms: N_13  and  C_5 
REMARK    8  A    between atoms: C_8  and  C_6 
REMARK    9  A    between atoms: C_6  and  N_13 
REMARK   10  A    between atoms: O_16  and  C_7 
REMARK   11  A    between atoms: O_18  and  C_8 
REMARK       I    between atoms: N_12  and  C_9 
REMARK       I    between atoms: N_14  and  C_9 
ROOT
HETATM    1  C   UNK N   1      35.233  15.218   9.554  0.00  0.00     0.175 C 
ENDROOT
BRANCH   1   2
HETATM    2  C   UNK N   1      34.271  14.293  10.326  0.00  0.00     0.037 C 
BRANCH   2   3
HETATM    3  C   UNK N   1      34.854  12.935  10.704  0.00  0.00     0.023 C 
BRANCH   3   4
HETATM    4  C   UNK N   1      34.830  12.694  12.203  0.00  0.00     0.138 C 
BRANCH   4   5
HETATM    5  N   UNK N   1      35.309  13.874  12.871  0.00  0.00    -0.227 N 
HETATM    6  C   UNK N   1      36.514  13.855  13.614  0.00  0.00     0.665 C 
HETATM    7  N   UNK N   1      36.883  14.901  14.253  0.00  0.00    -0.235 N 
HETATM    8  N   UNK N   1      37.299  12.681  13.677  0.00  0.00    -0.235 N 
HETATM    9  H   UNK N   1      37.608  14.902  14.919  0.00  0.00     0.174 HD
ATOM     10  HN  UNK N   1      36.401  15.778  14.062  1.00  0.00     0.174 HD
HETATM   11  H   UNK N   1      36.958  11.825  13.327  0.00  0.00     0.174 HD
HETATM   12  H   UNK N   1      38.199  12.719  14.076  0.00  0.00     0.174 HD
HETATM   13  H   UNK N   1      34.791  14.709  12.810  0.00  0.00     0.177 HD
ENDBRANCH   4   5
ENDBRANCH   3   4
ENDBRANCH   2   3
ENDBRANCH   1   2
BRANCH   1  14
HETATM   14  C   UNK N   1      35.907  16.256  10.437  0.00  0.00     0.163 C 
HETATM   15  O   UNK N   1      35.476  17.396  10.502  0.00  0.00    -0.648 OA
BRANCH  14  16
HETATM   16  O   UNK N   1      37.020  15.934  11.125  0.00  0.00    -0.775 OA
HETATM   17  H   UNK N   1      37.310  16.465  11.841  0.00  0.00     0.167 HD
ENDBRANCH  14  16
ENDBRANCH   1  14
BRANCH   1  18
HETATM   18  N   UNK N   1      34.532  15.836   8.420  0.00  0.00    -0.408 N 
HETATM   19  H   UNK N   1      34.947  15.985   7.500  0.00  0.00     0.154 HD
BRANCH  18  20
HETATM   20  C   UNK N   1      33.164  16.212   8.777  0.00  0.00     0.125 C 
BRANCH  20  21
HETATM   21  C   UNK N   1      32.843  17.595   8.232  0.00  0.00     0.129 C 
BRANCH  21  22
HETATM   22  C   UNK N   1      34.021  18.256   7.577  0.00  0.00     0.140 C 
HETATM   23  O   UNK N   1      34.225  18.073   6.389  0.00  0.00    -0.650 OA
BRANCH  22  24
HETATM   24  O   UNK N   1      34.852  19.051   8.280  0.00  0.00    -0.776 OA
HETATM   25  H   UNK N   1      35.623  19.399   7.878  0.00  0.00     0.167 HD
ENDBRANCH  22  24
ENDBRANCH  21  22
ENDBRANCH  20  21
ENDBRANCH  18  20
ENDBRANCH   1  18
TORSDOF 11
ENDMDL
MODEL 3
REMARK VINA RESULT:      -5.5      2.481      3.308
REMARK  11 active torsions:
REMARK  status: ('A' for Active; 'I' for Inactive)
REMARK    1  A    between atoms: C_2  and  C_1 
REMARK    2  A    between atoms: C_4  and  C_1 
REMARK    3  A    between atoms: C_6  and  C_2 
REMARK    4  A    between atoms: C_5  and  C_3 
REMARK    5  A    between atoms: C_7  and  C_3 
REMARK    6  A    between atoms: N_14  and  C_4 
REMARK    7  A    between atoms: N_13  and  C_5 
REMARK    8  A    between atoms: C_8  and  C_6 
REMARK    9  A    between atoms: C_6  and  N_13 
REMARK   10  A    between atoms: O_16  and  C_7 
REMARK   11  A    between atoms: O_18  and  C_8 
REMARK       I    between atoms: N_12  and  C_9 
REMARK       I    between atoms: N_14  and  C_9 
ROOT
HETATM    1  C   UNK N   1      32.730  17.453   7.991  0.00  0.00     0.175 C 
ENDROOT
BRANCH   1   2
HETATM    2  C   UNK N   1      31.946  16.337   7.271  0.00  0.00     0.037 C 
BRANCH   2   3
HETATM    3  C   UNK N   1      30.597  16.766   6.702  0.00  0.00     0.023 C 
BRANCH   3   4
HETATM    4  C   UNK N   1      30.393  16.283   5.277  0.00  0.00     0.138 C 
BRANCH   4   5
HETATM    5  N   UNK N   1      31.668  16.240   4.613  0.00  0.00    -0.227 N 
HETATM    6  C   UNK N   1      31.784  16.534   3.233  0.00  0.00     0.665 C 
HETATM    7  N   UNK N   1      32.919  16.425   2.653  0.00  0.00    -0.235 N 
HETATM    8  N   UNK N   1      30.648  16.922   2.485  0.00  0.00    -0.235 N 
HETATM    9  H   UNK N   1      33.033  16.445   1.675  0.00  0.00     0.174 HD
ATOM     10  HN  UNK N   1      33.748  16.311   3.234  1.00  0.00     0.174 HD
HETATM   11  H   UNK N   1      29.743  16.861   2.870  0.00  0.00     0.174 HD
HETATM   12  H   UNK N   1      30.763  17.258   1.566  0.00  0.00     0.174 HD
HETATM   13  H   UNK N   1      32.474  16.004   5.126  0.00  0.00     0.177 HD
ENDBRANCH   4   5
ENDBRANCH   3   4
ENDBRANCH   2   3
ENDBRANCH   1   2
BRANCH   1  14
HETATM   14  C   UNK N   1      33.941  17.937   7.211  0.00  0.00     0.163 C 
HETATM   15  O   UNK N   1      34.092  17.632   6.039  0.00  0.00    -0.648 OA
BRANCH  14  16
HETATM   16  O   UNK N   1      34.888  18.674   7.825  0.00  0.00    -0.775 OA
HETATM   17  H   UNK N   1      35.623  19.002   7.347  0.00  0.00     0.167 HD
ENDBRANCH  14  16
ENDBRANCH   1  14
BRANCH   1  18
HETATM   18  N   UNK N   1      33.089  17.018   9.348  0.00  0.00    -0.408 N 
HETATM   19  H   UNK N   1      32.915  17.565  10.192  0.00  0.00     0.154 HD
BRANCH  18  20
HETATM   20  C   UNK N   1      33.728  15.703   9.336  0.00  0.00     0.125 C 
BRANCH  20  21
HETATM   21  C   UNK N   1      34.587  15.527  10.580  0.00  0.00     0.129 C 
BRANCH  21  22
HETATM   22  C   UNK N   1      35.778  16.440  10.604  0.00  0.00     0.140 C 
HETATM   23  O   UNK N   1      35.628  17.625  10.360  0.00  0.00    -0.650 OA
BRANCH  22  24
HETATM   24  O   UNK N   1      37.007  15.972  10.898  0.00  0.00    -0.776 OA
HETATM   25  H   UNK N   1      37.638  15.845  10.217  0.00  0.00     0.167 HD
ENDBRANCH  22  24
ENDBRANCH  21  22
ENDBRANCH  20  21
ENDBRANCH  18  20
ENDBRANCH   1  18
TORSDOF 11
ENDMDL
MODEL 4
REMARK VINA RESULT:      -5.4      1.634      2.247
REMARK  11 active torsions:
REMARK  status: ('A' for Active; 'I' for Inactive)
REMARK    1  A    between atoms: C_2  and  C_1 
REMARK    2  A    between atoms: C_4  and  C_1 
REMARK    3  A    between atoms: C_6  and  C_2 
REMARK    4  A    between atoms: C_5  and  C_3 
REMARK    5  A    between atoms: C_7  and  C_3 
REMARK    6  A    between atoms: N_14  and  C_4 
REMARK    7  A    between atoms: N_13  and  C_5 
REMARK    8  A    between atoms: C_8  and  C_6 
REMARK    9  A    between atoms: C_6  and  N_13 
REMARK   10  A    between atoms: O_16  and  C_7 
REMARK   11  A    between atoms: O_18  and  C_8 
REMARK       I    between atoms: N_12  and  C_9 
REMARK       I    between atoms: N_14  and  C_9 
ROOT
HETATM    1  C   UNK N   1      33.912  17.341   8.992  0.00  0.00     0.175 C 
ENDROOT
BRANCH   1   2
HETATM    2  C   UNK N   1      32.548  16.829   8.487  0.00  0.00     0.037 C 
BRANCH   2   3
HETATM    3  C   UNK N   1      31.412  17.844   8.572  0.00  0.00     0.023 C 
BRANCH   3   4
HETATM    4  C   UNK N   1      30.100  17.285   8.050  0.00  0.00     0.138 C 
BRANCH   4   5
HETATM    5  N   UNK N   1      29.023  18.118   8.512  0.00  0.00    -0.227 N 
HETATM    6  C   UNK N   1      28.176  18.792   7.599  0.00  0.00     0.665 C 
HETATM    7  N   UNK N   1      27.268  19.579   8.037  0.00  0.00    -0.235 N 
HETATM    8  N   UNK N   1      28.345  18.622   6.205  0.00  0.00    -0.235 N 
HETATM    9  H   UNK N   1      26.766  20.202   7.463  0.00  0.00     0.174 HD
ATOM     10  HN  UNK N   1      27.052  19.559   9.033  1.00  0.00     0.174 HD
HETATM   11  H   UNK N   1      29.130  18.149   5.845  0.00  0.00     0.174 HD
HETATM   12  H   UNK N   1      27.667  18.979   5.587  0.00  0.00     0.174 HD
HETATM   13  H   UNK N   1      28.872  18.222   9.479  0.00  0.00     0.177 HD
ENDBRANCH   4   5
ENDBRANCH   3   4
ENDBRANCH   2   3
ENDBRANCH   1   2
BRANCH   1  14
HETATM   14  C   UNK N   1      34.592  18.296   8.025  0.00  0.00     0.163 C 
HETATM   15  O   UNK N   1      35.249  19.239   8.435  0.00  0.00    -0.648 OA
BRANCH  14  16
HETATM   16  O   UNK N   1      34.436  18.133   6.696  0.00  0.00    -0.775 OA
HETATM   17  H   UNK N   1      33.581  18.088   6.316  0.00  0.00     0.167 HD
ENDBRANCH  14  16
ENDBRANCH   1  14
BRANCH   1  18
HETATM   18  N   UNK N   1      34.777  16.205   9.339  0.00  0.00    -0.408 N 
HETATM   19  H   UNK N   1      34.835  15.341   8.799  0.00  0.00     0.154 HD
BRANCH  18  20
HETATM   20  C   UNK N   1      35.544  16.468  10.556  0.00  0.00     0.125 C 
BRANCH  20  21
HETATM   21  C   UNK N   1      35.878  15.159  11.256  0.00  0.00     0.129 C 
BRANCH  21  22
HETATM   22  C   UNK N   1      34.665  14.448  11.782  0.00  0.00     0.140 C 
HETATM   23  O   UNK N   1      34.798  13.590  12.637  0.00  0.00    -0.650 OA
BRANCH  22  24
HETATM   24  O   UNK N   1      33.432  14.748  11.327  0.00  0.00    -0.776 OA
HETATM   25  H   UNK N   1      33.321  15.400  10.662  0.00  0.00     0.167 HD
ENDBRANCH  22  24
ENDBRANCH  21  22
ENDBRANCH  20  21
ENDBRANCH  18  20
ENDBRANCH   1  18
TORSDOF 11
ENDMDL
MODEL 5
REMARK VINA RESULT:      -5.3      2.609      3.671
REMARK  11 active torsions:
REMARK  status: ('A' for Active; 'I' for Inactive)
REMARK    1  A    between atoms: C_2  and  C_1 
REMARK    2  A    between atoms: C_4  and  C_1 
REMARK    3  A    between atoms: C_6  and  C_2 
REMARK    4  A    between atoms: C_5  and  C_3 
REMARK    5  A    between atoms: C_7  and  C_3 
REMARK    6  A    between atoms: N_14  and  C_4 
REMARK    7  A    between atoms: N_13  and  C_5 
REMARK    8  A    between atoms: C_8  and  C_6 
REMARK    9  A    between atoms: C_6  and  N_13 
REMARK   10  A    between atoms: O_16  and  C_7 
REMARK   11  A    between atoms: O_18  and  C_8 
REMARK       I    between atoms: N_12  and  C_9 
REMARK       I    between atoms: N_14  and  C_9 
ROOT
HETATM    1  C   UNK N   1      30.175  17.542   8.549  0.00  0.00     0.175 C 
ENDROOT
BRANCH   1   2
HETATM    2  C   UNK N   1      29.884  17.742   7.048  0.00  0.00     0.037 C 
BRANCH   2   3
HETATM    3  C   UNK N   1      28.968  16.692   6.428  0.00  0.00     0.023 C 
BRANCH   3   4
HETATM    4  C   UNK N   1      27.829  17.315   5.639  0.00  0.00     0.138 C 
BRANCH   4   5
HETATM    5  N   UNK N   1      27.125  18.237   6.488  0.00  0.00    -0.227 N 
HETATM    6  C   UNK N   1      27.154  19.631   6.237  0.00  0.00     0.665 C 
HETATM    7  N   UNK N   1      26.574  20.435   7.046  0.00  0.00    -0.235 N 
HETATM    8  N   UNK N   1      27.842  20.142   5.112  0.00  0.00    -0.235 N 
HETATM    9  H   UNK N   1      26.701  21.411   7.025  0.00  0.00     0.174 HD
ATOM     10  HN  UNK N   1      25.948  20.043   7.748  1.00  0.00     0.174 HD
HETATM   11  H   UNK N   1      28.423  19.561   4.568  0.00  0.00     0.174 HD
HETATM   12  H   UNK N   1      27.739  21.090   4.869  0.00  0.00     0.174 HD
HETATM   13  H   UNK N   1      26.615  17.895   7.257  0.00  0.00     0.177 HD
ENDBRANCH   4   5
ENDBRANCH   3   4
ENDBRANCH   2   3
ENDBRANCH   1   2
BRANCH   1  14
HETATM   14  C   UNK N   1      29.231  18.317   9.453  0.00  0.00     0.163 C 
HETATM   15  O   UNK N   1      29.662  19.016  10.355  0.00  0.00    -0.648 OA
BRANCH  14  16
HETATM   16  O   UNK N   1      27.898  18.202   9.291  0.00  0.00    -0.775 OA
HETATM   17  H   UNK N   1      27.333  18.935   9.438  0.00  0.00     0.167 HD
ENDBRANCH  14  16
ENDBRANCH   1  14
BRANCH   1  18
HETATM   18  N   UNK N   1      31.583  17.854   8.832  0.00  0.00    -0.408 N 
HETATM   19  H   UNK N   1      31.920  18.768   9.137  0.00  0.00     0.154 HD
BRANCH  18  20
HETATM   20  C   UNK N   1      32.442  16.689   8.623  0.00  0.00     0.125 C 
BRANCH  20  21
HETATM   21  C   UNK N   1      33.896  17.058   8.880  0.00  0.00     0.129 C 
BRANCH  21  22
HETATM   22  C   UNK N   1      34.407  18.114   7.944  0.00  0.00     0.140 C 
HETATM   23  O   UNK N   1      34.223  17.991   6.746  0.00  0.00    -0.650 OA
BRANCH  22  24
HETATM   24  O   UNK N   1      35.061  19.197   8.409  0.00  0.00    -0.776 OA
HETATM   25  H   UNK N   1      34.865  20.048   8.068  0.00  0.00     0.167 HD
ENDBRANCH  22  24
ENDBRANCH  21  22
ENDBRANCH  20  21
ENDBRANCH  18  20
ENDBRANCH   1  18
TORSDOF 11
ENDMDL
MODEL 6
REMARK VINA RESULT:      -5.3      3.354      6.906
REMARK  11 active torsions:
REMARK  status: ('A' for Active; 'I' for Inactive)
REMARK    1  A    between atoms: C_2  and  C_1 
REMARK    2  A    between atoms: C_4  and  C_1 
REMARK    3  A    between atoms: C_6  and  C_2 
REMARK    4  A    between atoms: C_5  and  C_3 
REMARK    5  A    between atoms: C_7  and  C_3 
REMARK    6  A    between atoms: N_14  and  C_4 
REMARK    7  A    between atoms: N_13  and  C_5 
REMARK    8  A    between atoms: C_8  and  C_6 
REMARK    9  A    between atoms: C_6  and  N_13 
REMARK   10  A    between atoms: O_16  and  C_7 
REMARK   11  A    between atoms: O_18  and  C_8 
REMARK       I    between atoms: N_12  and  C_9 
REMARK       I    between atoms: N_14  and  C_9 
ROOT
HETATM    1  C   UNK N   1      33.110  17.065   8.317  0.00  0.00     0.175 C 
ENDROOT
BRANCH   1   2
HETATM    2  C   UNK N   1      33.642  16.282   9.534  0.00  0.00     0.037 C 
BRANCH   2   3
HETATM    3  C   UNK N   1      35.134  15.967   9.490  0.00  0.00     0.023 C 
BRANCH   3   4
HETATM    4  C   UNK N   1      35.818  16.226  10.820  0.00  0.00     0.138 C 
BRANCH   4   5
HETATM    5  N   UNK N   1      36.809  15.208  11.041  0.00  0.00    -0.227 N 
HETATM    6  C   UNK N   1      36.532  14.082  11.854  0.00  0.00     0.665 C 
HETATM    7  N   UNK N   1      37.453  13.225  12.087  0.00  0.00    -0.235 N 
HETATM    8  N   UNK N   1      35.253  13.913  12.432  0.00  0.00    -0.235 N 
HETATM    9  H   UNK N   1      37.379  12.523  12.773  0.00  0.00     0.174 HD
ATOM     10  HN  UNK N   1      38.307  13.272  11.532  1.00  0.00     0.174 HD
HETATM   11  H   UNK N   1      34.582  14.634  12.397  0.00  0.00     0.174 HD
HETATM   12  H   UNK N   1      35.029  13.063  12.876  0.00  0.00     0.174 HD
HETATM   13  H   UNK N   1      37.694  15.294  10.619  0.00  0.00     0.177 HD
ENDBRANCH   4   5
ENDBRANCH   3   4
ENDBRANCH   2   3
ENDBRANCH   1   2
BRANCH   1  14
HETATM   14  C   UNK N   1      34.137  18.008   7.713  0.00  0.00     0.163 C 
HETATM   15  O   UNK N   1      34.606  18.925   8.368  0.00  0.00    -0.648 OA
BRANCH  14  16
HETATM   16  O   UNK N   1      34.508  17.865   6.425  0.00  0.00    -0.775 OA
HETATM   17  H   UNK N   1      34.281  17.093   5.946  0.00  0.00     0.167 HD
ENDBRANCH  14  16
ENDBRANCH   1  14
BRANCH   1  18
HETATM   18  N   UNK N   1      31.868  17.765   8.676  0.00  0.00    -0.408 N 
HETATM   19  H   UNK N   1      31.831  18.628   9.220  0.00  0.00     0.154 HD
BRANCH  18  20
HETATM   20  C   UNK N   1      30.692  17.070   8.155  0.00  0.00     0.125 C 
BRANCH  20  21
HETATM   21  C   UNK N   1      29.534  18.044   8.002  0.00  0.00     0.129 C 
BRANCH  21  22
HETATM   22  C   UNK N   1      28.846  18.348   9.301  0.00  0.00     0.140 C 
HETATM   23  O   UNK N   1      29.503  18.751  10.245  0.00  0.00    -0.650 OA
BRANCH  22  24
HETATM   24  O   UNK N   1      27.514  18.187   9.437  0.00  0.00    -0.776 OA
HETATM   25  H   UNK N   1      27.098  18.378  10.254  0.00  0.00     0.167 HD
ENDBRANCH  22  24
ENDBRANCH  21  22
ENDBRANCH  20  21
ENDBRANCH  18  20
ENDBRANCH   1  18
TORSDOF 11
ENDMDL
MODEL 7
REMARK VINA RESULT:      -5.2      2.276      3.025
REMARK  11 active torsions:
REMARK  status: ('A' for Active; 'I' for Inactive)
REMARK    1  A    between atoms: C_2  and  C_1 
REMARK    2  A    between atoms: C_4  and  C_1 
REMARK    3  A    between atoms: C_6  and  C_2 
REMARK    4  A    between atoms: C_5  and  C_3 
REMARK    5  A    between atoms: C_7  and  C_3 
REMARK    6  A    between atoms: N_14  and  C_4 
REMARK    7  A    between atoms: N_13  and  C_5 
REMARK    8  A    between atoms: C_8  and  C_6 
REMARK    9  A    between atoms: C_6  and  N_13 
REMARK   10  A    between atoms: O_16  and  C_7 
REMARK   11  A    between atoms: O_18  and  C_8 
REMARK       I    between atoms: N_12  and  C_9 
REMARK       I    between atoms: N_14  and  C_9 
ROOT
HETATM    1  C   UNK N   1      33.926  17.243   8.989  0.00  0.00     0.175 C 
ENDROOT
BRANCH   1   2
HETATM    2  C   UNK N   1      32.653  16.553   8.457  0.00  0.00     0.037 C 
BRANCH   2   3
HETATM    3  C   UNK N   1      31.476  17.490   8.204  0.00  0.00     0.023 C 
BRANCH   3   4
HETATM    4  C   UNK N   1      30.699  17.114   6.954  0.00  0.00     0.138 C 
BRANCH   4   5
HETATM    5  N   UNK N   1      31.577  17.197   5.819  0.00  0.00    -0.227 N 
HETATM    6  C   UNK N   1      31.092  17.588   4.547  0.00  0.00     0.665 C 
HETATM    7  N   UNK N   1      31.881  17.590   3.539  0.00  0.00    -0.235 N 
HETATM    8  N   UNK N   1      29.736  17.949   4.377  0.00  0.00    -0.235 N 
HETATM    9  H   UNK N   1      31.573  17.681   2.609  0.00  0.00     0.174 HD
ATOM     10  HN  UNK N   1      32.881  17.491   3.710  1.00  0.00     0.174 HD
HETATM   11  H   UNK N   1      29.080  17.805   5.097  0.00  0.00     0.174 HD
HETATM   12  H   UNK N   1      29.443  18.352   3.527  0.00  0.00     0.174 HD
HETATM   13  H   UNK N   1      32.531  16.980   5.927  0.00  0.00     0.177 HD
ENDBRANCH   4   5
ENDBRANCH   3   4
ENDBRANCH   2   3
ENDBRANCH   1   2
BRANCH   1  14
HETATM   14  C   UNK N   1      34.526  18.236   8.008  0.00  0.00     0.163 C 
HETATM   15  O   UNK N   1      35.106  19.234   8.405  0.00  0.00    -0.648 OA
BRANCH  14  16
HETATM   16  O   UNK N   1      34.383  18.044   6.682  0.00  0.00    -0.775 OA
HETATM   17  H   UNK N   1      35.002  18.401   6.077  0.00  0.00     0.167 HD
ENDBRANCH  14  16
ENDBRANCH   1  14
BRANCH   1  18
HETATM   18  N   UNK N   1      34.905  16.231   9.412  0.00  0.00    -0.408 N 
HETATM   19  H   UNK N   1      35.187  15.432   8.844  0.00  0.00     0.154 HD
BRANCH  18  20
HETATM   20  C   UNK N   1      35.423  16.514  10.750  0.00  0.00     0.125 C 
BRANCH  20  21
HETATM   21  C   UNK N   1      36.133  15.289  11.305  0.00  0.00     0.129 C 
BRANCH  21  22
HETATM   22  C   UNK N   1      37.010  14.610  10.293  0.00  0.00     0.140 C 
HETATM   23  O   UNK N   1      36.549  13.714   9.608  0.00  0.00    -0.650 OA
BRANCH  22  24
HETATM   24  O   UNK N   1      38.295  14.980  10.127  0.00  0.00    -0.776 OA
HETATM   25  H   UNK N   1      38.838  15.145  10.873  0.00  0.00     0.167 HD
ENDBRANCH  22  24
ENDBRANCH  21  22
ENDBRANCH  20  21
ENDBRANCH  18  20
ENDBRANCH   1  18
TORSDOF 11
ENDMDL
MODEL 8
REMARK VINA RESULT:      -5.1      7.634     10.744
REMARK  11 active torsions:
REMARK  status: ('A' for Active; 'I' for Inactive)
REMARK    1  A    between atoms: C_2  and  C_1 
REMARK    2  A    between atoms: C_4  and  C_1 
REMARK    3  A    between atoms: C_6  and  C_2 
REMARK    4  A    between atoms: C_5  and  C_3 
REMARK    5  A    between atoms: C_7  and  C_3 
REMARK    6  A    between atoms: N_14  and  C_4 
REMARK    7  A    between atoms: N_13  and  C_5 
REMARK    8  A    between atoms: C_8  and  C_6 
REMARK    9  A    between atoms: C_6  and  N_13 
REMARK   10  A    between atoms: O_16  and  C_7 
REMARK   11  A    between atoms: O_18  and  C_8 
REMARK       I    between atoms: N_12  and  C_9 
REMARK       I    between atoms: N_14  and  C_9 
ROOT
HETATM    1  C   UNK N   1      24.667  19.278   3.645  0.00  0.00     0.175 C 
ENDROOT
BRANCH   1   2
HETATM    2  C   UNK N   1      25.236  19.601   5.041  0.00  0.00     0.037 C 
BRANCH   2   3
HETATM    3  C   UNK N   1      26.432  20.548   5.041  0.00  0.00     0.023 C 
BRANCH   3   4
HETATM    4  C   UNK N   1      27.648  19.940   5.719  0.00  0.00     0.138 C 
BRANCH   4   5
HETATM    5  N   UNK N   1      27.342  19.713   7.105  0.00  0.00    -0.227 N 
HETATM    6  C   UNK N   1      28.063  18.761   7.867  0.00  0.00     0.665 C 
HETATM    7  N   UNK N   1      27.726  18.531   9.080  0.00  0.00    -0.235 N 
HETATM    8  N   UNK N   1      29.134  18.043   7.287  0.00  0.00    -0.235 N 
HETATM    9  H   UNK N   1      28.068  17.770   9.602  0.00  0.00     0.174 HD
ATOM     10  HN  UNK N   1      27.070  19.170   9.527  1.00  0.00     0.174 HD
HETATM   11  H   UNK N   1      29.308  18.088   6.319  0.00  0.00     0.174 HD
HETATM   12  H   UNK N   1      29.715  17.491   7.860  0.00  0.00     0.174 HD
HETATM   13  H   UNK N   1      26.620  20.227   7.533  0.00  0.00     0.177 HD
ENDBRANCH   4   5
ENDBRANCH   3   4
ENDBRANCH   2   3
ENDBRANCH   1   2
BRANCH   1  14
HETATM   14  C   UNK N   1      24.383  20.516   2.810  0.00  0.00     0.163 C 
HETATM   15  O   UNK N   1      25.168  20.884   1.952  0.00  0.00    -0.648 OA
BRANCH  14  16
HETATM   16  O   UNK N   1      23.275  21.247   3.044  0.00  0.00    -0.775 OA
HETATM   17  H   UNK N   1      22.440  20.833   3.136  0.00  0.00     0.167 HD
ENDBRANCH  14  16
ENDBRANCH   1  14
BRANCH   1  18
HETATM   18  N   UNK N   1      23.481  18.420   3.773  0.00  0.00    -0.408 N 
HETATM   19  H   UNK N   1      22.991  17.994   2.986  0.00  0.00     0.154 HD
BRANCH  18  20
HETATM   20  C   UNK N   1      23.090  18.253   5.173  0.00  0.00     0.125 C 
BRANCH  20  21
HETATM   21  C   UNK N   1      21.574  18.285   5.300  0.00  0.00     0.129 C 
BRANCH  21  22
HETATM   22  C   UNK N   1      20.901  18.939   4.129  0.00  0.00     0.140 C 
HETATM   23  O   UNK N   1      20.752  20.148   4.124  0.00  0.00    -0.650 OA
BRANCH  22  24
HETATM   24  O   UNK N   1      20.465  18.210   3.082  0.00  0.00    -0.776 OA
HETATM   25  H   UNK N   1      21.068  17.919   2.427  0.00  0.00     0.167 HD
ENDBRANCH  22  24
ENDBRANCH  21  22
ENDBRANCH  20  21
ENDBRANCH  18  20
ENDBRANCH   1  18
TORSDOF 11
ENDMDL
MODEL 9
REMARK VINA RESULT:      -5.0      3.691      7.431
REMARK  11 active torsions:
REMARK  status: ('A' for Active; 'I' for Inactive)
REMARK    1  A    between atoms: C_2  and  C_1 
REMARK    2  A    between atoms: C_4  and  C_1 
REMARK    3  A    between atoms: C_6  and  C_2 
REMARK    4  A    between atoms: C_5  and  C_3 
REMARK    5  A    between atoms: C_7  and  C_3 
REMARK    6  A    between atoms: N_14  and  C_4 
REMARK    7  A    between atoms: N_13  and  C_5 
REMARK    8  A    between atoms: C_8  and  C_6 
REMARK    9  A    between atoms: C_6  and  N_13 
REMARK   10  A    between atoms: O_16  and  C_7 
REMARK   11  A    between atoms: O_18  and  C_8 
REMARK       I    between atoms: N_12  and  C_9 
REMARK       I    between atoms: N_14  and  C_9 
ROOT
HETATM    1  C   UNK N   1      34.707  15.366  10.228  0.00  0.00     0.175 C 
ENDROOT
BRANCH   1   2
HETATM    2  C   UNK N   1      34.593  14.298  11.334  0.00  0.00     0.037 C 
BRANCH   2   3
HETATM    3  C   UNK N   1      35.466  13.064  11.126  0.00  0.00     0.023 C 
BRANCH   3   4
HETATM    4  C   UNK N   1      36.169  12.635  12.401  0.00  0.00     0.138 C 
BRANCH   4   5
HETATM    5  N   UNK N   1      36.838  13.774  12.969  0.00  0.00    -0.227 N 
HETATM    6  C   UNK N   1      36.599  14.170  14.308  0.00  0.00     0.665 C 
HETATM    7  N   UNK N   1      37.156  15.225  14.768  0.00  0.00    -0.235 N 
HETATM    8  N   UNK N   1      35.727  13.421  15.132  0.00  0.00    -0.235 N 
HETATM    9  H   UNK N   1      36.901  15.646  15.620  0.00  0.00     0.174 HD
ATOM     10  HN  UNK N   1      37.904  15.652  14.222  1.00  0.00     0.174 HD
HETATM   11  H   UNK N   1      35.169  12.701  14.755  0.00  0.00     0.174 HD
HETATM   12  H   UNK N   1      35.678  13.620  16.095  0.00  0.00     0.174 HD
HETATM   13  H   UNK N   1      37.473  14.287  12.419  0.00  0.00     0.177 HD
ENDBRANCH   4   5
ENDBRANCH   3   4
ENDBRANCH   2   3
ENDBRANCH   1   2
BRANCH   1  14
HETATM   14  C   UNK N   1      35.742  16.437  10.531  0.00  0.00     0.163 C 
HETATM   15  O   UNK N   1      35.497  17.616  10.332  0.00  0.00    -0.648 OA
BRANCH  14  16
HETATM   16  O   UNK N   1      36.962  16.087  10.984  0.00  0.00    -0.775 OA
HETATM   17  H   UNK N   1      37.103  15.250  11.379  0.00  0.00     0.167 HD
ENDBRANCH  14  16
ENDBRANCH   1  14
BRANCH   1  18
HETATM   18  N   UNK N   1      33.385  15.944   9.950  0.00  0.00    -0.408 N 
HETATM   19  H   UNK N   1      32.748  16.292  10.667  0.00  0.00     0.154 HD
BRANCH  18  20
HETATM   20  C   UNK N   1      33.097  15.960   8.516  0.00  0.00     0.125 C 
BRANCH  20  21
HETATM   21  C   UNK N   1      32.456  17.283   8.126  0.00  0.00     0.129 C 
BRANCH  21  22
HETATM   22  C   UNK N   1      30.998  17.354   8.474  0.00  0.00     0.140 C 
HETATM   23  O   UNK N   1      30.207  17.777   7.650  0.00  0.00    -0.650 OA
BRANCH  22  24
HETATM   24  O   UNK N   1      30.551  16.952   9.681  0.00  0.00    -0.776 OA
HETATM   25  H   UNK N   1      31.016  17.191  10.458  0.00  0.00     0.167 HD
ENDBRANCH  22  24
ENDBRANCH  21  22
ENDBRANCH  20  21
ENDBRANCH  18  20
ENDBRANCH   1  18
TORSDOF 11
ENDMDL
