MODEL 1
REMARK VINA RESULT:      -6.7      0.000      0.000
REMARK  18 active torsions:
REMARK  status: ('A' for Active; 'I' for Inactive)
REMARK    1  A    between atoms: C_2  and  C_1 
REMARK    2  A    between atoms: C_5  and  C_1 
REMARK    3  A    between atoms: C_10  and  C_2 
REMARK    4  A    between atoms: C_11  and  C_5 
REMARK    5  A    between atoms: C_16  and  C_10 
REMARK    6  A    between atoms: C_25  and  C_11 
REMARK    7  A    between atoms: C_30  and  C_16 
REMARK    8  A    between atoms: C_22  and  C_19 
REMARK    9  A    between atoms: C_28  and  C_19 
REMARK   10  A    between atoms: C_31  and  C_22 
REMARK   11  A    between atoms: C_26  and  C_23 
REMARK   12  A    between atoms: C_28  and  C_23 
REMARK   13  A    between atoms: C_27  and  C_24 
REMARK   14  A    between atoms: O_37  and  C_24 
REMARK   15  A    between atoms: C_28  and  N_32 
REMARK   16  A    between atoms: O_37  and  C_29 
REMARK   17  A    between atoms: C_30  and  O_34 
REMARK   18  A    between atoms: O_36  and  C_31 
ROOT
HETATM    1  C   UNK N   1      20.935  17.705   2.594  0.00  0.00     0.088 C 
ENDROOT
BRANCH   1   2
HETATM    2  C   UNK N   1      20.263  18.945   3.228  0.00  0.00     0.036 C 
BRANCH   2   3
HETATM    3  C   UNK N   1      19.692  19.979   2.263  0.00  0.00     0.112 C 
BRANCH   3   4
HETATM    4  C   UNK N   1      20.801  20.504   1.405  0.00  0.00     0.139 C 
HETATM    5  O   UNK N   1      21.822  20.923   1.921  0.00  0.00    -0.650 OA
BRANCH   4   6
HETATM    6  O   UNK N   1      20.673  20.517   0.064  0.00  0.00    -0.776 OA
HETATM    7  H   UNK N   1      19.895  20.625  -0.447  0.00  0.00     0.167 HD
ENDBRANCH   4   6
ENDBRANCH   3   4
ENDBRANCH   2   3
ENDBRANCH   1   2
BRANCH   1   8
HETATM    8  C   UNK N   1      21.855  16.869   3.497  0.00  0.00     0.063 C 
BRANCH   8   9
HETATM    9  C   UNK N   1      21.243  16.186   4.686  0.00  0.00    -0.056 A 
HETATM   10  C   UNK N   1      21.644  16.560   5.977  0.00  0.00     0.010 A 
HETATM   11  C   UNK N   1      21.266  15.782   7.083  0.00  0.00     0.037 A 
HETATM   12  C   UNK N   1      20.523  14.610   6.891  0.00  0.00     0.069 A 
HETATM   13  C   UNK N   1      20.089  14.271   5.605  0.00  0.00     0.037 A 
HETATM   14  C   UNK N   1      20.448  15.054   4.521  0.00  0.00     0.010 A 
BRANCH  12  15
HETATM   15  O   UNK N   1      20.312  13.765   7.923  0.00  0.00    -0.347 OA
BRANCH  15  16
HETATM   16  C   UNK N   1      20.610  14.180   9.206  0.00  0.00     0.214 C 
BRANCH  16  17
HETATM   17  C   UNK N   1      21.641  13.344   9.869  0.00  0.00    -0.034 A 
HETATM   18  C   UNK N   1      22.965  13.396   9.420  0.00  0.00     0.009 A 
HETATM   19  C   UNK N   1      23.958  12.672  10.085  0.00  0.00     0.001 A 
HETATM   20  C   UNK N   1      23.630  11.909  11.210  0.00  0.00     0.000 A 
HETATM   21  C   UNK N   1      22.308  11.864  11.663  0.00  0.00     0.001 A 
HETATM   22  C   UNK N   1      21.313  12.583  10.995  0.00  0.00     0.009 A 
ENDBRANCH  16  17
ENDBRANCH  15  16
ENDBRANCH  12  15
ENDBRANCH   8   9
ENDBRANCH   1   8
BRANCH   1  23
HETATM   23  N   UNK N   1      20.036  16.807   1.889  0.00  0.00    -0.370 N 
HETATM   24  C   UNK N   1      19.794  16.724   0.620  0.00  0.00     0.111 C 
ATOM     25  HN  UNK N   1      19.524  16.149   2.477  1.00  0.00     0.161 HD
BRANCH  24  26
HETATM   26  C   UNK N   1      18.927  15.612   0.135  0.00  0.00     0.083 C 
BRANCH  26  27
HETATM   27  C   UNK N   1      19.084  14.404   1.067  0.00  0.00     0.008 C 
BRANCH  27  28
HETATM   28  C   UNK N   1      19.608  13.138   0.386  0.00  0.00     0.000 C 
BRANCH  28  29
HETATM   29  C   UNK N   1      20.908  12.618   0.990  0.00  0.00     0.000 C 
BRANCH  29  30
HETATM   30  C   UNK N   1      21.918  13.744   1.205  0.00  0.00     0.005 C 
BRANCH  30  31
HETATM   31  C   UNK N   1      23.306  13.232   1.598  0.00  0.00     0.038 C 
BRANCH  31  32
HETATM   32  C   UNK N   1      23.511  13.333   3.077  0.00  0.00    -0.058 A 
HETATM   33  C   UNK N   1      24.315  14.351   3.603  0.00  0.00     0.007 A 
HETATM   34  C   UNK N   1      24.555  14.417   4.978  0.00  0.00     0.001 A 
HETATM   35  C   UNK N   1      23.983  13.468   5.832  0.00  0.00     0.000 A 
HETATM   36  C   UNK N   1      23.168  12.459   5.311  0.00  0.00     0.001 A 
HETATM   37  C   UNK N   1      22.934  12.390   3.935  0.00  0.00     0.007 A 
ENDBRANCH  31  32
ENDBRANCH  30  31
ENDBRANCH  29  30
ENDBRANCH  28  29
ENDBRANCH  27  28
ENDBRANCH  26  27
ENDBRANCH  24  26
BRANCH  24  38
HETATM   38  O   UNK N   1      20.339  17.568  -0.275  0.00  0.00    -0.350 OA
HETATM   39  H   UNK N   1      19.939  17.921  -1.044  0.00  0.00     0.219 HD
ENDBRANCH  24  38
ENDBRANCH   1  23
TORSDOF 18
ENDMDL
MODEL 2
REMARK VINA RESULT:      -6.5      2.344      4.219
REMARK  18 active torsions:
REMARK  status: ('A' for Active; 'I' for Inactive)
REMARK    1  A    between atoms: C_2  and  C_1 
REMARK    2  A    between atoms: C_5  and  C_1 
REMARK    3  A    between atoms: C_10  and  C_2 
REMARK    4  A    between atoms: C_11  and  C_5 
REMARK    5  A    between atoms: C_16  and  C_10 
REMARK    6  A    between atoms: C_25  and  C_11 
REMARK    7  A    between atoms: C_30  and  C_16 
REMARK    8  A    between atoms: C_22  and  C_19 
REMARK    9  A    between atoms: C_28  and  C_19 
REMARK   10  A    between atoms: C_31  and  C_22 
REMARK   11  A    between atoms: C_26  and  C_23 
REMARK   12  A    between atoms: C_28  and  C_23 
REMARK   13  A    between atoms: C_27  and  C_24 
REMARK   14  A    between atoms: O_37  and  C_24 
REMARK   15  A    between atoms: C_28  and  N_32 
REMARK   16  A    between atoms: O_37  and  C_29 
REMARK   17  A    between atoms: C_30  and  O_34 
REMARK   18  A    between atoms: O_36  and  C_31 
ROOT
HETATM    1  C   UNK N   1      22.414  18.688   4.208  0.00  0.00     0.088 C 
ENDROOT
BRANCH   1   2
HETATM    2  C   UNK N   1      21.169  19.483   3.752  0.00  0.00     0.036 C 
BRANCH   2   3
HETATM    3  C   UNK N   1      20.766  19.337   2.288  0.00  0.00     0.112 C 
BRANCH   3   4
HETATM    4  C   UNK N   1      21.104  20.604   1.565  0.00  0.00     0.139 C 
HETATM    5  O   UNK N   1      21.113  20.624   0.346  0.00  0.00    -0.650 OA
BRANCH   4   6
HETATM    6  O   UNK N   1      21.401  21.721   2.256  0.00  0.00    -0.776 OA
HETATM    7  H   UNK N   1      22.242  22.033   2.527  0.00  0.00     0.167 HD
ENDBRANCH   4   6
ENDBRANCH   3   4
ENDBRANCH   2   3
ENDBRANCH   1   2
BRANCH   1   8
HETATM    8  C   UNK N   1      22.347  17.157   4.097  0.00  0.00     0.063 C 
BRANCH   8   9
HETATM    9  C   UNK N   1      21.590  16.407   5.155  0.00  0.00    -0.056 A 
HETATM   10  C   UNK N   1      21.808  16.712   6.506  0.00  0.00     0.010 A 
HETATM   11  C   UNK N   1      21.296  15.872   7.508  0.00  0.00     0.037 A 
HETATM   12  C   UNK N   1      20.601  14.708   7.155  0.00  0.00     0.069 A 
HETATM   13  C   UNK N   1      20.349  14.436   5.806  0.00  0.00     0.037 A 
HETATM   14  C   UNK N   1      20.840  15.279   4.824  0.00  0.00     0.010 A 
BRANCH  12  15
HETATM   15  O   UNK N   1      20.265  13.806   8.104  0.00  0.00    -0.347 OA
BRANCH  15  16
HETATM   16  C   UNK N   1      20.437  14.132   9.435  0.00  0.00     0.214 C 
BRANCH  16  17
HETATM   17  C   UNK N   1      21.423  13.267  10.128  0.00  0.00    -0.034 A 
HETATM   18  C   UNK N   1      22.769  13.317   9.751  0.00  0.00     0.009 A 
HETATM   19  C   UNK N   1      23.719  12.565  10.448  0.00  0.00     0.001 A 
HETATM   20  C   UNK N   1      23.324  11.775  11.532  0.00  0.00     0.000 A 
HETATM   21  C   UNK N   1      21.979  11.731  11.913  0.00  0.00     0.001 A 
HETATM   22  C   UNK N   1      21.028  12.478  11.212  0.00  0.00     0.009 A 
ENDBRANCH  16  17
ENDBRANCH  15  16
ENDBRANCH  12  15
ENDBRANCH   8   9
ENDBRANCH   1   8
BRANCH   1  23
HETATM   23  N   UNK N   1      23.675  19.139   3.646  0.00  0.00    -0.370 N 
HETATM   24  C   UNK N   1      24.797  19.382   4.246  0.00  0.00     0.111 C 
ATOM     25  HN  UNK N   1      23.679  19.284   2.636  1.00  0.00     0.161 HD
BRANCH  24  26
HETATM   26  C   UNK N   1      25.993  19.700   3.413  0.00  0.00     0.083 C 
BRANCH  26  27
HETATM   27  C   UNK N   1      27.254  19.598   4.279  0.00  0.00     0.008 C 
BRANCH  27  28
HETATM   28  C   UNK N   1      28.029  18.287   4.122  0.00  0.00     0.000 C 
BRANCH  28  29
HETATM   29  C   UNK N   1      27.800  17.307   5.268  0.00  0.00     0.000 C 
BRANCH  29  30
HETATM   30  C   UNK N   1      26.829  16.196   4.873  0.00  0.00     0.005 C 
BRANCH  30  31
HETATM   31  C   UNK N   1      25.765  15.928   5.941  0.00  0.00     0.038 C 
BRANCH  31  32
HETATM   32  C   UNK N   1      24.916  14.755   5.563  0.00  0.00    -0.058 A 
HETATM   33  C   UNK N   1      24.374  13.935   6.560  0.00  0.00     0.007 A 
HETATM   34  C   UNK N   1      23.628  12.806   6.211  0.00  0.00     0.001 A 
HETATM   35  C   UNK N   1      23.415  12.499   4.864  0.00  0.00     0.000 A 
HETATM   36  C   UNK N   1      23.943  13.324   3.866  0.00  0.00     0.001 A 
HETATM   37  C   UNK N   1      24.695  14.449   4.215  0.00  0.00     0.007 A 
ENDBRANCH  31  32
ENDBRANCH  30  31
ENDBRANCH  29  30
ENDBRANCH  28  29
ENDBRANCH  27  28
ENDBRANCH  26  27
ENDBRANCH  24  26
BRANCH  24  38
HETATM   38  O   UNK N   1      24.931  19.303   5.583  0.00  0.00    -0.350 OA
HETATM   39  H   UNK N   1      24.634  18.617   6.146  0.00  0.00     0.219 HD
ENDBRANCH  24  38
ENDBRANCH   1  23
TORSDOF 18
ENDMDL
MODEL 3
REMARK VINA RESULT:      -6.4      4.256      5.987
REMARK  18 active torsions:
REMARK  status: ('A' for Active; 'I' for Inactive)
REMARK    1  A    between atoms: C_2  and  C_1 
REMARK    2  A    between atoms: C_5  and  C_1 
REMARK    3  A    between atoms: C_10  and  C_2 
REMARK    4  A    between atoms: C_11  and  C_5 
REMARK    5  A    between atoms: C_16  and  C_10 
REMARK    6  A    between atoms: C_25  and  C_11 
REMARK    7  A    between atoms: C_30  and  C_16 
REMARK    8  A    between atoms: C_22  and  C_19 
REMARK    9  A    between atoms: C_28  and  C_19 
REMARK   10  A    between atoms: C_31  and  C_22 
REMARK   11  A    between atoms: C_26  and  C_23 
REMARK   12  A    between atoms: C_28  and  C_23 
REMARK   13  A    between atoms: C_27  and  C_24 
REMARK   14  A    between atoms: O_37  and  C_24 
REMARK   15  A    between atoms: C_28  and  N_32 
REMARK   16  A    between atoms: O_37  and  C_29 
REMARK   17  A    between atoms: C_30  and  O_34 
REMARK   18  A    between atoms: O_36  and  C_31 
ROOT
HETATM    1  C   UNK N   1      21.993  19.002   4.156  0.00  0.00     0.088 C 
ENDROOT
BRANCH   1   2
HETATM    2  C   UNK N   1      21.172  18.435   2.975  0.00  0.00     0.036 C 
BRANCH   2   3
HETATM    3  C   UNK N   1      20.072  19.332   2.416  0.00  0.00     0.112 C 
BRANCH   3   4
HETATM    4  C   UNK N   1      20.661  20.218   1.363  0.00  0.00     0.139 C 
HETATM    5  O   UNK N   1      21.166  21.282   1.676  0.00  0.00    -0.650 OA
BRANCH   4   6
HETATM    6  O   UNK N   1      20.631  19.845   0.069  0.00  0.00    -0.776 OA
HETATM    7  H   UNK N   1      21.325  19.492  -0.453  0.00  0.00     0.167 HD
ENDBRANCH   4   6
ENDBRANCH   3   4
ENDBRANCH   2   3
ENDBRANCH   1   2
BRANCH   1   8
HETATM    8  C   UNK N   1      21.716  18.412   5.548  0.00  0.00     0.063 C 
BRANCH   8   9
HETATM    9  C   UNK N   1      21.824  16.923   5.716  0.00  0.00    -0.056 A 
HETATM   10  C   UNK N   1      20.655  16.152   5.792  0.00  0.00     0.010 A 
HETATM   11  C   UNK N   1      20.726  14.806   6.182  0.00  0.00     0.037 A 
HETATM   12  C   UNK N   1      21.960  14.245   6.534  0.00  0.00     0.069 A 
HETATM   13  C   UNK N   1      23.126  15.008   6.411  0.00  0.00     0.037 A 
HETATM   14  C   UNK N   1      23.051  16.331   6.006  0.00  0.00     0.010 A 
BRANCH  12  15
HETATM   15  O   UNK N   1      22.012  13.011   7.082  0.00  0.00    -0.347 OA
BRANCH  15  16
HETATM   16  C   UNK N   1      23.212  12.545   7.582  0.00  0.00     0.214 C 
BRANCH  16  17
HETATM   17  C   UNK N   1      23.184  12.309   9.047  0.00  0.00    -0.034 A 
HETATM   18  C   UNK N   1      24.387  12.166   9.746  0.00  0.00     0.009 A 
HETATM   19  C   UNK N   1      24.377  12.021  11.136  0.00  0.00     0.001 A 
HETATM   20  C   UNK N   1      23.163  12.036  11.829  0.00  0.00     0.000 A 
HETATM   21  C   UNK N   1      21.960  12.187  11.131  0.00  0.00     0.001 A 
HETATM   22  C   UNK N   1      21.970  12.325   9.740  0.00  0.00     0.009 A 
ENDBRANCH  16  17
ENDBRANCH  15  16
ENDBRANCH  12  15
ENDBRANCH   8   9
ENDBRANCH   1   8
BRANCH   1  23
HETATM   23  N   UNK N   1      23.430  19.042   3.947  0.00  0.00    -0.370 N 
HETATM   24  C   UNK N   1      24.158  19.996   3.459  0.00  0.00     0.111 C 
ATOM     25  HN  UNK N   1      23.937  18.201   4.223  1.00  0.00     0.161 HD
BRANCH  24  26
HETATM   26  C   UNK N   1      25.641  19.838   3.482  0.00  0.00     0.083 C 
BRANCH  26  27
HETATM   27  C   UNK N   1      26.074  19.318   4.857  0.00  0.00     0.008 C 
BRANCH  27  28
HETATM   28  C   UNK N   1      26.713  20.372   5.765  0.00  0.00     0.000 C 
BRANCH  28  29
HETATM   29  C   UNK N   1      27.775  19.804   6.700  0.00  0.00     0.000 C 
BRANCH  29  30
HETATM   30  C   UNK N   1      27.804  18.277   6.656  0.00  0.00     0.005 C 
BRANCH  30  31
HETATM   31  C   UNK N   1      28.542  17.661   7.848  0.00  0.00     0.038 C 
BRANCH  31  32
HETATM   32  C   UNK N   1      30.016  17.613   7.593  0.00  0.00    -0.058 A 
HETATM   33  C   UNK N   1      30.497  17.173   6.354  0.00  0.00     0.007 A 
HETATM   34  C   UNK N   1      31.873  17.073   6.130  0.00  0.00     0.001 A 
HETATM   35  C   UNK N   1      32.771  17.420   7.143  0.00  0.00     0.000 A 
HETATM   36  C   UNK N   1      32.295  17.873   8.377  0.00  0.00     0.001 A 
HETATM   37  C   UNK N   1      30.919  17.967   8.603  0.00  0.00     0.007 A 
ENDBRANCH  31  32
ENDBRANCH  30  31
ENDBRANCH  29  30
ENDBRANCH  28  29
ENDBRANCH  27  28
ENDBRANCH  26  27
ENDBRANCH  24  26
BRANCH  24  38
HETATM   38  O   UNK N   1      23.627  21.139   2.987  0.00  0.00    -0.350 OA
HETATM   39  H   UNK N   1      24.084  21.905   2.705  0.00  0.00     0.219 HD
ENDBRANCH  24  38
ENDBRANCH   1  23
TORSDOF 18
ENDMDL
MODEL 4
REMARK VINA RESULT:      -6.3     13.706     15.827
REMARK  18 active torsions:
REMARK  status: ('A' for Active; 'I' for Inactive)
REMARK    1  A    between atoms: C_2  and  C_1 
REMARK    2  A    between atoms: C_5  and  C_1 
REMARK    3  A    between atoms: C_10  and  C_2 
REMARK    4  A    between atoms: C_11  and  C_5 
REMARK    5  A    between atoms: C_16  and  C_10 
REMARK    6  A    between atoms: C_25  and  C_11 
REMARK    7  A    between atoms: C_30  and  C_16 
REMARK    8  A    between atoms: C_22  and  C_19 
REMARK    9  A    between atoms: C_28  and  C_19 
REMARK   10  A    between atoms: C_31  and  C_22 
REMARK   11  A    between atoms: C_26  and  C_23 
REMARK   12  A    between atoms: C_28  and  C_23 
REMARK   13  A    between atoms: C_27  and  C_24 
REMARK   14  A    between atoms: O_37  and  C_24 
REMARK   15  A    between atoms: C_28  and  N_32 
REMARK   16  A    between atoms: O_37  and  C_29 
REMARK   17  A    between atoms: C_30  and  O_34 
REMARK   18  A    between atoms: O_36  and  C_31 
ROOT
HETATM    1  C   UNK N   1      26.037  25.766  -5.662  0.00  0.00     0.088 C 
ENDROOT
BRANCH   1   2
HETATM    2  C   UNK N   1      25.375  27.159  -5.558  0.00  0.00     0.036 C 
BRANCH   2   3
HETATM    3  C   UNK N   1      26.291  28.323  -5.193  0.00  0.00     0.112 C 
BRANCH   3   4
HETATM    4  C   UNK N   1      25.930  28.812  -3.826  0.00  0.00     0.139 C 
HETATM    5  O   UNK N   1      25.559  28.021  -2.976  0.00  0.00    -0.650 OA
BRANCH   4   6
HETATM    6  O   UNK N   1      26.010  30.123  -3.530  0.00  0.00    -0.776 OA
HETATM    7  H   UNK N   1      25.891  30.543  -2.701  0.00  0.00     0.167 HD
ENDBRANCH   4   6
ENDBRANCH   3   4
ENDBRANCH   2   3
ENDBRANCH   1   2
BRANCH   1   8
HETATM    8  C   UNK N   1      26.038  24.895  -4.396  0.00  0.00     0.063 C 
BRANCH   8   9
HETATM    9  C   UNK N   1      27.351  24.657  -3.707  0.00  0.00    -0.056 A 
HETATM   10  C   UNK N   1      28.462  25.442  -4.048  0.00  0.00     0.010 A 
HETATM   11  C   UNK N   1      29.741  25.085  -3.595  0.00  0.00     0.037 A 
HETATM   12  C   UNK N   1      29.912  23.922  -2.833  0.00  0.00     0.069 A 
HETATM   13  C   UNK N   1      28.793  23.171  -2.458  0.00  0.00     0.037 A 
HETATM   14  C   UNK N   1      27.531  23.540  -2.893  0.00  0.00     0.010 A 
BRANCH  12  15
HETATM   15  O   UNK N   1      31.155  23.476  -2.548  0.00  0.00    -0.347 OA
BRANCH  15  16
HETATM   16  C   UNK N   1      31.445  22.136  -2.712  0.00  0.00     0.214 C 
BRANCH  16  17
HETATM   17  C   UNK N   1      31.601  21.740  -4.134  0.00  0.00    -0.034 A 
HETATM   18  C   UNK N   1      32.447  22.479  -4.967  0.00  0.00     0.009 A 
HETATM   19  C   UNK N   1      32.662  22.070  -6.286  0.00  0.00     0.001 A 
HETATM   20  C   UNK N   1      32.043  20.912  -6.767  0.00  0.00     0.000 A 
HETATM   21  C   UNK N   1      31.203  20.169  -5.931  0.00  0.00     0.001 A 
HETATM   22  C   UNK N   1      30.983  20.581  -4.613  0.00  0.00     0.009 A 
ENDBRANCH  16  17
ENDBRANCH  15  16
ENDBRANCH  12  15
ENDBRANCH   8   9
ENDBRANCH   1   8
BRANCH   1  23
HETATM   23  N   UNK N   1      25.594  24.954  -6.783  0.00  0.00    -0.370 N 
HETATM   24  C   UNK N   1      25.997  24.970  -8.014  0.00  0.00     0.111 C 
ATOM     25  HN  UNK N   1      24.864  24.274  -6.571  1.00  0.00     0.161 HD
BRANCH  24  26
HETATM   26  C   UNK N   1      25.478  23.928  -8.945  0.00  0.00     0.083 C 
BRANCH  26  27
HETATM   27  C   UNK N   1      26.384  23.855 -10.180  0.00  0.00     0.008 C 
BRANCH  27  28
HETATM   28  C   UNK N   1      26.085  22.684 -11.120  0.00  0.00     0.000 C 
BRANCH  28  29
HETATM   29  C   UNK N   1      26.451  21.325 -10.531  0.00  0.00     0.000 C 
BRANCH  29  30
HETATM   30  C   UNK N   1      27.880  20.922 -10.893  0.00  0.00     0.005 C 
BRANCH  30  31
HETATM   31  C   UNK N   1      28.697  20.475  -9.678  0.00  0.00     0.038 C 
BRANCH  31  32
HETATM   32  C   UNK N   1      28.871  21.603  -8.710  0.00  0.00    -0.058 A 
HETATM   33  C   UNK N   1      29.687  22.691  -9.043  0.00  0.00     0.007 A 
HETATM   34  C   UNK N   1      29.897  23.720  -8.121  0.00  0.00     0.001 A 
HETATM   35  C   UNK N   1      29.284  23.667  -6.866  0.00  0.00     0.000 A 
HETATM   36  C   UNK N   1      28.457  22.590  -6.535  0.00  0.00     0.001 A 
HETATM   37  C   UNK N   1      28.253  21.557  -7.455  0.00  0.00     0.007 A 
ENDBRANCH  31  32
ENDBRANCH  30  31
ENDBRANCH  29  30
ENDBRANCH  28  29
ENDBRANCH  27  28
ENDBRANCH  26  27
ENDBRANCH  24  26
BRANCH  24  38
HETATM   38  O   UNK N   1      26.905  25.856  -8.462  0.00  0.00    -0.350 OA
HETATM   39  H   UNK N   1      26.832  26.790  -8.477  0.00  0.00     0.219 HD
ENDBRANCH  24  38
ENDBRANCH   1  23
TORSDOF 18
ENDMDL
MODEL 5
REMARK VINA RESULT:      -6.3      3.114      4.889
REMARK  18 active torsions:
REMARK  status: ('A' for Active; 'I' for Inactive)
REMARK    1  A    between atoms: C_2  and  C_1 
REMARK    2  A    between atoms: C_5  and  C_1 
REMARK    3  A    between atoms: C_10  and  C_2 
REMARK    4  A    between atoms: C_11  and  C_5 
REMARK    5  A    between atoms: C_16  and  C_10 
REMARK    6  A    between atoms: C_25  and  C_11 
REMARK    7  A    between atoms: C_30  and  C_16 
REMARK    8  A    between atoms: C_22  and  C_19 
REMARK    9  A    between atoms: C_28  and  C_19 
REMARK   10  A    between atoms: C_31  and  C_22 
REMARK   11  A    between atoms: C_26  and  C_23 
REMARK   12  A    between atoms: C_28  and  C_23 
REMARK   13  A    between atoms: C_27  and  C_24 
REMARK   14  A    between atoms: O_37  and  C_24 
REMARK   15  A    between atoms: C_28  and  N_32 
REMARK   16  A    between atoms: O_37  and  C_29 
REMARK   17  A    between atoms: C_30  and  O_34 
REMARK   18  A    between atoms: O_36  and  C_31 
ROOT
HETATM    1  C   UNK N   1      20.484  17.358   2.749  0.00  0.00     0.088 C 
ENDROOT
BRANCH   1   2
HETATM    2  C   UNK N   1      19.820  18.721   3.051  0.00  0.00     0.036 C 
BRANCH   2   3
HETATM    3  C   UNK N   1      20.730  19.814   3.606  0.00  0.00     0.112 C 
BRANCH   3   4
HETATM    4  C   UNK N   1      21.411  20.501   2.464  0.00  0.00     0.139 C 
HETATM    5  O   UNK N   1      22.354  21.243   2.677  0.00  0.00    -0.650 OA
BRANCH   4   6
HETATM    6  O   UNK N   1      20.983  20.306   1.202  0.00  0.00    -0.776 OA
HETATM    7  H   UNK N   1      20.365  19.677   0.886  0.00  0.00     0.167 HD
ENDBRANCH   4   6
ENDBRANCH   3   4
ENDBRANCH   2   3
ENDBRANCH   1   2
BRANCH   1   8
HETATM    8  C   UNK N   1      20.901  16.500   3.953  0.00  0.00     0.063 C 
BRANCH   8   9
HETATM    9  C   UNK N   1      22.369  16.281   4.187  0.00  0.00    -0.056 A 
HETATM   10  C   UNK N   1      22.783  15.290   5.088  0.00  0.00     0.010 A 
HETATM   11  C   UNK N   1      24.125  15.228   5.496  0.00  0.00     0.037 A 
HETATM   12  C   UNK N   1      25.040  16.182   5.034  0.00  0.00     0.069 A 
HETATM   13  C   UNK N   1      24.628  17.139   4.101  0.00  0.00     0.037 A 
HETATM   14  C   UNK N   1      23.307  17.182   3.687  0.00  0.00     0.010 A 
BRANCH  12  15
HETATM   15  O   UNK N   1      26.283  16.239   5.561  0.00  0.00    -0.347 OA
BRANCH  15  16
HETATM   16  C   UNK N   1      27.269  16.933   4.888  0.00  0.00     0.214 C 
BRANCH  16  17
HETATM   17  C   UNK N   1      27.426  18.332   5.358  0.00  0.00    -0.034 A 
HETATM   18  C   UNK N   1      27.243  19.387   4.458  0.00  0.00     0.009 A 
HETATM   19  C   UNK N   1      27.311  20.709   4.906  0.00  0.00     0.001 A 
HETATM   20  C   UNK N   1      27.546  20.976   6.258  0.00  0.00     0.000 A 
HETATM   21  C   UNK N   1      27.721  19.921   7.159  0.00  0.00     0.001 A 
HETATM   22  C   UNK N   1      27.659  18.598   6.710  0.00  0.00     0.009 A 
ENDBRANCH  16  17
ENDBRANCH  15  16
ENDBRANCH  12  15
ENDBRANCH   8   9
ENDBRANCH   1   8
BRANCH   1  23
HETATM   23  N   UNK N   1      19.765  16.516   1.807  0.00  0.00    -0.370 N 
HETATM   24  C   UNK N   1      19.699  16.605   0.517  0.00  0.00     0.111 C 
ATOM     25  HN  UNK N   1      19.238  15.747   2.220  1.00  0.00     0.161 HD
BRANCH  24  26
HETATM   26  C   UNK N   1      19.003  15.522  -0.235  0.00  0.00     0.083 C 
BRANCH  26  27
HETATM   27  C   UNK N   1      18.728  14.346   0.710  0.00  0.00     0.008 C 
BRANCH  27  28
HETATM   28  C   UNK N   1      19.512  13.072   0.386  0.00  0.00     0.000 C 
BRANCH  28  29
HETATM   29  C   UNK N   1      20.727  12.863   1.283  0.00  0.00     0.000 C 
BRANCH  29  30
HETATM   30  C   UNK N   1      22.032  13.119   0.530  0.00  0.00     0.005 C 
BRANCH  30  31
HETATM   31  C   UNK N   1      22.722  14.417   0.960  0.00  0.00     0.038 C 
BRANCH  31  32
HETATM   32  C   UNK N   1      24.032  14.128   1.623  0.00  0.00    -0.058 A 
HETATM   33  C   UNK N   1      25.135  14.955   1.383  0.00  0.00     0.007 A 
HETATM   34  C   UNK N   1      26.375  14.657   1.955  0.00  0.00     0.001 A 
HETATM   35  C   UNK N   1      26.511  13.535   2.778  0.00  0.00     0.000 A 
HETATM   36  C   UNK N   1      25.408  12.715   3.032  0.00  0.00     0.001 A 
HETATM   37  C   UNK N   1      24.171  13.009   2.453  0.00  0.00     0.007 A 
ENDBRANCH  31  32
ENDBRANCH  30  31
ENDBRANCH  29  30
ENDBRANCH  28  29
ENDBRANCH  27  28
ENDBRANCH  26  27
ENDBRANCH  24  26
BRANCH  24  38
HETATM   38  O   UNK N   1      20.284  17.606  -0.167  0.00  0.00    -0.350 OA
HETATM   39  H   UNK N   1      19.862  18.308  -0.621  0.00  0.00     0.219 HD
ENDBRANCH  24  38
ENDBRANCH   1  23
TORSDOF 18
ENDMDL
MODEL 6
REMARK VINA RESULT:      -6.2      3.369      5.201
REMARK  18 active torsions:
REMARK  status: ('A' for Active; 'I' for Inactive)
REMARK    1  A    between atoms: C_2  and  C_1 
REMARK    2  A    between atoms: C_5  and  C_1 
REMARK    3  A    between atoms: C_10  and  C_2 
REMARK    4  A    between atoms: C_11  and  C_5 
REMARK    5  A    between atoms: C_16  and  C_10 
REMARK    6  A    between atoms: C_25  and  C_11 
REMARK    7  A    between atoms: C_30  and  C_16 
REMARK    8  A    between atoms: C_22  and  C_19 
REMARK    9  A    between atoms: C_28  and  C_19 
REMARK   10  A    between atoms: C_31  and  C_22 
REMARK   11  A    between atoms: C_26  and  C_23 
REMARK   12  A    between atoms: C_28  and  C_23 
REMARK   13  A    between atoms: C_27  and  C_24 
REMARK   14  A    between atoms: O_37  and  C_24 
REMARK   15  A    between atoms: C_28  and  N_32 
REMARK   16  A    between atoms: O_37  and  C_29 
REMARK   17  A    between atoms: C_30  and  O_34 
REMARK   18  A    between atoms: O_36  and  C_31 
ROOT
HETATM    1  C   UNK N   1      20.674  17.517   2.557  0.00  0.00     0.088 C 
ENDROOT
BRANCH   1   2
HETATM    2  C   UNK N   1      20.120  18.956   2.667  0.00  0.00     0.036 C 
BRANCH   2   3
HETATM    3  C   UNK N   1      21.112  20.089   2.422  0.00  0.00     0.112 C 
BRANCH   3   4
HETATM    4  C   UNK N   1      20.809  20.718   1.098  0.00  0.00     0.139 C 
HETATM    5  O   UNK N   1      20.696  21.929   1.013  0.00  0.00    -0.650 OA
BRANCH   4   6
HETATM    6  O   UNK N   1      20.656  19.952   0.001  0.00  0.00    -0.776 OA
HETATM    7  H   UNK N   1      21.272  19.366  -0.392  0.00  0.00     0.167 HD
ENDBRANCH   4   6
ENDBRANCH   3   4
ENDBRANCH   2   3
ENDBRANCH   1   2
BRANCH   1   8
HETATM    8  C   UNK N   1      21.124  16.838   3.860  0.00  0.00     0.063 C 
BRANCH   8   9
HETATM    9  C   UNK N   1      22.599  16.684   4.100  0.00  0.00    -0.056 A 
HETATM   10  C   UNK N   1      23.079  15.519   4.714  0.00  0.00     0.010 A 
HETATM   11  C   UNK N   1      24.409  15.455   5.158  0.00  0.00     0.037 A 
HETATM   12  C   UNK N   1      25.245  16.571   5.022  0.00  0.00     0.069 A 
HETATM   13  C   UNK N   1      24.771  17.713   4.367  0.00  0.00     0.037 A 
HETATM   14  C   UNK N   1      23.463  17.761   3.914  0.00  0.00     0.010 A 
BRANCH  12  15
HETATM   15  O   UNK N   1      26.463  16.581   5.607  0.00  0.00    -0.347 OA
BRANCH  15  16
HETATM   16  C   UNK N   1      27.260  17.702   5.487  0.00  0.00     0.214 C 
BRANCH  16  17
HETATM   17  C   UNK N   1      28.664  17.387   5.125  0.00  0.00    -0.034 A 
HETATM   18  C   UNK N   1      29.659  17.442   6.108  0.00  0.00     0.009 A 
HETATM   19  C   UNK N   1      30.970  17.072   5.797  0.00  0.00     0.001 A 
HETATM   20  C   UNK N   1      31.283  16.631   4.508  0.00  0.00     0.000 A 
HETATM   21  C   UNK N   1      30.287  16.569   3.528  0.00  0.00     0.001 A 
HETATM   22  C   UNK N   1      28.977  16.945   3.837  0.00  0.00     0.009 A 
ENDBRANCH  16  17
ENDBRANCH  15  16
ENDBRANCH  12  15
ENDBRANCH   8   9
ENDBRANCH   1   8
BRANCH   1  23
HETATM   23  N   UNK N   1      19.837  16.588   1.816  0.00  0.00    -0.370 N 
HETATM   24  C   UNK N   1      19.684  16.469   0.535  0.00  0.00     0.111 C 
ATOM     25  HN  UNK N   1      19.295  15.937   2.384  1.00  0.00     0.161 HD
BRANCH  24  26
HETATM   26  C   UNK N   1      18.868  15.332   0.021  0.00  0.00     0.083 C 
BRANCH  26  27
HETATM   27  C   UNK N   1      19.009  14.137   0.971  0.00  0.00     0.008 C 
BRANCH  27  28
HETATM   28  C   UNK N   1      19.893  13.004   0.443  0.00  0.00     0.000 C 
BRANCH  28  29
HETATM   29  C   UNK N   1      20.952  12.547   1.440  0.00  0.00     0.000 C 
BRANCH  29  30
HETATM   30  C   UNK N   1      21.831  13.709   1.899  0.00  0.00     0.005 C 
BRANCH  30  31
HETATM   31  C   UNK N   1      22.851  14.138   0.841  0.00  0.00     0.038 C 
BRANCH  31  32
HETATM   32  C   UNK N   1      24.235  14.146   1.409  0.00  0.00    -0.058 A 
HETATM   33  C   UNK N   1      24.710  13.030   2.109  0.00  0.00     0.007 A 
HETATM   34  C   UNK N   1      25.981  13.055   2.690  0.00  0.00     0.001 A 
HETATM   35  C   UNK N   1      26.784  14.192   2.564  0.00  0.00     0.000 A 
HETATM   36  C   UNK N   1      26.319  15.303   1.853  0.00  0.00     0.001 A 
HETATM   37  C   UNK N   1      25.045  15.281   1.279  0.00  0.00     0.007 A 
ENDBRANCH  31  32
ENDBRANCH  30  31
ENDBRANCH  29  30
ENDBRANCH  28  29
ENDBRANCH  27  28
ENDBRANCH  26  27
ENDBRANCH  24  26
BRANCH  24  38
HETATM   38  O   UNK N   1      20.278  17.299  -0.341  0.00  0.00    -0.350 OA
HETATM   39  H   UNK N   1      19.907  17.671  -1.116  0.00  0.00     0.219 HD
ENDBRANCH  24  38
ENDBRANCH   1  23
TORSDOF 18
ENDMDL
MODEL 7
REMARK VINA RESULT:      -6.2      2.840      4.980
REMARK  18 active torsions:
REMARK  status: ('A' for Active; 'I' for Inactive)
REMARK    1  A    between atoms: C_2  and  C_1 
REMARK    2  A    between atoms: C_5  and  C_1 
REMARK    3  A    between atoms: C_10  and  C_2 
REMARK    4  A    between atoms: C_11  and  C_5 
REMARK    5  A    between atoms: C_16  and  C_10 
REMARK    6  A    between atoms: C_25  and  C_11 
REMARK    7  A    between atoms: C_30  and  C_16 
REMARK    8  A    between atoms: C_22  and  C_19 
REMARK    9  A    between atoms: C_28  and  C_19 
REMARK   10  A    between atoms: C_31  and  C_22 
REMARK   11  A    between atoms: C_26  and  C_23 
REMARK   12  A    between atoms: C_28  and  C_23 
REMARK   13  A    between atoms: C_27  and  C_24 
REMARK   14  A    between atoms: O_37  and  C_24 
REMARK   15  A    between atoms: C_28  and  N_32 
REMARK   16  A    between atoms: O_37  and  C_29 
REMARK   17  A    between atoms: C_30  and  O_34 
REMARK   18  A    between atoms: O_36  and  C_31 
ROOT
HETATM    1  C   UNK N   1      20.475  17.590   2.649  0.00  0.00     0.088 C 
ENDROOT
BRANCH   1   2
HETATM    2  C   UNK N   1      19.955  19.046   2.669  0.00  0.00     0.036 C 
BRANCH   2   3
HETATM    3  C   UNK N   1      20.995  20.144   2.466  0.00  0.00     0.112 C 
BRANCH   3   4
HETATM    4  C   UNK N   1      20.781  20.771   1.125  0.00  0.00     0.139 C 
HETATM    5  O   UNK N   1      20.694  21.983   1.026  0.00  0.00    -0.650 OA
BRANCH   4   6
HETATM    6  O   UNK N   1      20.679  20.001   0.024  0.00  0.00    -0.776 OA
HETATM    7  H   UNK N   1      20.570  19.072  -0.030  0.00  0.00     0.167 HD
ENDBRANCH   4   6
ENDBRANCH   3   4
ENDBRANCH   2   3
ENDBRANCH   1   2
BRANCH   1   8
HETATM    8  C   UNK N   1      20.770  16.934   4.007  0.00  0.00     0.063 C 
BRANCH   8   9
HETATM    9  C   UNK N   1      22.160  16.420   4.253  0.00  0.00    -0.056 A 
HETATM   10  C   UNK N   1      22.774  16.658   5.491  0.00  0.00     0.010 A 
HETATM   11  C   UNK N   1      24.143  16.398   5.659  0.00  0.00     0.037 A 
HETATM   12  C   UNK N   1      24.904  15.938   4.575  0.00  0.00     0.069 A 
HETATM   13  C   UNK N   1      24.274  15.660   3.358  0.00  0.00     0.037 A 
HETATM   14  C   UNK N   1      22.918  15.901   3.205  0.00  0.00     0.010 A 
BRANCH  12  15
HETATM   15  O   UNK N   1      26.249  15.859   4.678  0.00  0.00    -0.347 OA
BRANCH  15  16
HETATM   16  C   UNK N   1      27.032  16.735   3.952  0.00  0.00     0.214 C 
BRANCH  16  17
HETATM   17  C   UNK N   1      26.996  18.124   4.475  0.00  0.00    -0.034 A 
HETATM   18  C   UNK N   1      27.625  18.421   5.689  0.00  0.00     0.009 A 
HETATM   19  C   UNK N   1      27.665  19.739   6.152  0.00  0.00     0.001 A 
HETATM   20  C   UNK N   1      27.090  20.763   5.392  0.00  0.00     0.000 A 
HETATM   21  C   UNK N   1      26.469  20.466   4.175  0.00  0.00     0.001 A 
HETATM   22  C   UNK N   1      26.423  19.147   3.714  0.00  0.00     0.009 A 
ENDBRANCH  16  17
ENDBRANCH  15  16
ENDBRANCH  12  15
ENDBRANCH   8   9
ENDBRANCH   1   8
BRANCH   1  23
HETATM   23  N   UNK N   1      19.692  16.665   1.848  0.00  0.00    -0.370 N 
HETATM   24  C   UNK N   1      19.647  16.535   0.560  0.00  0.00     0.111 C 
ATOM     25  HN  UNK N   1      19.092  16.029   2.373  1.00  0.00     0.161 HD
BRANCH  24  26
HETATM   26  C   UNK N   1      18.862  15.404  -0.011  0.00  0.00     0.083 C 
BRANCH  26  27
HETATM   27  C   UNK N   1      18.975  14.188   0.916  0.00  0.00     0.008 C 
BRANCH  27  28
HETATM   28  C   UNK N   1      20.139  13.248   0.594  0.00  0.00     0.000 C 
BRANCH  28  29
HETATM   29  C   UNK N   1      21.286  13.338   1.595  0.00  0.00     0.000 C 
BRANCH  29  30
HETATM   30  C   UNK N   1      21.085  12.381   2.769  0.00  0.00     0.005 C 
BRANCH  30  31
HETATM   31  C   UNK N   1      22.336  12.237   3.640  0.00  0.00     0.038 C 
BRANCH  31  32
HETATM   32  C   UNK N   1      22.080  12.741   5.025  0.00  0.00    -0.058 A 
HETATM   33  C   UNK N   1      20.802  13.188   5.382  0.00  0.00     0.007 A 
HETATM   34  C   UNK N   1      20.571  13.711   6.657  0.00  0.00     0.001 A 
HETATM   35  C   UNK N   1      21.617  13.781   7.582  0.00  0.00     0.000 A 
HETATM   36  C   UNK N   1      22.891  13.323   7.234  0.00  0.00     0.001 A 
HETATM   37  C   UNK N   1      23.124  12.806   5.957  0.00  0.00     0.007 A 
ENDBRANCH  31  32
ENDBRANCH  30  31
ENDBRANCH  29  30
ENDBRANCH  28  29
ENDBRANCH  27  28
ENDBRANCH  26  27
ENDBRANCH  24  26
BRANCH  24  38
HETATM   38  O   UNK N   1      20.328  17.346  -0.270  0.00  0.00    -0.350 OA
HETATM   39  H   UNK N   1      20.184  17.475  -1.186  0.00  0.00     0.219 HD
ENDBRANCH  24  38
ENDBRANCH   1  23
TORSDOF 18
ENDMDL
MODEL 8
REMARK VINA RESULT:      -6.2     14.412     16.492
REMARK  18 active torsions:
REMARK  status: ('A' for Active; 'I' for Inactive)
REMARK    1  A    between atoms: C_2  and  C_1 
REMARK    2  A    between atoms: C_5  and  C_1 
REMARK    3  A    between atoms: C_10  and  C_2 
REMARK    4  A    between atoms: C_11  and  C_5 
REMARK    5  A    between atoms: C_16  and  C_10 
REMARK    6  A    between atoms: C_25  and  C_11 
REMARK    7  A    between atoms: C_30  and  C_16 
REMARK    8  A    between atoms: C_22  and  C_19 
REMARK    9  A    between atoms: C_28  and  C_19 
REMARK   10  A    between atoms: C_31  and  C_22 
REMARK   11  A    between atoms: C_26  and  C_23 
REMARK   12  A    between atoms: C_28  and  C_23 
REMARK   13  A    between atoms: C_27  and  C_24 
REMARK   14  A    between atoms: O_37  and  C_24 
REMARK   15  A    between atoms: C_28  and  N_32 
REMARK   16  A    between atoms: O_37  and  C_29 
REMARK   17  A    between atoms: C_30  and  O_34 
REMARK   18  A    between atoms: O_36  and  C_31 
ROOT
HETATM    1  C   UNK N   1      27.103  24.163  -7.123  0.00  0.00     0.088 C 
ENDROOT
BRANCH   1   2
HETATM    2  C   UNK N   1      27.243  22.936  -8.052  0.00  0.00     0.036 C 
BRANCH   2   3
HETATM    3  C   UNK N   1      26.385  21.721  -7.712  0.00  0.00     0.112 C 
BRANCH   3   4
HETATM    4  C   UNK N   1      25.169  21.729  -8.583  0.00  0.00     0.139 C 
HETATM    5  O   UNK N   1      24.170  22.330  -8.227  0.00  0.00    -0.650 OA
BRANCH   4   6
HETATM    6  O   UNK N   1      25.171  21.072  -9.758  0.00  0.00    -0.776 OA
HETATM    7  H   UNK N   1      25.594  21.311 -10.560  0.00  0.00     0.167 HD
ENDBRANCH   4   6
ENDBRANCH   3   4
ENDBRANCH   2   3
ENDBRANCH   1   2
BRANCH   1   8
HETATM    8  C   UNK N   1      26.213  24.003  -5.881  0.00  0.00     0.063 C 
BRANCH   8   9
HETATM    9  C   UNK N   1      25.900  25.231  -5.074  0.00  0.00    -0.056 A 
HETATM   10  C   UNK N   1      25.241  26.307  -5.685  0.00  0.00     0.010 A 
HETATM   11  C   UNK N   1      25.152  27.543  -5.024  0.00  0.00     0.037 A 
HETATM   12  C   UNK N   1      25.757  27.710  -3.772  0.00  0.00     0.069 A 
HETATM   13  C   UNK N   1      26.372  26.618  -3.151  0.00  0.00     0.037 A 
HETATM   14  C   UNK N   1      26.439  25.396  -3.800  0.00  0.00     0.010 A 
BRANCH  12  15
HETATM   15  O   UNK N   1      25.832  28.939  -3.215  0.00  0.00    -0.347 OA
BRANCH  15  16
HETATM   16  C   UNK N   1      26.738  29.852  -3.716  0.00  0.00     0.214 C 
BRANCH  16  17
HETATM   17  C   UNK N   1      28.105  29.689  -3.161  0.00  0.00    -0.034 A 
HETATM   18  C   UNK N   1      28.351  30.027  -1.826  0.00  0.00     0.009 A 
HETATM   19  C   UNK N   1      29.614  29.804  -1.270  0.00  0.00     0.001 A 
HETATM   20  C   UNK N   1      30.625  29.228  -2.044  0.00  0.00     0.000 A 
HETATM   21  C   UNK N   1      30.375  28.883  -3.376  0.00  0.00     0.001 A 
HETATM   22  C   UNK N   1      29.115  29.111  -3.935  0.00  0.00     0.009 A 
ENDBRANCH  16  17
ENDBRANCH  15  16
ENDBRANCH  12  15
ENDBRANCH   8   9
ENDBRANCH   1   8
BRANCH   1  23
HETATM   23  N   UNK N   1      28.355  24.780  -6.719  0.00  0.00    -0.370 N 
HETATM   24  C   UNK N   1      28.803  25.967  -6.980  0.00  0.00     0.111 C 
ATOM     25  HN  UNK N   1      28.968  24.196  -6.150  1.00  0.00     0.161 HD
BRANCH  24  26
HETATM   26  C   UNK N   1      30.066  26.409  -6.323  0.00  0.00     0.083 C 
BRANCH  26  27
HETATM   27  C   UNK N   1      30.913  25.179  -5.976  0.00  0.00     0.008 C 
BRANCH  27  28
HETATM   28  C   UNK N   1      31.552  25.218  -4.585  0.00  0.00     0.000 C 
BRANCH  28  29
HETATM   29  C   UNK N   1      30.535  25.320  -3.453  0.00  0.00     0.000 C 
BRANCH  29  30
HETATM   30  C   UNK N   1      29.627  24.092  -3.401  0.00  0.00     0.005 C 
BRANCH  30  31
HETATM   31  C   UNK N   1      30.353  22.835  -2.915  0.00  0.00     0.038 C 
BRANCH  31  32
HETATM   32  C   UNK N   1      30.574  21.879  -4.044  0.00  0.00    -0.058 A 
HETATM   33  C   UNK N   1      29.755  21.935  -5.178  0.00  0.00     0.007 A 
HETATM   34  C   UNK N   1      29.920  21.008  -6.211  0.00  0.00     0.001 A 
HETATM   35  C   UNK N   1      30.912  20.027  -6.115  0.00  0.00     0.000 A 
HETATM   36  C   UNK N   1      31.742  19.978  -4.991  0.00  0.00     0.001 A 
HETATM   37  C   UNK N   1      31.571  20.900  -3.955  0.00  0.00     0.007 A 
ENDBRANCH  31  32
ENDBRANCH  30  31
ENDBRANCH  29  30
ENDBRANCH  28  29
ENDBRANCH  27  28
ENDBRANCH  26  27
ENDBRANCH  24  26
BRANCH  24  38
HETATM   38  O   UNK N   1      28.141  26.828  -7.774  0.00  0.00    -0.350 OA
HETATM   39  H   UNK N   1      28.483  27.316  -8.497  0.00  0.00     0.219 HD
ENDBRANCH  24  38
ENDBRANCH   1  23
TORSDOF 18
ENDMDL
MODEL 9
REMARK VINA RESULT:      -6.2      3.287      5.037
REMARK  18 active torsions:
REMARK  status: ('A' for Active; 'I' for Inactive)
REMARK    1  A    between atoms: C_2  and  C_1 
REMARK    2  A    between atoms: C_5  and  C_1 
REMARK    3  A    between atoms: C_10  and  C_2 
REMARK    4  A    between atoms: C_11  and  C_5 
REMARK    5  A    between atoms: C_16  and  C_10 
REMARK    6  A    between atoms: C_25  and  C_11 
REMARK    7  A    between atoms: C_30  and  C_16 
REMARK    8  A    between atoms: C_22  and  C_19 
REMARK    9  A    between atoms: C_28  and  C_19 
REMARK   10  A    between atoms: C_31  and  C_22 
REMARK   11  A    between atoms: C_26  and  C_23 
REMARK   12  A    between atoms: C_28  and  C_23 
REMARK   13  A    between atoms: C_27  and  C_24 
REMARK   14  A    between atoms: O_37  and  C_24 
REMARK   15  A    between atoms: C_28  and  N_32 
REMARK   16  A    between atoms: O_37  and  C_29 
REMARK   17  A    between atoms: C_30  and  O_34 
REMARK   18  A    between atoms: O_36  and  C_31 
ROOT
HETATM    1  C   UNK N   1      21.242  18.595   4.161  0.00  0.00     0.088 C 
ENDROOT
BRANCH   1   2
HETATM    2  C   UNK N   1      20.691  19.841   3.432  0.00  0.00     0.036 C 
BRANCH   2   3
HETATM    3  C   UNK N   1      21.584  20.452   2.356  0.00  0.00     0.112 C 
BRANCH   3   4
HETATM    4  C   UNK N   1      21.008  20.134   1.012  0.00  0.00     0.139 C 
HETATM    5  O   UNK N   1      21.100  20.942   0.104  0.00  0.00    -0.650 OA
BRANCH   4   6
HETATM    6  O   UNK N   1      20.385  18.958   0.801  0.00  0.00    -0.776 OA
HETATM    7  H   UNK N   1      20.679  18.095   1.018  0.00  0.00     0.167 HD
ENDBRANCH   4   6
ENDBRANCH   3   4
ENDBRANCH   2   3
ENDBRANCH   1   2
BRANCH   1   8
HETATM    8  C   UNK N   1      20.294  17.395   4.312  0.00  0.00     0.063 C 
BRANCH   8   9
HETATM    9  C   UNK N   1      20.607  16.378   5.372  0.00  0.00    -0.056 A 
HETATM   10  C   UNK N   1      20.724  15.027   5.019  0.00  0.00     0.010 A 
HETATM   11  C   UNK N   1      20.780  14.041   6.017  0.00  0.00     0.037 A 
HETATM   12  C   UNK N   1      20.679  14.407   7.365  0.00  0.00     0.069 A 
HETATM   13  C   UNK N   1      20.610  15.761   7.710  0.00  0.00     0.037 A 
HETATM   14  C   UNK N   1      20.575  16.729   6.721  0.00  0.00     0.010 A 
BRANCH  12  15
HETATM   15  O   UNK N   1      20.550  13.457   8.317  0.00  0.00    -0.347 OA
BRANCH  15  16
HETATM   16  C   UNK N   1      20.793  13.786   9.636  0.00  0.00     0.214 C 
BRANCH  16  17
HETATM   17  C   UNK N   1      22.055  13.207  10.161  0.00  0.00    -0.034 A 
HETATM   18  C   UNK N   1      22.024  12.412  11.312  0.00  0.00     0.009 A 
HETATM   19  C   UNK N   1      23.192  11.799  11.770  0.00  0.00     0.001 A 
HETATM   20  C   UNK N   1      24.390  11.967  11.069  0.00  0.00     0.000 A 
HETATM   21  C   UNK N   1      24.419  12.756   9.914  0.00  0.00     0.001 A 
HETATM   22  C   UNK N   1      23.252  13.374   9.458  0.00  0.00     0.009 A 
ENDBRANCH  16  17
ENDBRANCH  15  16
ENDBRANCH  12  15
ENDBRANCH   8   9
ENDBRANCH   1   8
BRANCH   1  23
HETATM   23  N   UNK N   1      22.526  18.113   3.679  0.00  0.00    -0.370 N 
HETATM   24  C   UNK N   1      23.601  17.843   4.348  0.00  0.00     0.111 C 
ATOM     25  HN  UNK N   1      22.589  17.967   2.672  1.00  0.00     0.161 HD
BRANCH  24  26
HETATM   26  C   UNK N   1      24.749  17.223   3.626  0.00  0.00     0.083 C 
BRANCH  26  27
HETATM   27  C   UNK N   1      25.715  16.607   4.645  0.00  0.00     0.008 C 
BRANCH  27  28
HETATM   28  C   UNK N   1      26.705  15.599   4.055  0.00  0.00     0.000 C 
BRANCH  28  29
HETATM   29  C   UNK N   1      28.091  15.670   4.687  0.00  0.00     0.000 C 
BRANCH  29  30
HETATM   30  C   UNK N   1      28.906  16.834   4.124  0.00  0.00     0.005 C 
BRANCH  30  31
HETATM   31  C   UNK N   1      29.296  17.859   5.192  0.00  0.00     0.038 C 
BRANCH  31  32
HETATM   32  C   UNK N   1      28.264  18.938   5.295  0.00  0.00    -0.058 A 
HETATM   33  C   UNK N   1      27.692  19.470   4.133  0.00  0.00     0.007 A 
HETATM   34  C   UNK N   1      26.769  20.516   4.221  0.00  0.00     0.001 A 
HETATM   35  C   UNK N   1      26.411  21.027   5.472  0.00  0.00     0.000 A 
HETATM   36  C   UNK N   1      26.969  20.488   6.635  0.00  0.00     0.001 A 
HETATM   37  C   UNK N   1      27.897  19.447   6.546  0.00  0.00     0.007 A 
ENDBRANCH  31  32
ENDBRANCH  30  31
ENDBRANCH  29  30
ENDBRANCH  28  29
ENDBRANCH  27  28
ENDBRANCH  26  27
ENDBRANCH  24  26
BRANCH  24  38
HETATM   38  O   UNK N   1      23.695  18.050   5.675  0.00  0.00    -0.350 OA
HETATM   39  H   UNK N   1      23.896  18.853   6.113  0.00  0.00     0.219 HD
ENDBRANCH  24  38
ENDBRANCH   1  23
TORSDOF 18
ENDMDL
