REMARK  6 active torsions:
REMARK  status: ('A' for Active; 'I' for Inactive)
REMARK    1  A    between atoms: O_40  and  C_19 
REMARK    2  A    between atoms: C_27  and  C_20 
REMARK    3  A    between atoms: C_28  and  C_21 
REMARK    4  A    between atoms: O_39  and  C_24 
REMARK    5  A    between atoms: C_29  and  C_25 
REMARK    6  A    between atoms: O_40  and  C_26 
REMARK       I    between atoms: N_36  and  C_30 
REMARK       I    between atoms: N_37  and  C_30 
ROOT
HETATM    1  C   UNK N   1       4.460   2.395   0.554  0.00  0.00     0.133 C 
HETATM    2  C   UNK N   1       6.387   1.804  -0.683  0.00  0.00     0.133 C 
HETATM    3  C   UNK N   1       4.178   0.936   0.911  0.00  0.00     0.147 C 
HETATM    4  C   UNK N   1       6.189   0.322  -0.380  0.00  0.00     0.147 C 
HETATM    5  C   UNK N   1       0.680  -1.616   0.282  0.00  0.00     0.144 C 
HETATM    6  C   UNK N   1       1.762  -0.753  -0.396  0.00  0.00     0.156 C 
HETATM    7  C   UNK N   1       2.504  -2.883   0.043  0.00  0.00     0.121 C 
HETATM    8  C   UNK N   1       4.254  -1.155  -0.387  0.00  0.00     0.327 C 
HETATM    9  N   UNK N   1       5.900   2.606   0.436  0.00  0.00    -0.418 N 
HETATM   10  N   UNK N   1       1.226  -2.945   0.134  0.00  0.00    -0.364 N 
ATOM     11  HN  UNK N   1       0.678  -3.805   0.105  1.00  0.00     0.162 HD
HETATM   12  N   UNK N   1       4.796   0.063  -0.058  0.00  0.00    -0.331 N 
HETATM   13  N   UNK N   1       2.963  -1.523  -0.040  0.00  0.00    -0.273 N 
HETATM   14  O   UNK N   1       4.972  -1.964  -0.954  0.00  0.00    -0.247 OA
HETATM   15  H   UNK N   1       6.467   3.209   1.032  0.00  0.00     0.153 HD
ENDROOT
BRANCH   7  16
HETATM   16  C   UNK N   1       3.356  -4.125   0.105  0.00  0.00     0.042 A 
HETATM   17  C   UNK N   1       4.683  -4.030   0.554  0.00  0.00     0.021 A 
HETATM   18  C   UNK N   1       5.529  -5.135   0.582  0.00  0.00     0.038 A 
HETATM   19  C   UNK N   1       5.070  -6.378   0.160  0.00  0.00     0.070 A 
HETATM   20  C   UNK N   1       3.734  -6.512  -0.250  0.00  0.00     0.074 A 
HETATM   21  C   UNK N   1       2.868  -5.410  -0.263  0.00  0.00     0.086 A 
BRANCH  19  22
HETATM   22  O   UNK N   1       5.930  -7.423   0.148  0.00  0.00    -0.356 OA
HETATM   23  C   UNK N   1       5.597  -8.669  -0.333  0.00  0.00     0.210 C 
ENDBRANCH  19  22
BRANCH  21  24
HETATM   24  O   UNK N   1       1.596  -5.603  -0.680  0.00  0.00    -0.346 OA
BRANCH  24  25
HETATM   25  C   UNK N   1       0.539  -5.713   0.200  0.00  0.00     0.120 C 
HETATM   26  C   UNK N   1      -0.753  -5.820  -0.582  0.00  0.00     0.040 C 
HETATM   27  C   UNK N   1       0.686  -6.945   1.079  0.00  0.00     0.040 C 
ENDBRANCH  24  25
ENDBRANCH  21  24
ENDBRANCH   7  16
BRANCH   5  28
HETATM   28  C   UNK N   1      -0.787  -1.452  -0.014  0.00  0.00    -0.033 A 
HETATM   29  C   UNK N   1      -1.265  -0.356  -0.749  0.00  0.00     0.011 A 
HETATM   30  C   UNK N   1      -2.639  -0.096  -0.813  0.00  0.00     0.024 A 
HETATM   31  C   UNK N   1      -3.541  -0.930  -0.145  0.00  0.00     0.034 A 
HETATM   32  C   UNK N   1      -3.074  -2.037   0.565  0.00  0.00     0.024 A 
HETATM   33 Cl   UNK N   1      -5.255  -0.569  -0.162  0.00  0.00    -0.084 Cl
HETATM   34  C   UNK N   1      -1.702  -2.288   0.642  0.00  0.00     0.011 A 
ENDBRANCH   5  28
BRANCH   6  35
HETATM   35  C   UNK N   1       1.602   0.742  -0.243  0.00  0.00    -0.032 A 
HETATM   36  C   UNK N   1       1.314   1.345   0.991  0.00  0.00     0.011 A 
HETATM   37  C   UNK N   1       1.055   2.721   1.052  0.00  0.00     0.024 A 
HETATM   38  C   UNK N   1       1.065   3.493  -0.117  0.00  0.00     0.034 A 
HETATM   39  C   UNK N   1       1.330   2.895  -1.347  0.00  0.00     0.024 A 
HETATM   40 Cl   UNK N   1       0.730   5.209  -0.048  0.00  0.00    -0.084 Cl
HETATM   41  C   UNK N   1       1.585   1.527  -1.410  0.00  0.00     0.011 A 
ENDBRANCH   6  35
TORSDOF 6
