MODEL 1
REMARK VINA RESULT:      -5.0      0.000      0.000
REMARK  1 active torsions:
REMARK  status: ('A' for Active; 'I' for Inactive)
REMARK    1  A    between atoms: O_12  and  C_6 
ROOT
HETATM    1  C   UNK N   1      20.099  12.905  10.751  0.00  0.00     0.039 A 
HETATM    2  C   UNK N   1      20.978  12.129  11.532  0.00  0.00     0.035 A 
HETATM    3  C   UNK N   1      21.987  13.819   9.485  0.00  0.00     0.068 A 
HETATM    4  C   UNK N   1      24.462  12.052  11.208  0.00  0.00     0.181 A 
HETATM    5  C   UNK N   1      20.601  13.755   9.723  0.00  0.00     0.070 A 
HETATM    6  C   UNK N   1      22.337  12.231  11.255  0.00  0.00     0.060 A 
HETATM    7  C   UNK N   1      22.817  13.037  10.278  0.00  0.00     0.062 A 
HETATM    8  N   UNK N   1      23.355  11.598  11.856  0.00  0.00    -0.351 N 
ATOM      9  HN  UNK N   1      23.309  10.929  12.624  1.00  0.00     0.166 HD
HETATM   10  N   UNK N   1      24.152  12.942  10.229  0.00  0.00    -0.350 N 
HETATM   11  H   UNK N   1      24.769  13.411   9.621  0.00  0.00     0.166 HD
ENDROOT
BRANCH   5  12
HETATM   12  O   UNK N   1      19.777  14.509   8.960  0.00  0.00    -0.356 OA
HETATM   13  C   UNK N   1      19.865  15.880   8.882  0.00  0.00     0.210 C 
ENDBRANCH   5  12
TORSDOF 1
ENDMDL
MODEL 2
REMARK VINA RESULT:      -4.9     19.641     20.604
REMARK  1 active torsions:
REMARK  status: ('A' for Active; 'I' for Inactive)
REMARK    1  A    between atoms: O_12  and  C_6 
ROOT
HETATM    1  C   UNK N   1      25.219  27.926  -4.916  0.00  0.00     0.039 A 
HETATM    2  C   UNK N   1      24.935  26.903  -5.842  0.00  0.00     0.035 A 
HETATM    3  C   UNK N   1      26.484  26.355  -3.526  0.00  0.00     0.068 A 
HETATM    4  C   UNK N   1      25.990  23.577  -5.587  0.00  0.00     0.181 A 
HETATM    5  C   UNK N   1      25.996  27.655  -3.752  0.00  0.00     0.070 A 
HETATM    6  C   UNK N   1      25.442  25.637  -5.570  0.00  0.00     0.060 A 
HETATM    7  C   UNK N   1      26.182  25.377  -4.464  0.00  0.00     0.062 A 
HETATM    8  N   UNK N   1      25.308  24.518  -6.294  0.00  0.00    -0.351 N 
ATOM      9  HN  UNK N   1      24.807  24.399  -7.175  1.00  0.00     0.166 HD
HETATM   10  N   UNK N   1      26.538  24.087  -4.453  0.00  0.00    -0.350 N 
HETATM   11  H   UNK N   1      27.075  23.614  -3.776  0.00  0.00     0.166 HD
ENDROOT
BRANCH   5  12
HETATM   12  O   UNK N   1      26.280  28.621  -2.848  0.00  0.00    -0.356 OA
HETATM   13  C   UNK N   1      26.700  29.884  -3.200  0.00  0.00     0.210 C 
ENDBRANCH   5  12
TORSDOF 1
ENDMDL
MODEL 3
REMARK VINA RESULT:      -4.8      1.514      2.321
REMARK  1 active torsions:
REMARK  status: ('A' for Active; 'I' for Inactive)
REMARK    1  A    between atoms: O_12  and  C_6 
ROOT
HETATM    1  C   UNK N   1      22.785  13.420   8.409  0.00  0.00     0.039 A 
HETATM    2  C   UNK N   1      23.821  13.092   9.306  0.00  0.00     0.035 A 
HETATM    3  C   UNK N   1      21.106  12.717  10.048  0.00  0.00     0.068 A 
HETATM    4  C   UNK N   1      23.390  11.794  12.527  0.00  0.00     0.181 A 
HETATM    5  C   UNK N   1      21.421  13.234   8.777  0.00  0.00     0.070 A 
HETATM    6  C   UNK N   1      23.454  12.586  10.548  0.00  0.00     0.060 A 
HETATM    7  C   UNK N   1      22.157  12.407  10.900  0.00  0.00     0.062 A 
HETATM    8  N   UNK N   1      24.250  12.206  11.556  0.00  0.00    -0.351 N 
ATOM      9  HN  UNK N   1      25.269  12.223  11.589  1.00  0.00     0.166 HD
HETATM   10  N   UNK N   1      22.092  11.910  12.142  0.00  0.00    -0.350 N 
HETATM   11  H   UNK N   1      21.285  11.681  12.659  0.00  0.00     0.166 HD
ENDROOT
BRANCH   5  12
HETATM   12  O   UNK N   1      20.410  13.541   7.933  0.00  0.00    -0.356 OA
HETATM   13  C   UNK N   1      20.608  13.918   6.624  0.00  0.00     0.210 C 
ENDBRANCH   5  12
TORSDOF 1
ENDMDL
MODEL 4
REMARK VINA RESULT:      -4.6     13.346     13.559
REMARK  1 active torsions:
REMARK  status: ('A' for Active; 'I' for Inactive)
REMARK    1  A    between atoms: O_12  and  C_6 
ROOT
HETATM    1  C   UNK N   1      34.700  15.694   6.904  0.00  0.00     0.039 A 
HETATM    2  C   UNK N   1      35.076  14.896   8.002  0.00  0.00     0.035 A 
HETATM    3  C   UNK N   1      34.494  17.652   8.361  0.00  0.00     0.068 A 
HETATM    4  C   UNK N   1      35.389  16.001  11.308  0.00  0.00     0.181 A 
HETATM    5  C   UNK N   1      34.407  17.078   7.079  0.00  0.00     0.070 A 
HETATM    6  C   UNK N   1      35.147  15.515   9.246  0.00  0.00     0.060 A 
HETATM    7  C   UNK N   1      34.868  16.830   9.415  0.00  0.00     0.062 A 
HETATM    8  N   UNK N   1      35.477  14.970  10.424  0.00  0.00    -0.351 N 
ATOM      9  HN  UNK N   1      35.737  14.003  10.616  1.00  0.00     0.166 HD
HETATM   10  N   UNK N   1      35.014  17.160  10.705  0.00  0.00    -0.350 N 
HETATM   11  H   UNK N   1      34.880  18.042  11.122  0.00  0.00     0.166 HD
ENDROOT
BRANCH   5  12
HETATM   12  O   UNK N   1      34.044  17.863   6.039  0.00  0.00    -0.356 OA
HETATM   13  C   UNK N   1      33.120  17.483   5.093  0.00  0.00     0.210 C 
ENDBRANCH   5  12
TORSDOF 1
ENDMDL
MODEL 5
REMARK VINA RESULT:      -4.6     12.537     13.481
REMARK  1 active torsions:
REMARK  status: ('A' for Active; 'I' for Inactive)
REMARK    1  A    between atoms: O_12  and  C_6 
ROOT
HETATM    1  C   UNK N   1      33.971  15.858   9.462  0.00  0.00     0.039 A 
HETATM    2  C   UNK N   1      33.813  14.640  10.153  0.00  0.00     0.035 A 
HETATM    3  C   UNK N   1      35.754  16.532  11.000  0.00  0.00     0.068 A 
HETATM    4  C   UNK N   1      35.655  13.637  12.955  0.00  0.00     0.181 A 
HETATM    5  C   UNK N   1      34.944  16.810   9.883  0.00  0.00     0.070 A 
HETATM    6  C   UNK N   1      34.640  14.417  11.249  0.00  0.00     0.060 A 
HETATM    7  C   UNK N   1      35.566  15.321  11.652  0.00  0.00     0.062 A 
HETATM    8  N   UNK N   1      34.677  13.347  12.054  0.00  0.00    -0.351 N 
ATOM      9  HN  UNK N   1      34.102  12.506  12.004  1.00  0.00     0.166 HD
HETATM   10  N   UNK N   1      36.217  14.853  12.723  0.00  0.00    -0.350 N 
HETATM   11  H   UNK N   1      36.940  15.290  13.230  0.00  0.00     0.166 HD
ENDROOT
BRANCH   5  12
HETATM   12  O   UNK N   1      35.113  17.986   9.235  0.00  0.00    -0.356 OA
HETATM   13  C   UNK N   1      34.422  18.325   8.094  0.00  0.00     0.210 C 
ENDBRANCH   5  12
TORSDOF 1
ENDMDL
MODEL 6
REMARK VINA RESULT:      -4.5     19.332     20.365
REMARK  1 active torsions:
REMARK  status: ('A' for Active; 'I' for Inactive)
REMARK    1  A    between atoms: O_12  and  C_6 
ROOT
HETATM    1  C   UNK N   1      26.360  24.254  -4.189  0.00  0.00     0.039 A 
HETATM    2  C   UNK N   1      26.716  25.261  -3.270  0.00  0.00     0.035 A 
HETATM    3  C   UNK N   1      25.300  25.917  -5.642  0.00  0.00     0.068 A 
HETATM    4  C   UNK N   1      26.005  28.671  -3.610  0.00  0.00     0.181 A 
HETATM    5  C   UNK N   1      25.649  24.578  -5.381  0.00  0.00     0.070 A 
HETATM    6  C   UNK N   1      26.345  26.566  -3.578  0.00  0.00     0.060 A 
HETATM    7  C   UNK N   1      25.670  26.877  -4.710  0.00  0.00     0.062 A 
HETATM    8  N   UNK N   1      26.569  27.680  -2.867  0.00  0.00    -0.351 N 
ATOM      9  HN  UNK N   1      27.052  27.765  -1.973  1.00  0.00     0.166 HD
HETATM   10  N   UNK N   1      25.444  28.196  -4.753  0.00  0.00    -0.350 N 
HETATM   11  H   UNK N   1      24.977  28.707  -5.454  0.00  0.00     0.166 HD
ENDROOT
BRANCH   5  12
HETATM   12  O   UNK N   1      25.297  23.629  -6.278  0.00  0.00    -0.356 OA
HETATM   13  C   UNK N   1      26.198  22.762  -6.851  0.00  0.00     0.210 C 
ENDBRANCH   5  12
TORSDOF 1
ENDMDL
MODEL 7
REMARK VINA RESULT:      -4.4     14.393     15.010
REMARK  1 active torsions:
REMARK  status: ('A' for Active; 'I' for Inactive)
REMARK    1  A    between atoms: O_12  and  C_6 
ROOT
HETATM    1  C   UNK N   1      34.919  11.074  15.646  0.00  0.00     0.039 A 
HETATM    2  C   UNK N   1      35.123  10.511  16.921  0.00  0.00     0.035 A 
HETATM    3  C   UNK N   1      34.924  13.327  16.609  0.00  0.00     0.068 A 
HETATM    4  C   UNK N   1      35.431  12.302  19.911  0.00  0.00     0.181 A 
HETATM    5  C   UNK N   1      34.818  12.487  15.484  0.00  0.00     0.070 A 
HETATM    6  C   UNK N   1      35.221  11.387  17.997  0.00  0.00     0.060 A 
HETATM    7  C   UNK N   1      35.126  12.730  17.847  0.00  0.00     0.062 A 
HETATM    8  N   UNK N   1      35.413  11.092  19.290  0.00  0.00    -0.351 N 
ATOM      9  HN  UNK N   1      35.522  10.169  19.711  1.00  0.00     0.166 HD
HETATM   10  N   UNK N   1      35.255  13.328  19.037  0.00  0.00    -0.350 N 
HETATM   11  H   UNK N   1      35.228  14.292  19.235  0.00  0.00     0.166 HD
ENDROOT
BRANCH   5  12
HETATM   12  O   UNK N   1      34.622  13.050  14.270  0.00  0.00    -0.356 OA
HETATM   13  C   UNK N   1      35.603  13.731  13.587  0.00  0.00     0.210 C 
ENDBRANCH   5  12
TORSDOF 1
ENDMDL
MODEL 8
REMARK VINA RESULT:      -4.4     21.217     22.262
REMARK  1 active torsions:
REMARK  status: ('A' for Active; 'I' for Inactive)
REMARK    1  A    between atoms: O_12  and  C_6 
ROOT
HETATM    1  C   UNK N   1      26.853  27.145  -7.012  0.00  0.00     0.039 A 
HETATM    2  C   UNK N   1      27.420  28.338  -6.523  0.00  0.00     0.035 A 
HETATM    3  C   UNK N   1      25.384  27.009  -5.056  0.00  0.00     0.068 A 
HETATM    4  C   UNK N   1      26.546  29.931  -3.533  0.00  0.00     0.181 A 
HETATM    5  C   UNK N   1      25.830  26.474  -6.280  0.00  0.00     0.070 A 
HETATM    6  C   UNK N   1      26.942  28.822  -5.310  0.00  0.00     0.060 A 
HETATM    7  C   UNK N   1      25.970  28.186  -4.611  0.00  0.00     0.062 A 
HETATM    8  N   UNK N   1      27.322  29.924  -4.651  0.00  0.00    -0.351 N 
ATOM      9  HN  UNK N   1      28.031  30.604  -4.925  1.00  0.00     0.166 HD
HETATM   10  N   UNK N   1      25.704  28.866  -3.489  0.00  0.00    -0.350 N 
HETATM   11  H   UNK N   1      25.047  28.643  -2.790  0.00  0.00     0.166 HD
ENDROOT
BRANCH   5  12
HETATM   12  O   UNK N   1      25.271  25.328  -6.729  0.00  0.00    -0.356 OA
HETATM   13  C   UNK N   1      25.922  24.446  -7.561  0.00  0.00     0.210 C 
ENDBRANCH   5  12
TORSDOF 1
ENDMDL
MODEL 9
REMARK VINA RESULT:      -4.2      9.905     11.169
REMARK  1 active torsions:
REMARK  status: ('A' for Active; 'I' for Inactive)
REMARK    1  A    between atoms: O_12  and  C_6 
ROOT
HETATM    1  C   UNK N   1      30.405  17.120   6.279  0.00  0.00     0.039 A 
HETATM    2  C   UNK N   1      31.773  17.138   5.942  0.00  0.00     0.035 A 
HETATM    3  C   UNK N   1      30.944  17.656   8.608  0.00  0.00     0.068 A 
HETATM    4  C   UNK N   1      34.406  17.788   8.153  0.00  0.00     0.181 A 
HETATM    5  C   UNK N   1      29.984  17.379   7.616  0.00  0.00     0.070 A 
HETATM    6  C   UNK N   1      32.678  17.417   6.960  0.00  0.00     0.060 A 
HETATM    7  C   UNK N   1      32.281  17.664   8.232  0.00  0.00     0.062 A 
HETATM    8  N   UNK N   1      34.014  17.489   6.885  0.00  0.00    -0.351 N 
ATOM      9  HN  UNK N   1      34.602  17.352   6.064  1.00  0.00     0.166 HD
HETATM   10  N   UNK N   1      33.351  17.900   9.002  0.00  0.00    -0.350 N 
HETATM   11  H   UNK N   1      33.368  18.108   9.964  0.00  0.00     0.166 HD
ENDROOT
BRANCH   5  12
HETATM   12  O   UNK N   1      28.677  17.367   7.963  0.00  0.00    -0.356 OA
HETATM   13  C   UNK N   1      28.230  17.675   9.227  0.00  0.00     0.210 C 
ENDBRANCH   5  12
TORSDOF 1
ENDMDL
