REMARK  1 active torsions:
REMARK  status: ('A' for Active; 'I' for Inactive)
REMARK    1  A    between atoms: C_8  and  O_10 
ROOT
HETATM    1  C   UNK N   1      -0.677   0.797  -0.363  0.00  0.00     0.310 C 
HETATM    2  C   UNK N   1       0.110  -1.225   1.643  0.00  0.00     0.038 C 
HETATM    3  C   UNK N   1      -0.313  -2.035   0.429  0.00  0.00     0.038 C 
HETATM    4  C   UNK N   1       2.457  -0.687   1.099  0.00  0.00     0.067 C 
HETATM    5  C   UNK N   1       1.728  -2.028  -0.964  0.00  0.00     0.067 C 
HETATM    6  C   UNK N   1       1.015  -0.141   1.070  0.00  0.00     0.225 C 
HETATM    7  C   UNK N   1       0.367  -1.338  -0.744  0.00  0.00     0.225 C 
HETATM    8  C   UNK N   1       2.883  -1.314  -0.240  0.00  0.00     0.122 C 
HETATM    9  N   UNK N   1       0.583   0.056  -0.322  0.00  0.00     0.093 N 
ENDROOT
BRANCH   8  10
HETATM   10  O   UNK N   1       3.935  -2.205  -0.033  0.00  0.00    -0.395 OA
HETATM   11  H   UNK N   1       3.764  -3.149   0.111  0.00  0.00     0.210 HD
ENDBRANCH   8  10
TORSDOF 1
