MODEL 1
REMARK VINA RESULT:      -5.1      0.000      0.000
REMARK  14 active torsions:
REMARK  status: ('A' for Active; 'I' for Inactive)
REMARK    1  A    between atoms: C_2  and  C_1 
REMARK    2  A    between atoms: C_5  and  C_1 
REMARK    3  A    between atoms: S_17  and  C_2 
REMARK    4  A    between atoms: C_6  and  C_3 
REMARK    5  A    between atoms: O_11  and  C_3 
REMARK    6  A    between atoms: C_7  and  C_4 
REMARK    7  A    between atoms: S_17  and  C_4 
REMARK    8  A    between atoms: C_9  and  C_5 
REMARK    9  A    between atoms: C_5  and  N_10 
REMARK   10  A    between atoms: C_8  and  C_6 
REMARK   11  A    between atoms: C_8  and  C_7 
REMARK   12  A    between atoms: C_7  and  O_13 
REMARK   13  A    between atoms: C_8  and  O_14 
REMARK   14  A    between atoms: O_16  and  C_9 
ROOT
HETATM    1  C   UNK N   1      21.751  16.622   6.668  0.00  0.00     0.108 C 
ENDROOT
BRANCH   1   2
HETATM    2  C   UNK N   1      20.462  17.266   7.184  0.00  0.00     0.163 C 
BRANCH   2   3
HETATM    3  C   UNK N   1      19.819  16.486   8.348  0.00  0.00     0.219 C 
BRANCH   3   4
HETATM    4  C   UNK N   1      18.389  16.939   8.574  0.00  0.00     0.181 C 
HETATM    5  O   UNK N   1      17.514  16.604   7.791  0.00  0.00    -0.293 OA
BRANCH   4   6
HETATM    6  C   UNK N   1      18.012  17.780   9.757  0.00  0.00     0.245 C 
BRANCH   6   7
HETATM    7  O   UNK N   1      18.893  18.856   9.887  0.00  0.00    -0.393 OA
HETATM    8  H   UNK N   1      19.805  18.992   9.589  0.00  0.00     0.209 HD
ENDBRANCH   6   7
ENDBRANCH   4   6
ENDBRANCH   3   4
BRANCH   3   9
HETATM    9  O   UNK N   1      19.844  15.118   8.056  0.00  0.00    -0.385 OA
HETATM   10  H   UNK N   1      20.100  14.447   8.707  0.00  0.00     0.210 HD
ENDBRANCH   3   9
ENDBRANCH   2   3
BRANCH   2  11
HETATM   11  O   UNK N   1      20.707  18.591   7.550  0.00  0.00    -0.392 OA
HETATM   12  H   UNK N   1      20.281  19.355   7.129  0.00  0.00     0.210 HD
ENDBRANCH   2  11
ENDBRANCH   1   2
BRANCH   1  13
HETATM   13  S   UNK N   1      21.788  16.270   4.873  0.00  0.00    -0.166 SA
BRANCH  13  14
HETATM   14  C   UNK N   1      20.558  17.551   4.435  0.00  0.00     0.076 C 
BRANCH  14  15
HETATM   15  C   UNK N   1      21.150  18.593   3.486  0.00  0.00     0.045 C 
BRANCH  15  16
HETATM   16  C   UNK N   1      20.162  19.227   2.501  0.00  0.00     0.174 C 
BRANCH  16  17
HETATM   17  C   UNK N   1      20.818  20.067   1.437  0.00  0.00     0.163 C 
HETATM   18  O   UNK N   1      21.589  20.958   1.764  0.00  0.00    -0.648 OA
BRANCH  17  19
HETATM   19  O   UNK N   1      20.587  19.839   0.130  0.00  0.00    -0.775 OA
HETATM   20  H   UNK N   1      21.245  19.968  -0.524  0.00  0.00     0.167 HD
ENDBRANCH  17  19
ENDBRANCH  16  17
BRANCH  16  21
HETATM   21  N   UNK N   1      19.336  18.199   1.889  0.00  0.00    -0.418 N 
HETATM   22  H   UNK N   1      18.775  18.198   1.037  0.00  0.00     0.150 HD
HETATM   23  H   UNK N   1      19.313  17.319   2.404  0.00  0.00     0.150 HD
ENDBRANCH  16  21
ENDBRANCH  15  16
ENDBRANCH  14  15
ENDBRANCH  13  14
ENDBRANCH   1  13
TORSDOF 14
ENDMDL
MODEL 2
REMARK VINA RESULT:      -5.0     10.862     12.659
REMARK  14 active torsions:
REMARK  status: ('A' for Active; 'I' for Inactive)
REMARK    1  A    between atoms: C_2  and  C_1 
REMARK    2  A    between atoms: C_5  and  C_1 
REMARK    3  A    between atoms: S_17  and  C_2 
REMARK    4  A    between atoms: C_6  and  C_3 
REMARK    5  A    between atoms: O_11  and  C_3 
REMARK    6  A    between atoms: C_7  and  C_4 
REMARK    7  A    between atoms: S_17  and  C_4 
REMARK    8  A    between atoms: C_9  and  C_5 
REMARK    9  A    between atoms: C_5  and  N_10 
REMARK   10  A    between atoms: C_8  and  C_6 
REMARK   11  A    between atoms: C_8  and  C_7 
REMARK   12  A    between atoms: C_7  and  O_13 
REMARK   13  A    between atoms: C_8  and  O_14 
REMARK   14  A    between atoms: O_16  and  C_9 
ROOT
HETATM    1  C   UNK N   1      32.101  17.145   6.147  0.00  0.00     0.108 C 
ENDROOT
BRANCH   1   2
HETATM    2  C   UNK N   1      33.236  17.702   7.011  0.00  0.00     0.163 C 
BRANCH   2   3
HETATM    3  C   UNK N   1      33.296  17.068   8.414  0.00  0.00     0.219 C 
BRANCH   3   4
HETATM    4  C   UNK N   1      34.593  17.432   9.113  0.00  0.00     0.181 C 
HETATM    5  O   UNK N   1      35.150  18.485   8.849  0.00  0.00    -0.293 OA
BRANCH   4   6
HETATM    6  C   UNK N   1      35.205  16.532  10.145  0.00  0.00     0.245 C 
BRANCH   6   7
HETATM    7  O   UNK N   1      34.207  15.874  10.867  0.00  0.00    -0.393 OA
HETATM    8  H   UNK N   1      34.242  15.246  11.604  0.00  0.00     0.209 HD
ENDBRANCH   6   7
ENDBRANCH   4   6
ENDBRANCH   3   4
BRANCH   3   9
HETATM    9  O   UNK N   1      32.207  17.516   9.169  0.00  0.00    -0.385 OA
HETATM   10  H   UNK N   1      31.636  18.245   8.883  0.00  0.00     0.210 HD
ENDBRANCH   3   9
ENDBRANCH   2   3
BRANCH   2  11
HETATM   11  O   UNK N   1      34.455  17.551   6.345  0.00  0.00    -0.392 OA
HETATM   12  H   UNK N   1      34.956  16.721   6.319  0.00  0.00     0.210 HD
ENDBRANCH   2  11
ENDBRANCH   1   2
BRANCH   1  13
HETATM   13  S   UNK N   1      31.569  15.442   6.553  0.00  0.00    -0.166 SA
BRANCH  13  14
HETATM   14  C   UNK N   1      29.875  15.643   5.893  0.00  0.00     0.076 C 
BRANCH  14  15
HETATM   15  C   UNK N   1      29.337  17.050   6.151  0.00  0.00     0.045 C 
BRANCH  15  16
HETATM   16  C   UNK N   1      28.165  17.140   7.133  0.00  0.00     0.174 C 
BRANCH  16  17
HETATM   17  C   UNK N   1      28.464  17.951   8.366  0.00  0.00     0.163 C 
HETATM   18  O   UNK N   1      29.555  18.493   8.479  0.00  0.00    -0.648 OA
BRANCH  17  19
HETATM   19  O   UNK N   1      27.544  18.108   9.337  0.00  0.00    -0.775 OA
HETATM   20  H   UNK N   1      26.943  17.428   9.570  0.00  0.00     0.167 HD
ENDBRANCH  17  19
ENDBRANCH  16  17
BRANCH  16  21
HETATM   21  N   UNK N   1      26.988  17.667   6.461  0.00  0.00    -0.418 N 
HETATM   22  H   UNK N   1      26.048  17.873   6.801  0.00  0.00     0.150 HD
HETATM   23  H   UNK N   1      27.127  17.869   5.471  0.00  0.00     0.150 HD
ENDBRANCH  16  21
ENDBRANCH  15  16
ENDBRANCH  14  15
ENDBRANCH  13  14
ENDBRANCH   1  13
TORSDOF 14
ENDMDL
MODEL 3
REMARK VINA RESULT:      -5.0     12.851     14.593
REMARK  14 active torsions:
REMARK  status: ('A' for Active; 'I' for Inactive)
REMARK    1  A    between atoms: C_2  and  C_1 
REMARK    2  A    between atoms: C_5  and  C_1 
REMARK    3  A    between atoms: S_17  and  C_2 
REMARK    4  A    between atoms: C_6  and  C_3 
REMARK    5  A    between atoms: O_11  and  C_3 
REMARK    6  A    between atoms: C_7  and  C_4 
REMARK    7  A    between atoms: S_17  and  C_4 
REMARK    8  A    between atoms: C_9  and  C_5 
REMARK    9  A    between atoms: C_5  and  N_10 
REMARK   10  A    between atoms: C_8  and  C_6 
REMARK   11  A    between atoms: C_8  and  C_7 
REMARK   12  A    between atoms: C_7  and  O_13 
REMARK   13  A    between atoms: C_8  and  O_14 
REMARK   14  A    between atoms: O_16  and  C_9 
ROOT
HETATM    1  C   UNK N   1      34.618  16.418   8.399  0.00  0.00     0.108 C 
ENDROOT
BRANCH   1   2
HETATM    2  C   UNK N   1      34.600  16.429   9.930  0.00  0.00     0.163 C 
BRANCH   2   3
HETATM    3  C   UNK N   1      34.632  15.016  10.546  0.00  0.00     0.219 C 
BRANCH   3   4
HETATM    4  C   UNK N   1      35.894  14.814  11.363  0.00  0.00     0.181 C 
HETATM    5  O   UNK N   1      35.938  15.205  12.519  0.00  0.00    -0.293 OA
BRANCH   4   6
HETATM    6  C   UNK N   1      37.095  14.123  10.790  0.00  0.00     0.245 C 
BRANCH   6   7
HETATM    7  O   UNK N   1      37.903  15.038  10.112  0.00  0.00    -0.393 OA
HETATM    8  H   UNK N   1      38.857  15.066   9.942  0.00  0.00     0.209 HD
ENDBRANCH   6   7
ENDBRANCH   4   6
ENDBRANCH   3   4
BRANCH   3   9
HETATM    9  O   UNK N   1      33.506  14.843  11.358  0.00  0.00    -0.385 OA
HETATM   10  H   UNK N   1      33.499  14.247  12.123  0.00  0.00     0.210 HD
ENDBRANCH   3   9
ENDBRANCH   2   3
BRANCH   2  11
HETATM   11  O   UNK N   1      35.659  17.204  10.411  0.00  0.00    -0.392 OA
HETATM   12  H   UNK N   1      35.975  18.012   9.977  0.00  0.00     0.210 HD
ENDBRANCH   2  11
ENDBRANCH   1   2
BRANCH   1  13
HETATM   13  S   UNK N   1      34.092  17.977   7.598  0.00  0.00    -0.166 SA
BRANCH  13  14
HETATM   14  C   UNK N   1      32.361  17.446   7.336  0.00  0.00     0.076 C 
BRANCH  14  15
HETATM   15  C   UNK N   1      31.470  17.845   8.512  0.00  0.00     0.045 C 
BRANCH  15  16
HETATM   16  C   UNK N   1      30.017  17.365   8.432  0.00  0.00     0.174 C 
BRANCH  16  17
HETATM   17  C   UNK N   1      29.132  17.923   9.516  0.00  0.00     0.163 C 
HETATM   18  O   UNK N   1      27.936  17.669   9.505  0.00  0.00    -0.648 OA
BRANCH  17  19
HETATM   19  O   UNK N   1      29.639  18.679  10.508  0.00  0.00    -0.775 OA
HETATM   20  H   UNK N   1      29.848  18.324  11.350  0.00  0.00     0.167 HD
ENDBRANCH  17  19
ENDBRANCH  16  17
BRANCH  16  21
HETATM   21  N   UNK N   1      29.460  17.672   7.124  0.00  0.00    -0.418 N 
HETATM   22  H   UNK N   1      28.793  18.381   6.821  0.00  0.00     0.150 HD
HETATM   23  H   UNK N   1      29.797  17.068   6.375  0.00  0.00     0.150 HD
ENDBRANCH  16  21
ENDBRANCH  15  16
ENDBRANCH  14  15
ENDBRANCH  13  14
ENDBRANCH   1  13
TORSDOF 14
ENDMDL
MODEL 4
REMARK VINA RESULT:      -4.9     12.159     13.821
REMARK  14 active torsions:
REMARK  status: ('A' for Active; 'I' for Inactive)
REMARK    1  A    between atoms: C_2  and  C_1 
REMARK    2  A    between atoms: C_5  and  C_1 
REMARK    3  A    between atoms: S_17  and  C_2 
REMARK    4  A    between atoms: C_6  and  C_3 
REMARK    5  A    between atoms: O_11  and  C_3 
REMARK    6  A    between atoms: C_7  and  C_4 
REMARK    7  A    between atoms: S_17  and  C_4 
REMARK    8  A    between atoms: C_9  and  C_5 
REMARK    9  A    between atoms: C_5  and  N_10 
REMARK   10  A    between atoms: C_8  and  C_6 
REMARK   11  A    between atoms: C_8  and  C_7 
REMARK   12  A    between atoms: C_7  and  O_13 
REMARK   13  A    between atoms: C_8  and  O_14 
REMARK   14  A    between atoms: O_16  and  C_9 
ROOT
HETATM    1  C   UNK N   1      33.480  15.829   7.320  0.00  0.00     0.108 C 
ENDROOT
BRANCH   1   2
HETATM    2  C   UNK N   1      34.748  16.094   8.135  0.00  0.00     0.163 C 
BRANCH   2   3
HETATM    3  C   UNK N   1      34.464  16.749   9.501  0.00  0.00     0.219 C 
BRANCH   3   4
HETATM    4  C   UNK N   1      34.699  15.763  10.630  0.00  0.00     0.181 C 
HETATM    5  O   UNK N   1      33.924  14.835  10.798  0.00  0.00    -0.293 OA
BRANCH   4   6
HETATM    6  C   UNK N   1      35.883  15.886  11.542  0.00  0.00     0.245 C 
BRANCH   6   7
HETATM    7  O   UNK N   1      37.065  15.921  10.801  0.00  0.00    -0.393 OA
HETATM    8  H   UNK N   1      37.999  15.877  11.059  0.00  0.00     0.209 HD
ENDBRANCH   6   7
ENDBRANCH   4   6
ENDBRANCH   3   4
BRANCH   3   9
HETATM    9  O   UNK N   1      35.297  17.862   9.660  0.00  0.00    -0.385 OA
HETATM   10  H   UNK N   1      35.082  18.597  10.254  0.00  0.00     0.210 HD
ENDBRANCH   3   9
ENDBRANCH   2   3
BRANCH   2  11
HETATM   11  O   UNK N   1      35.467  14.906   8.294  0.00  0.00    -0.392 OA
HETATM   12  H   UNK N   1      35.297  14.264   9.002  0.00  0.00     0.210 HD
ENDBRANCH   2  11
ENDBRANCH   1   2
BRANCH   1  13
HETATM   13  S   UNK N   1      32.719  17.304   6.550  0.00  0.00    -0.166 SA
BRANCH  13  14
HETATM   14  C   UNK N   1      30.996  16.780   6.869  0.00  0.00     0.076 C 
BRANCH  14  15
HETATM   15  C   UNK N   1      30.607  16.996   8.331  0.00  0.00     0.045 C 
BRANCH  15  16
HETATM   16  C   UNK N   1      29.797  18.264   8.618  0.00  0.00     0.174 C 
BRANCH  16  17
HETATM   17  C   UNK N   1      28.322  18.118   8.348  0.00  0.00     0.163 C 
HETATM   18  O   UNK N   1      27.928  18.031   7.194  0.00  0.00    -0.648 OA
BRANCH  17  19
HETATM   19  O   UNK N   1      27.432  18.059   9.357  0.00  0.00    -0.775 OA
HETATM   20  H   UNK N   1      27.596  17.572  10.140  0.00  0.00     0.167 HD
ENDBRANCH  17  19
ENDBRANCH  16  17
BRANCH  16  21
HETATM   21  N   UNK N   1      30.014  18.697   9.989  0.00  0.00    -0.418 N 
HETATM   22  H   UNK N   1      29.376  19.077  10.689  0.00  0.00     0.150 HD
HETATM   23  H   UNK N   1      30.977  18.604  10.309  0.00  0.00     0.150 HD
ENDBRANCH  16  21
ENDBRANCH  15  16
ENDBRANCH  14  15
ENDBRANCH  13  14
ENDBRANCH   1  13
TORSDOF 14
ENDMDL
MODEL 5
REMARK VINA RESULT:      -4.9     14.928     16.273
REMARK  14 active torsions:
REMARK  status: ('A' for Active; 'I' for Inactive)
REMARK    1  A    between atoms: C_2  and  C_1 
REMARK    2  A    between atoms: C_5  and  C_1 
REMARK    3  A    between atoms: S_17  and  C_2 
REMARK    4  A    between atoms: C_6  and  C_3 
REMARK    5  A    between atoms: O_11  and  C_3 
REMARK    6  A    between atoms: C_7  and  C_4 
REMARK    7  A    between atoms: S_17  and  C_4 
REMARK    8  A    between atoms: C_9  and  C_5 
REMARK    9  A    between atoms: C_5  and  N_10 
REMARK   10  A    between atoms: C_8  and  C_6 
REMARK   11  A    between atoms: C_8  and  C_7 
REMARK   12  A    between atoms: C_7  and  O_13 
REMARK   13  A    between atoms: C_8  and  O_14 
REMARK   14  A    between atoms: O_16  and  C_9 
ROOT
HETATM    1  C   UNK N   1      36.073  13.428   9.088  0.00  0.00     0.108 C 
ENDROOT
BRANCH   1   2
HETATM    2  C   UNK N   1      36.081  14.145  10.440  0.00  0.00     0.163 C 
BRANCH   2   3
HETATM    3  C   UNK N   1      35.448  13.311  11.572  0.00  0.00     0.219 C 
BRANCH   3   4
HETATM    4  C   UNK N   1      36.461  13.035  12.667  0.00  0.00     0.181 C 
HETATM    5  O   UNK N   1      37.348  12.217  12.482  0.00  0.00    -0.293 OA
BRANCH   4   6
HETATM    6  C   UNK N   1      36.413  13.762  13.978  0.00  0.00     0.245 C 
BRANCH   6   7
HETATM    7  O   UNK N   1      36.743  15.106  13.799  0.00  0.00    -0.393 OA
HETATM    8  H   UNK N   1      36.884  15.644  13.005  0.00  0.00     0.209 HD
ENDBRANCH   6   7
ENDBRANCH   4   6
ENDBRANCH   3   4
BRANCH   3   9
HETATM    9  O   UNK N   1      34.354  14.006  12.099  0.00  0.00    -0.385 OA
HETATM   10  H   UNK N   1      34.165  14.042  13.049  0.00  0.00     0.210 HD
ENDBRANCH   3   9
ENDBRANCH   2   3
BRANCH   2  11
HETATM   11  O   UNK N   1      37.385  14.521  10.770  0.00  0.00    -0.392 OA
HETATM   12  H   UNK N   1      37.698  14.641  11.681  0.00  0.00     0.210 HD
ENDBRANCH   2  11
ENDBRANCH   1   2
BRANCH   1  13
HETATM   13  S   UNK N   1      35.597  14.461   7.655  0.00  0.00    -0.166 SA
BRANCH  13  14
HETATM   14  C   UNK N   1      33.812  14.474   8.055  0.00  0.00     0.076 C 
BRANCH  14  15
HETATM   15  C   UNK N   1      33.154  15.787   7.631  0.00  0.00     0.045 C 
BRANCH  15  16
HETATM   16  C   UNK N   1      33.523  17.013   8.472  0.00  0.00     0.174 C 
BRANCH  16  17
HETATM   17  C   UNK N   1      34.327  18.044   7.725  0.00  0.00     0.163 C 
HETATM   18  O   UNK N   1      34.411  17.974   6.507  0.00  0.00    -0.648 OA
BRANCH  17  19
HETATM   19  O   UNK N   1      34.938  19.055   8.373  0.00  0.00    -0.775 OA
HETATM   20  H   UNK N   1      34.463  19.681   8.882  0.00  0.00     0.167 HD
ENDBRANCH  17  19
ENDBRANCH  16  17
BRANCH  16  21
HETATM   21  N   UNK N   1      32.323  17.620   9.026  0.00  0.00    -0.418 N 
HETATM   22  H   UNK N   1      32.176  18.200   9.852  0.00  0.00     0.150 HD
HETATM   23  H   UNK N   1      31.475  17.433   8.491  0.00  0.00     0.150 HD
ENDBRANCH  16  21
ENDBRANCH  15  16
ENDBRANCH  14  15
ENDBRANCH  13  14
ENDBRANCH   1  13
TORSDOF 14
ENDMDL
MODEL 6
REMARK VINA RESULT:      -4.9     15.169     17.435
REMARK  14 active torsions:
REMARK  status: ('A' for Active; 'I' for Inactive)
REMARK    1  A    between atoms: C_2  and  C_1 
REMARK    2  A    between atoms: C_5  and  C_1 
REMARK    3  A    between atoms: S_17  and  C_2 
REMARK    4  A    between atoms: C_6  and  C_3 
REMARK    5  A    between atoms: O_11  and  C_3 
REMARK    6  A    between atoms: C_7  and  C_4 
REMARK    7  A    between atoms: S_17  and  C_4 
REMARK    8  A    between atoms: C_9  and  C_5 
REMARK    9  A    between atoms: C_5  and  N_10 
REMARK   10  A    between atoms: C_8  and  C_6 
REMARK   11  A    between atoms: C_8  and  C_7 
REMARK   12  A    between atoms: C_7  and  O_13 
REMARK   13  A    between atoms: C_8  and  O_14 
REMARK   14  A    between atoms: O_16  and  C_9 
ROOT
HETATM    1  C   UNK N   1      34.083  13.399   9.587  0.00  0.00     0.108 C 
ENDROOT
BRANCH   1   2
HETATM    2  C   UNK N   1      34.240  14.859  10.018  0.00  0.00     0.163 C 
BRANCH   2   3
HETATM    3  C   UNK N   1      34.023  15.858   8.865  0.00  0.00     0.219 C 
BRANCH   3   4
HETATM    4  C   UNK N   1      34.681  17.190   9.176  0.00  0.00     0.181 C 
HETATM    5  O   UNK N   1      35.376  17.305  10.173  0.00  0.00    -0.293 OA
BRANCH   4   6
HETATM    6  C   UNK N   1      34.515  18.374   8.272  0.00  0.00     0.245 C 
BRANCH   6   7
HETATM    7  O   UNK N   1      34.492  17.966   6.938  0.00  0.00    -0.393 OA
HETATM    8  H   UNK N   1      35.152  17.533   6.376  0.00  0.00     0.209 HD
ENDBRANCH   6   7
ENDBRANCH   4   6
ENDBRANCH   3   4
BRANCH   3   9
HETATM    9  O   UNK N   1      34.559  15.326   7.687  0.00  0.00    -0.385 OA
HETATM   10  H   UNK N   1      34.086  14.680   7.141  0.00  0.00     0.210 HD
ENDBRANCH   3   9
ENDBRANCH   2   3
BRANCH   2  11
HETATM   11  O   UNK N   1      33.379  15.134  11.083  0.00  0.00    -0.392 OA
HETATM   12  H   UNK N   1      33.114  14.477  11.746  0.00  0.00     0.210 HD
ENDBRANCH   2  11
ENDBRANCH   1   2
BRANCH   1  13
HETATM   13  S   UNK N   1      35.558  12.344   9.833  0.00  0.00    -0.166 SA
BRANCH  13  14
HETATM   14  C   UNK N   1      35.232  12.027  11.605  0.00  0.00     0.076 C 
BRANCH  14  15
HETATM   15  C   UNK N   1      36.246  12.743  12.497  0.00  0.00     0.045 C 
BRANCH  15  16
HETATM   16  C   UNK N   1      35.673  13.843  13.396  0.00  0.00     0.174 C 
BRANCH  16  17
HETATM   17  C   UNK N   1      35.556  13.446  14.845  0.00  0.00     0.163 C 
HETATM   18  O   UNK N   1      36.529  13.551  15.578  0.00  0.00    -0.648 OA
BRANCH  17  19
HETATM   19  O   UNK N   1      34.391  12.997  15.351  0.00  0.00    -0.775 OA
HETATM   20  H   UNK N   1      33.660  13.563  15.501  0.00  0.00     0.167 HD
ENDBRANCH  17  19
ENDBRANCH  16  17
BRANCH  16  21
HETATM   21  N   UNK N   1      36.467  15.055  13.274  0.00  0.00    -0.418 N 
HETATM   22  H   UNK N   1      36.335  15.899  12.716  0.00  0.00     0.150 HD
HETATM   23  H   UNK N   1      37.309  15.063  13.849  0.00  0.00     0.150 HD
ENDBRANCH  16  21
ENDBRANCH  15  16
ENDBRANCH  14  15
ENDBRANCH  13  14
ENDBRANCH   1  13
TORSDOF 14
ENDMDL
MODEL 7
REMARK VINA RESULT:      -4.8     14.640     16.101
REMARK  14 active torsions:
REMARK  status: ('A' for Active; 'I' for Inactive)
REMARK    1  A    between atoms: C_2  and  C_1 
REMARK    2  A    between atoms: C_5  and  C_1 
REMARK    3  A    between atoms: S_17  and  C_2 
REMARK    4  A    between atoms: C_6  and  C_3 
REMARK    5  A    between atoms: O_11  and  C_3 
REMARK    6  A    between atoms: C_7  and  C_4 
REMARK    7  A    between atoms: S_17  and  C_4 
REMARK    8  A    between atoms: C_9  and  C_5 
REMARK    9  A    between atoms: C_5  and  N_10 
REMARK   10  A    between atoms: C_8  and  C_6 
REMARK   11  A    between atoms: C_8  and  C_7 
REMARK   12  A    between atoms: C_7  and  O_13 
REMARK   13  A    between atoms: C_8  and  O_14 
REMARK   14  A    between atoms: O_16  and  C_9 
ROOT
HETATM    1  C   UNK N   1      35.707  14.767  10.009  0.00  0.00     0.108 C 
ENDROOT
BRANCH   1   2
HETATM    2  C   UNK N   1      35.041  14.221  11.274  0.00  0.00     0.163 C 
BRANCH   2   3
HETATM    3  C   UNK N   1      35.903  14.402  12.540  0.00  0.00     0.219 C 
BRANCH   3   4
HETATM    4  C   UNK N   1      35.408  13.506  13.660  0.00  0.00     0.181 C 
HETATM    5  O   UNK N   1      34.489  12.730  13.456  0.00  0.00    -0.293 OA
BRANCH   4   6
HETATM    6  C   UNK N   1      36.038  13.535  15.020  0.00  0.00     0.245 C 
BRANCH   6   7
HETATM    7  O   UNK N   1      37.393  13.209  14.934  0.00  0.00    -0.393 OA
HETATM    8  H   UNK N   1      38.197  13.749  14.967  0.00  0.00     0.209 HD
ENDBRANCH   6   7
ENDBRANCH   4   6
ENDBRANCH   3   4
BRANCH   3   9
HETATM    9  O   UNK N   1      37.234  14.096  12.238  0.00  0.00    -0.385 OA
HETATM   10  H   UNK N   1      37.722  14.530  11.521  0.00  0.00     0.210 HD
ENDBRANCH   3   9
ENDBRANCH   2   3
BRANCH   2  11
HETATM   11  O   UNK N   1      33.784  14.809  11.441  0.00  0.00    -0.392 OA
HETATM   12  H   UNK N   1      33.545  15.363  12.200  0.00  0.00     0.210 HD
ENDBRANCH   2  11
ENDBRANCH   1   2
BRANCH   1  13
HETATM   13  S   UNK N   1      35.866  13.575   8.629  0.00  0.00    -0.166 SA
BRANCH  13  14
HETATM   14  C   UNK N   1      35.089  14.669   7.385  0.00  0.00     0.076 C 
BRANCH  14  15
HETATM   15  C   UNK N   1      34.431  15.883   8.040  0.00  0.00     0.045 C 
BRANCH  15  16
HETATM   16  C   UNK N   1      32.899  15.877   8.054  0.00  0.00     0.174 C 
BRANCH  16  17
HETATM   17  C   UNK N   1      32.296  14.497   8.025  0.00  0.00     0.163 C 
HETATM   18  O   UNK N   1      31.845  14.060   6.975  0.00  0.00    -0.648 OA
BRANCH  17  19
HETATM   19  O   UNK N   1      32.264  13.727   9.129  0.00  0.00    -0.775 OA
HETATM   20  H   UNK N   1      33.031  13.550   9.637  0.00  0.00     0.167 HD
ENDBRANCH  17  19
ENDBRANCH  16  17
BRANCH  16  21
HETATM   21  N   UNK N   1      32.405  16.614   9.206  0.00  0.00    -0.418 N 
HETATM   22  H   UNK N   1      32.855  17.292   9.821  0.00  0.00     0.150 HD
HETATM   23  H   UNK N   1      31.433  16.417   9.442  0.00  0.00     0.150 HD
ENDBRANCH  16  21
ENDBRANCH  15  16
ENDBRANCH  14  15
ENDBRANCH  13  14
ENDBRANCH   1  13
TORSDOF 14
ENDMDL
MODEL 8
REMARK VINA RESULT:      -4.7      1.606      2.499
REMARK  14 active torsions:
REMARK  status: ('A' for Active; 'I' for Inactive)
REMARK    1  A    between atoms: C_2  and  C_1 
REMARK    2  A    between atoms: C_5  and  C_1 
REMARK    3  A    between atoms: S_17  and  C_2 
REMARK    4  A    between atoms: C_6  and  C_3 
REMARK    5  A    between atoms: O_11  and  C_3 
REMARK    6  A    between atoms: C_7  and  C_4 
REMARK    7  A    between atoms: S_17  and  C_4 
REMARK    8  A    between atoms: C_9  and  C_5 
REMARK    9  A    between atoms: C_5  and  N_10 
REMARK   10  A    between atoms: C_8  and  C_6 
REMARK   11  A    between atoms: C_8  and  C_7 
REMARK   12  A    between atoms: C_7  and  O_13 
REMARK   13  A    between atoms: C_8  and  O_14 
REMARK   14  A    between atoms: O_16  and  C_9 
ROOT
HETATM    1  C   UNK N   1      20.007  15.706   4.716  0.00  0.00     0.108 C 
ENDROOT
BRANCH   1   2
HETATM    2  C   UNK N   1      20.426  15.689   6.188  0.00  0.00     0.163 C 
BRANCH   2   3
HETATM    3  C   UNK N   1      20.295  17.064   6.872  0.00  0.00     0.219 C 
BRANCH   3   4
HETATM    4  C   UNK N   1      19.971  16.902   8.346  0.00  0.00     0.181 C 
HETATM    5  O   UNK N   1      20.817  16.464   9.109  0.00  0.00    -0.293 OA
BRANCH   4   6
HETATM    6  C   UNK N   1      18.632  17.289   8.899  0.00  0.00     0.245 C 
BRANCH   6   7
HETATM    7  O   UNK N   1      17.613  16.639   8.201  0.00  0.00    -0.393 OA
HETATM    8  H   UNK N   1      16.687  16.870   8.032  0.00  0.00     0.209 HD
ENDBRANCH   6   7
ENDBRANCH   4   6
ENDBRANCH   3   4
BRANCH   3   9
HETATM    9  O   UNK N   1      21.494  17.769   6.723  0.00  0.00    -0.385 OA
HETATM   10  H   UNK N   1      22.358  17.330   6.680  0.00  0.00     0.210 HD
ENDBRANCH   3   9
ENDBRANCH   2   3
BRANCH   2  11
HETATM   11  O   UNK N   1      19.694  14.719   6.878  0.00  0.00    -0.392 OA
HETATM   12  H   UNK N   1      20.084  14.101   7.516  0.00  0.00     0.210 HD
ENDBRANCH   2  11
ENDBRANCH   1   2
BRANCH   1  13
HETATM   13  S   UNK N   1      21.371  15.514   3.510  0.00  0.00    -0.166 SA
BRANCH  13  14
HETATM   14  C   UNK N   1      20.792  16.850   2.402  0.00  0.00     0.076 C 
BRANCH  14  15
HETATM   15  C   UNK N   1      19.750  17.733   3.087  0.00  0.00     0.045 C 
BRANCH  15  16
HETATM   16  C   UNK N   1      19.750  19.205   2.663  0.00  0.00     0.174 C 
BRANCH  16  17
HETATM   17  C   UNK N   1      20.617  20.086   3.524  0.00  0.00     0.163 C 
HETATM   18  O   UNK N   1      20.902  19.727   4.658  0.00  0.00    -0.648 OA
BRANCH  17  19
HETATM   19  O   UNK N   1      21.103  21.253   3.059  0.00  0.00    -0.775 OA
HETATM   20  H   UNK N   1      21.551  21.317   2.239  0.00  0.00     0.167 HD
ENDBRANCH  17  19
ENDBRANCH  16  17
BRANCH  16  21
HETATM   21  N   UNK N   1      20.145  19.325   1.269  0.00  0.00    -0.418 N 
HETATM   22  H   UNK N   1      20.291  18.624   0.543  0.00  0.00     0.150 HD
HETATM   23  H   UNK N   1      20.304  20.284   0.961  0.00  0.00     0.150 HD
ENDBRANCH  16  21
ENDBRANCH  15  16
ENDBRANCH  14  15
ENDBRANCH  13  14
ENDBRANCH   1  13
TORSDOF 14
ENDMDL
MODEL 9
REMARK VINA RESULT:      -4.7      4.404      6.197
REMARK  14 active torsions:
REMARK  status: ('A' for Active; 'I' for Inactive)
REMARK    1  A    between atoms: C_2  and  C_1 
REMARK    2  A    between atoms: C_5  and  C_1 
REMARK    3  A    between atoms: S_17  and  C_2 
REMARK    4  A    between atoms: C_6  and  C_3 
REMARK    5  A    between atoms: O_11  and  C_3 
REMARK    6  A    between atoms: C_7  and  C_4 
REMARK    7  A    between atoms: S_17  and  C_4 
REMARK    8  A    between atoms: C_9  and  C_5 
REMARK    9  A    between atoms: C_5  and  N_10 
REMARK   10  A    between atoms: C_8  and  C_6 
REMARK   11  A    between atoms: C_8  and  C_7 
REMARK   12  A    between atoms: C_7  and  O_13 
REMARK   13  A    between atoms: C_8  and  O_14 
REMARK   14  A    between atoms: O_16  and  C_9 
ROOT
HETATM    1  C   UNK N   1      23.665  17.839   4.088  0.00  0.00     0.108 C 
ENDROOT
BRANCH   1   2
HETATM    2  C   UNK N   1      25.123  18.255   4.303  0.00  0.00     0.163 C 
BRANCH   2   3
HETATM    3  C   UNK N   1      25.340  19.778   4.202  0.00  0.00     0.219 C 
BRANCH   3   4
HETATM    4  C   UNK N   1      26.434  20.228   5.152  0.00  0.00     0.181 C 
HETATM    5  O   UNK N   1      26.149  20.572   6.288  0.00  0.00    -0.293 OA
BRANCH   4   6
HETATM    6  C   UNK N   1      27.874  20.244   4.734  0.00  0.00     0.245 C 
BRANCH   6   7
HETATM    7  O   UNK N   1      28.216  19.034   4.128  0.00  0.00    -0.393 OA
HETATM    8  H   UNK N   1      28.801  18.310   4.399  0.00  0.00     0.209 HD
ENDBRANCH   6   7
ENDBRANCH   4   6
ENDBRANCH   3   4
BRANCH   3   9
HETATM    9  O   UNK N   1      25.685  20.108   2.887  0.00  0.00    -0.385 OA
HETATM   10  H   UNK N   1      25.827  21.021   2.597  0.00  0.00     0.210 HD
ENDBRANCH   3   9
ENDBRANCH   2   3
BRANCH   2  11
HETATM   11  O   UNK N   1      25.578  17.768   5.531  0.00  0.00    -0.392 OA
HETATM   12  H   UNK N   1      26.250  17.073   5.620  0.00  0.00     0.210 HD
ENDBRANCH   2  11
ENDBRANCH   1   2
BRANCH   1  13
HETATM   13  S   UNK N   1      22.540  18.168   5.493  0.00  0.00    -0.166 SA
BRANCH  13  14
HETATM   14  C   UNK N   1      21.169  18.793   4.456  0.00  0.00     0.076 C 
BRANCH  14  15
HETATM   15  C   UNK N   1      21.422  18.523   2.973  0.00  0.00     0.045 C 
BRANCH  15  16
HETATM   16  C   UNK N   1      20.413  19.150   2.005  0.00  0.00     0.174 C 
BRANCH  16  17
HETATM   17  C   UNK N   1      20.947  20.344   1.258  0.00  0.00     0.163 C 
HETATM   18  O   UNK N   1      21.712  21.113   1.822  0.00  0.00    -0.648 OA
BRANCH  17  19
HETATM   19  O   UNK N   1      20.614  20.566  -0.028  0.00  0.00    -0.775 OA
HETATM   20  H   UNK N   1      20.722  19.914  -0.692  0.00  0.00     0.167 HD
ENDBRANCH  17  19
ENDBRANCH  16  17
BRANCH  16  21
HETATM   21  N   UNK N   1      19.928  18.149   1.068  0.00  0.00    -0.418 N 
HETATM   22  H   UNK N   1      19.276  18.211   0.287  0.00  0.00     0.150 HD
HETATM   23  H   UNK N   1      20.310  17.216   1.220  0.00  0.00     0.150 HD
ENDBRANCH  16  21
ENDBRANCH  15  16
ENDBRANCH  14  15
ENDBRANCH  13  14
ENDBRANCH   1  13
TORSDOF 14
ENDMDL
