MODEL 1
REMARK VINA RESULT:      -7.5      0.000      0.000
REMARK  13 active torsions:
REMARK  status: ('A' for Active; 'I' for Inactive)
REMARK    1  A    between atoms: O_1  and  C_2 
REMARK    2  A    between atoms: C_2  and  C_4 
REMARK    3  A    between atoms: C_8  and  O_9 
REMARK    4  A    between atoms: C_10  and  C_11 
REMARK    5  A    between atoms: C_11  and  C_13 
REMARK    6  A    between atoms: C_14  and  O_15 
REMARK    7  A    between atoms: C_17  and  C_21 
REMARK    8  A    between atoms: C_19  and  O_20 
REMARK    9  A    between atoms: C_21  and  O_23 
REMARK   10  A    between atoms: C_24  and  O_23 
REMARK   11  A    between atoms: C_30  and  N_31 
REMARK       I    between atoms: N_31  and  C_32 
REMARK   12  A    between atoms: C_32  and  C_34 
REMARK   13  A    between atoms: C_37  and  O_38 
ROOT
HETATM    1  C   UNK N   1      28.230  25.994  -4.423  0.00  0.00     0.081 C 
HETATM    2  C   UNK N   1      27.434  25.052  -3.712  0.00  0.00     0.083 C 
HETATM    3  C   UNK N   1      28.049  23.997  -3.029  0.00  0.00     0.055 C 
HETATM    4  C   UNK N   1      29.441  23.881  -3.055  0.00  0.00     0.044 C 
HETATM    5  C   UNK N   1      30.213  24.876  -3.630  0.00  0.00     0.055 C 
HETATM    6  C   UNK N   1      29.634  25.936  -4.281  0.00  0.00     0.083 C 
ENDROOT
BRANCH   4   7
HETATM    7  C   UNK N   1      30.143  22.716  -2.539  0.00  0.00     0.293 C 
HETATM    8  O   UNK N   1      30.706  22.798  -1.452  0.00  0.00    -0.259 OA
BRANCH   7   9
HETATM    9  O   UNK N   1      30.119  21.537  -3.198  0.00  0.00    -0.310 OA
BRANCH   9  10
HETATM   10  C   UNK N   1      31.235  21.181  -3.913  0.00  0.00     0.156 C 
HETATM   11  C   UNK N   1      32.508  21.652  -3.225  0.00  0.00     0.036 C 
HETATM   12  C   UNK N   1      33.663  20.660  -3.399  0.00  0.00     0.022 C 
HETATM   13  C   UNK N   1      33.717  19.982  -4.770  0.00  0.00     0.114 C 
HETATM   14  N   UNK N   1      33.476  20.946  -5.834  0.00  0.00    -0.419 N 
HETATM   15  C   UNK N   1      32.086  20.797  -6.248  0.00  0.00     0.141 C 
HETATM   16  H   UNK N   1      34.153  21.603  -6.219  0.00  0.00     0.153 HD
HETATM   17  C   UNK N   1      31.146  21.653  -5.388  0.00  0.00     0.131 C 
BRANCH  17  18
HETATM   18  N   UNK N   1      29.755  21.678  -5.872  0.00  0.00    -0.348 N 
HETATM   19  C   UNK N   1      29.141  22.620  -6.643  0.00  0.00     0.252 C 
HETATM   20  O   UNK N   1      29.741  23.637  -6.978  0.00  0.00    -0.268 OA
HETATM   21  H   UNK N   1      29.195  20.914  -5.603  0.00  0.00     0.163 HD
BRANCH  19  22
HETATM   22  C   UNK N   1      27.732  22.444  -7.093  0.00  0.00     0.032 A 
HETATM   23  C   UNK N   1      26.675  22.799  -6.240  0.00  0.00     0.020 A 
HETATM   24  C   UNK N   1      25.346  22.659  -6.649  0.00  0.00     0.037 A 
HETATM   25  C   UNK N   1      25.055  22.157  -7.919  0.00  0.00     0.065 A 
HETATM   26  C   UNK N   1      26.096  21.793  -8.779  0.00  0.00     0.037 A 
HETATM   27  C   UNK N   1      27.431  21.935  -8.370  0.00  0.00     0.020 A 
BRANCH  25  28
HETATM   28  O   UNK N   1      23.776  22.026  -8.311  0.00  0.00    -0.361 OA
HETATM   29  H   UNK N   1      23.499  22.360  -9.142  0.00  0.00     0.217 HD
ENDBRANCH  25  28
ENDBRANCH  19  22
ENDBRANCH  17  18
ENDBRANCH   9  10
ENDBRANCH   7   9
ENDBRANCH   4   7
BRANCH   2  30
HETATM   30  O   UNK N   1      26.091  25.138  -3.707  0.00  0.00    -0.360 OA
HETATM   31  H   UNK N   1      25.370  24.939  -4.272  0.00  0.00     0.217 HD
ENDBRANCH   2  30
BRANCH   6  32
HETATM   32  O   UNK N   1      30.446  26.856  -4.830  0.00  0.00    -0.360 OA
HETATM   33  H   UNK N   1      31.296  27.177  -4.602  0.00  0.00     0.217 HD
ENDBRANCH   6  32
BRANCH   1  34
HETATM   34  C   UNK N   1      27.660  27.014  -5.356  0.00  0.00     0.201 C 
HETATM   35  O   UNK N   1      27.751  28.183  -5.022  0.00  0.00    -0.286 OA
BRANCH  34  36
HETATM   36  C   UNK N   1      27.242  26.715  -6.784  0.00  0.00     0.065 A 
HETATM   37  C   UNK N   1      25.908  26.273  -7.083  0.00  0.00     0.081 A 
HETATM   38  C   UNK N   1      25.543  25.932  -8.382  0.00  0.00     0.037 A 
HETATM   39  C   UNK N   1      26.467  25.969  -9.409  0.00  0.00     0.004 A 
HETATM   40  C   UNK N   1      27.777  26.334  -9.145  0.00  0.00     0.019 A 
HETATM   41  C   UNK N   1      28.196  26.718  -7.863  0.00  0.00     0.054 A 
BRANCH  37  42
HETATM   42  O   UNK N   1      24.982  26.095  -6.128  0.00  0.00    -0.360 OA
HETATM   43  H   UNK N   1      24.861  25.268  -5.702  0.00  0.00     0.217 HD
ENDBRANCH  37  42
BRANCH  41  44
HETATM   44  C   UNK N   1      29.638  27.105  -7.757  0.00  0.00     0.177 C 
HETATM   45  O   UNK N   1      29.993  28.266  -7.652  0.00  0.00    -0.646 OA
BRANCH  44  46
HETATM   46  O   UNK N   1      30.585  26.149  -7.844  0.00  0.00    -0.773 OA
HETATM   47  H   UNK N   1      30.394  25.271  -7.583  0.00  0.00     0.167 HD
ENDBRANCH  44  46
ENDBRANCH  41  44
ENDBRANCH  34  36
ENDBRANCH   1  34
TORSDOF 13
ENDMDL
MODEL 2
REMARK VINA RESULT:      -7.4      0.855      2.056
REMARK  13 active torsions:
REMARK  status: ('A' for Active; 'I' for Inactive)
REMARK    1  A    between atoms: O_1  and  C_2 
REMARK    2  A    between atoms: C_2  and  C_4 
REMARK    3  A    between atoms: C_8  and  O_9 
REMARK    4  A    between atoms: C_10  and  C_11 
REMARK    5  A    between atoms: C_11  and  C_13 
REMARK    6  A    between atoms: C_14  and  O_15 
REMARK    7  A    between atoms: C_17  and  C_21 
REMARK    8  A    between atoms: C_19  and  O_20 
REMARK    9  A    between atoms: C_21  and  O_23 
REMARK   10  A    between atoms: C_24  and  O_23 
REMARK   11  A    between atoms: C_30  and  N_31 
REMARK       I    between atoms: N_31  and  C_32 
REMARK   12  A    between atoms: C_32  and  C_34 
REMARK   13  A    between atoms: C_37  and  O_38 
ROOT
HETATM    1  C   UNK N   1      28.855  25.531  -4.566  0.00  0.00     0.081 C 
HETATM    2  C   UNK N   1      28.127  24.660  -3.707  0.00  0.00     0.083 C 
HETATM    3  C   UNK N   1      28.774  23.572  -3.109  0.00  0.00     0.055 C 
HETATM    4  C   UNK N   1      30.130  23.354  -3.364  0.00  0.00     0.044 C 
HETATM    5  C   UNK N   1      30.861  24.282  -4.086  0.00  0.00     0.055 C 
HETATM    6  C   UNK N   1      30.256  25.372  -4.659  0.00  0.00     0.083 C 
ENDROOT
BRANCH   4   7
HETATM    7  C   UNK N   1      30.825  22.149  -2.942  0.00  0.00     0.293 C 
HETATM    8  O   UNK N   1      31.520  22.189  -1.931  0.00  0.00    -0.259 OA
BRANCH   7   9
HETATM    9  O   UNK N   1      30.657  20.979  -3.597  0.00  0.00    -0.310 OA
BRANCH   9  10
HETATM   10  C   UNK N   1      31.675  20.552  -4.413  0.00  0.00     0.156 C 
HETATM   11  C   UNK N   1      33.036  20.937  -3.852  0.00  0.00     0.036 C 
HETATM   12  C   UNK N   1      34.102  19.872  -4.129  0.00  0.00     0.022 C 
HETATM   13  C   UNK N   1      33.981  19.194  -5.496  0.00  0.00     0.114 C 
HETATM   14  N   UNK N   1      33.703  20.172  -6.537  0.00  0.00    -0.419 N 
HETATM   15  C   UNK N   1      32.274  20.115  -6.817  0.00  0.00     0.141 C 
HETATM   16  H   UNK N   1      34.383  20.784  -6.988  0.00  0.00     0.153 HD
HETATM   17  C   UNK N   1      31.477  21.030  -5.875  0.00  0.00     0.131 C 
BRANCH  17  18
HETATM   18  N   UNK N   1      30.051  21.146  -6.226  0.00  0.00    -0.348 N 
HETATM   19  C   UNK N   1      29.431  22.125  -6.944  0.00  0.00     0.252 C 
HETATM   20  O   UNK N   1      30.062  23.098  -7.345  0.00  0.00    -0.268 OA
HETATM   21  H   UNK N   1      29.470  20.423  -5.897  0.00  0.00     0.163 HD
BRANCH  19  22
HETATM   22  C   UNK N   1      27.976  22.042  -7.257  0.00  0.00     0.032 A 
HETATM   23  C   UNK N   1      27.056  22.788  -6.505  0.00  0.00     0.020 A 
HETATM   24  C   UNK N   1      25.688  22.740  -6.793  0.00  0.00     0.037 A 
HETATM   25  C   UNK N   1      25.223  21.938  -7.838  0.00  0.00     0.065 A 
HETATM   26  C   UNK N   1      26.126  21.183  -8.592  0.00  0.00     0.037 A 
HETATM   27  C   UNK N   1      27.500  21.234  -8.305  0.00  0.00     0.020 A 
BRANCH  25  28
HETATM   28  O   UNK N   1      23.908  21.896  -8.115  0.00  0.00    -0.361 OA
HETATM   29  H   UNK N   1      23.350  22.609  -7.873  0.00  0.00     0.217 HD
ENDBRANCH  25  28
ENDBRANCH  19  22
ENDBRANCH  17  18
ENDBRANCH   9  10
ENDBRANCH   7   9
ENDBRANCH   4   7
BRANCH   2  30
HETATM   30  O   UNK N   1      26.813  24.844  -3.479  0.00  0.00    -0.360 OA
HETATM   31  H   UNK N   1      26.080  25.262  -3.886  0.00  0.00     0.217 HD
ENDBRANCH   2  30
BRANCH   6  32
HETATM   32  O   UNK N   1      31.026  26.221  -5.361  0.00  0.00    -0.360 OA
HETATM   33  H   UNK N   1      31.229  26.297  -6.272  0.00  0.00     0.217 HD
ENDBRANCH   6  32
BRANCH   1  34
HETATM   34  C   UNK N   1      28.209  26.576  -5.418  0.00  0.00     0.201 C 
HETATM   35  O   UNK N   1      28.411  27.740  -5.116  0.00  0.00    -0.286 OA
BRANCH  34  36
HETATM   36  C   UNK N   1      27.568  26.294  -6.764  0.00  0.00     0.065 A 
HETATM   37  C   UNK N   1      28.374  26.104  -7.937  0.00  0.00     0.081 A 
HETATM   38  C   UNK N   1      27.787  25.915  -9.184  0.00  0.00     0.037 A 
HETATM   39  C   UNK N   1      26.413  25.947  -9.332  0.00  0.00     0.004 A 
HETATM   40  C   UNK N   1      25.607  26.186  -8.230  0.00  0.00     0.019 A 
HETATM   41  C   UNK N   1      26.140  26.353  -6.944  0.00  0.00     0.054 A 
BRANCH  37  42
HETATM   42  O   UNK N   1      29.715  26.178  -7.904  0.00  0.00    -0.360 OA
HETATM   43  H   UNK N   1      30.256  25.537  -8.322  0.00  0.00     0.217 HD
ENDBRANCH  37  42
BRANCH  41  44
HETATM   44  C   UNK N   1      25.129  26.579  -5.864  0.00  0.00     0.177 C 
HETATM   45  O   UNK N   1      24.800  27.697  -5.506  0.00  0.00    -0.646 OA
BRANCH  44  46
HETATM   46  O   UNK N   1      24.608  25.518  -5.216  0.00  0.00    -0.773 OA
HETATM   47  H   UNK N   1      25.155  24.799  -4.971  0.00  0.00     0.167 HD
ENDBRANCH  44  46
ENDBRANCH  41  44
ENDBRANCH  34  36
ENDBRANCH   1  34
TORSDOF 13
ENDMDL
MODEL 3
REMARK VINA RESULT:      -7.4      1.479      2.235
REMARK  13 active torsions:
REMARK  status: ('A' for Active; 'I' for Inactive)
REMARK    1  A    between atoms: O_1  and  C_2 
REMARK    2  A    between atoms: C_2  and  C_4 
REMARK    3  A    between atoms: C_8  and  O_9 
REMARK    4  A    between atoms: C_10  and  C_11 
REMARK    5  A    between atoms: C_11  and  C_13 
REMARK    6  A    between atoms: C_14  and  O_15 
REMARK    7  A    between atoms: C_17  and  C_21 
REMARK    8  A    between atoms: C_19  and  O_20 
REMARK    9  A    between atoms: C_21  and  O_23 
REMARK   10  A    between atoms: C_24  and  O_23 
REMARK   11  A    between atoms: C_30  and  N_31 
REMARK       I    between atoms: N_31  and  C_32 
REMARK   12  A    between atoms: C_32  and  C_34 
REMARK   13  A    between atoms: C_37  and  O_38 
ROOT
HETATM    1  C   UNK N   1      28.202  25.695  -4.362  0.00  0.00     0.081 C 
HETATM    2  C   UNK N   1      27.511  24.723  -3.585  0.00  0.00     0.083 C 
HETATM    3  C   UNK N   1      28.220  23.672  -2.992  0.00  0.00     0.055 C 
HETATM    4  C   UNK N   1      29.603  23.590  -3.173  0.00  0.00     0.044 C 
HETATM    5  C   UNK N   1      30.285  24.612  -3.811  0.00  0.00     0.055 C 
HETATM    6  C   UNK N   1      29.615  25.667  -4.376  0.00  0.00     0.083 C 
ENDROOT
BRANCH   4   7
HETATM    7  C   UNK N   1      30.382  22.434  -2.758  0.00  0.00     0.293 C 
HETATM    8  O   UNK N   1      31.105  22.531  -1.771  0.00  0.00    -0.259 OA
BRANCH   7   9
HETATM    9  O   UNK N   1      30.263  21.247  -3.392  0.00  0.00    -0.310 OA
BRANCH   9  10
HETATM   10  C   UNK N   1      31.324  20.820  -4.152  0.00  0.00     0.156 C 
HETATM   11  C   UNK N   1      32.651  21.253  -3.547  0.00  0.00     0.036 C 
HETATM   12  C   UNK N   1      33.751  20.206  -3.748  0.00  0.00     0.022 C 
HETATM   13  C   UNK N   1      33.703  19.485  -5.096  0.00  0.00     0.114 C 
HETATM   14  N   UNK N   1      33.447  20.425  -6.178  0.00  0.00    -0.419 N 
HETATM   15  C   UNK N   1      32.032  20.326  -6.514  0.00  0.00     0.141 C 
HETATM   16  H   UNK N   1      34.131  21.039  -6.619  0.00  0.00     0.153 HD
HETATM   17  C   UNK N   1      31.177  21.250  -5.635  0.00  0.00     0.131 C 
BRANCH  17  18
HETATM   18  N   UNK N   1      29.764  21.322  -6.047  0.00  0.00    -0.348 N 
HETATM   19  C   UNK N   1      29.132  22.311  -6.739  0.00  0.00     0.252 C 
HETATM   20  O   UNK N   1      29.734  23.333  -7.054  0.00  0.00    -0.268 OA
HETATM   21  H   UNK N   1      29.203  20.555  -5.788  0.00  0.00     0.163 HD
BRANCH  19  22
HETATM   22  C   UNK N   1      27.699  22.181  -7.127  0.00  0.00     0.032 A 
HETATM   23  C   UNK N   1      26.730  22.980  -6.500  0.00  0.00     0.020 A 
HETATM   24  C   UNK N   1      25.382  22.888  -6.861  0.00  0.00     0.037 A 
HETATM   25  C   UNK N   1      24.985  21.990  -7.853  0.00  0.00     0.065 A 
HETATM   26  C   UNK N   1      25.937  21.182  -8.482  0.00  0.00     0.037 A 
HETATM   27  C   UNK N   1      27.290  21.276  -8.123  0.00  0.00     0.020 A 
BRANCH  25  28
HETATM   28  O   UNK N   1      23.689  21.905  -8.200  0.00  0.00    -0.361 OA
HETATM   29  H   UNK N   1      23.308  21.075  -8.411  0.00  0.00     0.217 HD
ENDBRANCH  25  28
ENDBRANCH  19  22
ENDBRANCH  17  18
ENDBRANCH   9  10
ENDBRANCH   7   9
ENDBRANCH   4   7
BRANCH   2  30
HETATM   30  O   UNK N   1      26.174  24.778  -3.430  0.00  0.00    -0.360 OA
HETATM   31  H   UNK N   1      25.551  24.971  -2.758  0.00  0.00     0.217 HD
ENDBRANCH   2  30
BRANCH   6  32
HETATM   32  O   UNK N   1      30.341  26.614  -4.995  0.00  0.00    -0.360 OA
HETATM   33  H   UNK N   1      31.178  26.605  -5.417  0.00  0.00     0.217 HD
ENDBRANCH   6  32
BRANCH   1  34
HETATM   34  C   UNK N   1      27.511  26.715  -5.209  0.00  0.00     0.201 C 
HETATM   35  O   UNK N   1      26.813  26.299  -6.118  0.00  0.00    -0.286 OA
BRANCH  34  36
HETATM   36  C   UNK N   1      27.398  28.183  -4.844  0.00  0.00     0.065 A 
HETATM   37  C   UNK N   1      26.540  28.611  -3.775  0.00  0.00     0.081 A 
HETATM   38  C   UNK N   1      26.382  29.963  -3.484  0.00  0.00     0.037 A 
HETATM   39  C   UNK N   1      27.014  30.929  -4.243  0.00  0.00     0.004 A 
HETATM   40  C   UNK N   1      27.803  30.553  -5.318  0.00  0.00     0.019 A 
HETATM   41  C   UNK N   1      28.025  29.207  -5.641  0.00  0.00     0.054 A 
BRANCH  37  42
HETATM   42  O   UNK N   1      25.796  27.748  -3.064  0.00  0.00    -0.360 OA
HETATM   43  H   UNK N   1      26.076  27.421  -2.232  0.00  0.00     0.217 HD
ENDBRANCH  37  42
BRANCH  41  44
HETATM   44  C   UNK N   1      28.921  28.976  -6.817  0.00  0.00     0.177 C 
HETATM   45  O   UNK N   1      28.484  28.738  -7.930  0.00  0.00    -0.646 OA
BRANCH  44  46
HETATM   46  O   UNK N   1      30.256  28.964  -6.635  0.00  0.00    -0.773 OA
HETATM   47  H   UNK N   1      30.831  28.844  -7.364  0.00  0.00     0.167 HD
ENDBRANCH  44  46
ENDBRANCH  41  44
ENDBRANCH  34  36
ENDBRANCH   1  34
TORSDOF 13
ENDMDL
MODEL 4
REMARK VINA RESULT:      -7.2     16.619     20.875
REMARK  13 active torsions:
REMARK  status: ('A' for Active; 'I' for Inactive)
REMARK    1  A    between atoms: O_1  and  C_2 
REMARK    2  A    between atoms: C_2  and  C_4 
REMARK    3  A    between atoms: C_8  and  O_9 
REMARK    4  A    between atoms: C_10  and  C_11 
REMARK    5  A    between atoms: C_11  and  C_13 
REMARK    6  A    between atoms: C_14  and  O_15 
REMARK    7  A    between atoms: C_17  and  C_21 
REMARK    8  A    between atoms: C_19  and  O_20 
REMARK    9  A    between atoms: C_21  and  O_23 
REMARK   10  A    between atoms: C_24  and  O_23 
REMARK   11  A    between atoms: C_30  and  N_31 
REMARK       I    between atoms: N_31  and  C_32 
REMARK   12  A    between atoms: C_32  and  C_34 
REMARK   13  A    between atoms: C_37  and  O_38 
ROOT
HETATM    1  C   UNK N   1      33.417  16.704   9.029  0.00  0.00     0.081 C 
HETATM    2  C   UNK N   1      34.685  17.152   9.498  0.00  0.00     0.083 C 
HETATM    3  C   UNK N   1      35.388  16.391  10.439  0.00  0.00     0.055 C 
HETATM    4  C   UNK N   1      34.835  15.197  10.907  0.00  0.00     0.044 C 
HETATM    5  C   UNK N   1      33.672  14.699  10.344  0.00  0.00     0.055 C 
HETATM    6  C   UNK N   1      32.979  15.413   9.399  0.00  0.00     0.083 C 
ENDROOT
BRANCH   4   7
HETATM    7  C   UNK N   1      35.403  14.449  12.017  0.00  0.00     0.293 C 
HETATM    8  O   UNK N   1      36.082  15.046  12.847  0.00  0.00    -0.259 OA
BRANCH   7   9
HETATM    9  O   UNK N   1      35.133  13.137  12.187  0.00  0.00    -0.310 OA
BRANCH   9  10
HETATM   10  C   UNK N   1      36.054  12.229  11.726  0.00  0.00     0.156 C 
HETATM   11  C   UNK N   1      35.676  11.707  10.348  0.00  0.00     0.036 C 
HETATM   12  C   UNK N   1      36.903  11.454   9.466  0.00  0.00     0.022 C 
HETATM   13  C   UNK N   1      38.116  10.893  10.211  0.00  0.00     0.114 C 
HETATM   14  N   UNK N   1      37.714   9.848  11.142  0.00  0.00    -0.419 N 
HETATM   15  C   UNK N   1      37.664  10.446  12.471  0.00  0.00     0.141 C 
HETATM   16  H   UNK N   1      37.508   8.878  10.909  0.00  0.00     0.153 HD
HETATM   17  C   UNK N   1      36.297  11.089  12.749  0.00  0.00     0.131 C 
BRANCH  17  18
HETATM   18  N   UNK N   1      36.130  11.552  14.137  0.00  0.00    -0.348 N 
HETATM   19  C   UNK N   1      35.126  11.265  15.013  0.00  0.00     0.252 C 
HETATM   20  O   UNK N   1      34.172  10.578  14.662  0.00  0.00    -0.268 OA
HETATM   21  H   UNK N   1      36.836  12.150  14.476  0.00  0.00     0.163 HD
BRANCH  19  22
HETATM   22  C   UNK N   1      35.158  11.778  16.411  0.00  0.00     0.032 A 
HETATM   23  C   UNK N   1      35.322  10.884  17.481  0.00  0.00     0.020 A 
HETATM   24  C   UNK N   1      35.373  11.345  18.799  0.00  0.00     0.037 A 
HETATM   25  C   UNK N   1      35.255  12.711  19.067  0.00  0.00     0.065 A 
HETATM   26  C   UNK N   1      35.084  13.614  18.013  0.00  0.00     0.037 A 
HETATM   27  C   UNK N   1      35.036  13.152  16.688  0.00  0.00     0.020 A 
BRANCH  25  28
HETATM   28  O   UNK N   1      35.307  13.152  20.335  0.00  0.00    -0.361 OA
HETATM   29  H   UNK N   1      36.114  13.131  20.811  0.00  0.00     0.217 HD
ENDBRANCH  25  28
ENDBRANCH  19  22
ENDBRANCH  17  18
ENDBRANCH   9  10
ENDBRANCH   7   9
ENDBRANCH   4   7
BRANCH   2  30
HETATM   30  O   UNK N   1      35.211  18.317   9.076  0.00  0.00    -0.360 OA
HETATM   31  H   UNK N   1      35.146  18.893   8.340  0.00  0.00     0.217 HD
ENDBRANCH   2  30
BRANCH   6  32
HETATM   32  O   UNK N   1      31.848  14.875   8.910  0.00  0.00    -0.360 OA
HETATM   33  H   UNK N   1      30.953  14.906   9.185  0.00  0.00     0.217 HD
ENDBRANCH   6  32
BRANCH   1  34
HETATM   34  C   UNK N   1      32.500  17.548   8.204  0.00  0.00     0.201 C 
HETATM   35  O   UNK N   1      32.136  18.607   8.687  0.00  0.00    -0.286 OA
BRANCH  34  36
HETATM   36  C   UNK N   1      32.228  17.312   6.730  0.00  0.00     0.065 A 
HETATM   37  C   UNK N   1      33.291  17.378   5.766  0.00  0.00     0.081 A 
HETATM   38  C   UNK N   1      33.032  17.230   4.407  0.00  0.00     0.037 A 
HETATM   39  C   UNK N   1      31.740  17.059   3.947  0.00  0.00     0.004 A 
HETATM   40  C   UNK N   1      30.685  17.049   4.844  0.00  0.00     0.019 A 
HETATM   41  C   UNK N   1      30.886  17.162   6.227  0.00  0.00     0.054 A 
BRANCH  37  42
HETATM   42  O   UNK N   1      34.557  17.659   6.114  0.00  0.00    -0.360 OA
HETATM   43  H   UNK N   1      34.826  17.704   7.010  0.00  0.00     0.217 HD
ENDBRANCH  37  42
BRANCH  41  44
HETATM   44  C   UNK N   1      29.641  17.109   7.056  0.00  0.00     0.177 C 
HETATM   45  O   UNK N   1      28.540  17.350   6.591  0.00  0.00    -0.646 OA
BRANCH  44  46
HETATM   46  O   UNK N   1      29.738  16.851   8.375  0.00  0.00    -0.773 OA
HETATM   47  H   UNK N   1      30.031  17.516   8.966  0.00  0.00     0.167 HD
ENDBRANCH  44  46
ENDBRANCH  41  44
ENDBRANCH  34  36
ENDBRANCH   1  34
TORSDOF 13
ENDMDL
MODEL 5
REMARK VINA RESULT:      -7.1     11.288     15.218
REMARK  13 active torsions:
REMARK  status: ('A' for Active; 'I' for Inactive)
REMARK    1  A    between atoms: O_1  and  C_2 
REMARK    2  A    between atoms: C_2  and  C_4 
REMARK    3  A    between atoms: C_8  and  O_9 
REMARK    4  A    between atoms: C_10  and  C_11 
REMARK    5  A    between atoms: C_11  and  C_13 
REMARK    6  A    between atoms: C_14  and  O_15 
REMARK    7  A    between atoms: C_17  and  C_21 
REMARK    8  A    between atoms: C_19  and  O_20 
REMARK    9  A    between atoms: C_21  and  O_23 
REMARK   10  A    between atoms: C_24  and  O_23 
REMARK   11  A    between atoms: C_30  and  N_31 
REMARK       I    between atoms: N_31  and  C_32 
REMARK   12  A    between atoms: C_32  and  C_34 
REMARK   13  A    between atoms: C_37  and  O_38 
ROOT
HETATM    1  C   UNK N   1      27.256  18.027   5.684  0.00  0.00     0.081 C 
HETATM    2  C   UNK N   1      26.892  17.509   4.408  0.00  0.00     0.083 C 
HETATM    3  C   UNK N   1      25.992  18.215   3.602  0.00  0.00     0.055 C 
HETATM    4  C   UNK N   1      25.459  19.422   4.061  0.00  0.00     0.044 C 
HETATM    5  C   UNK N   1      25.923  19.986   5.238  0.00  0.00     0.055 C 
HETATM    6  C   UNK N   1      26.827  19.327   6.032  0.00  0.00     0.083 C 
ENDROOT
BRANCH   4   7
HETATM    7  C   UNK N   1      24.379  20.115   3.377  0.00  0.00     0.293 C 
HETATM    8  O   UNK N   1      24.616  20.673   2.311  0.00  0.00    -0.259 OA
BRANCH   7   9
HETATM    9  O   UNK N   1      23.117  20.088   3.858  0.00  0.00    -0.310 OA
BRANCH   9  10
HETATM   10  C   UNK N   1      22.110  19.745   2.990  0.00  0.00     0.156 C 
HETATM   11  C   UNK N   1      21.275  20.956   2.602  0.00  0.00     0.036 C 
HETATM   12  C   UNK N   1      20.796  20.889   1.148  0.00  0.00     0.022 C 
HETATM   13  C   UNK N   1      20.413  19.487   0.669  0.00  0.00     0.114 C 
HETATM   14  N   UNK N   1      19.632  18.789   1.680  0.00  0.00    -0.419 N 
HETATM   15  C   UNK N   1      20.535  17.882   2.377  0.00  0.00     0.141 C 
HETATM   16  H   UNK N   1      18.637  18.912   1.866  0.00  0.00     0.153 HD
HETATM   17  C   UNK N   1      21.248  18.581   3.544  0.00  0.00     0.131 C 
BRANCH  17  18
HETATM   18  N   UNK N   1      22.037  17.668   4.390  0.00  0.00    -0.348 N 
HETATM   19  C   UNK N   1      21.593  16.764   5.308  0.00  0.00     0.252 C 
HETATM   20  O   UNK N   1      20.395  16.671   5.559  0.00  0.00    -0.268 OA
HETATM   21  H   UNK N   1      23.014  17.719   4.278  0.00  0.00     0.163 HD
BRANCH  19  22
HETATM   22  C   UNK N   1      22.544  15.873   6.030  0.00  0.00     0.032 A 
HETATM   23  C   UNK N   1      23.899  15.855   5.666  0.00  0.00     0.020 A 
HETATM   24  C   UNK N   1      24.812  15.040   6.342  0.00  0.00     0.037 A 
HETATM   25  C   UNK N   1      24.379  14.227   7.391  0.00  0.00     0.065 A 
HETATM   26  C   UNK N   1      23.030  14.228   7.762  0.00  0.00     0.037 A 
HETATM   27  C   UNK N   1      22.114  15.049   7.086  0.00  0.00     0.020 A 
BRANCH  25  28
HETATM   28  O   UNK N   1      25.259  13.447   8.041  0.00  0.00    -0.361 OA
HETATM   29  H   UNK N   1      25.036  12.565   8.265  0.00  0.00     0.217 HD
ENDBRANCH  25  28
ENDBRANCH  19  22
ENDBRANCH  17  18
ENDBRANCH   9  10
ENDBRANCH   7   9
ENDBRANCH   4   7
BRANCH   2  30
HETATM   30  O   UNK N   1      27.376  16.332   3.971  0.00  0.00    -0.360 OA
HETATM   31  H   UNK N   1      27.347  15.802   3.198  0.00  0.00     0.217 HD
ENDBRANCH   2  30
BRANCH   6  32
HETATM   32  O   UNK N   1      27.219  19.928   7.169  0.00  0.00    -0.360 OA
HETATM   33  H   UNK N   1      27.544  20.785   7.360  0.00  0.00     0.217 HD
ENDBRANCH   6  32
BRANCH   1  34
HETATM   34  C   UNK N   1      28.027  17.246   6.699  0.00  0.00     0.201 C 
HETATM   35  O   UNK N   1      27.490  16.251   7.158  0.00  0.00    -0.286 OA
BRANCH  34  36
HETATM   36  C   UNK N   1      29.505  17.445   6.977  0.00  0.00     0.065 A 
HETATM   37  C   UNK N   1      30.495  17.030   6.023  0.00  0.00     0.081 A 
HETATM   38  C   UNK N   1      31.853  17.148   6.306  0.00  0.00     0.037 A 
HETATM   39  C   UNK N   1      32.281  17.629   7.529  0.00  0.00     0.004 A 
HETATM   40  C   UNK N   1      31.353  17.984   8.494  0.00  0.00     0.019 A 
HETATM   41  C   UNK N   1      29.973  17.916   8.256  0.00  0.00     0.054 A 
BRANCH  37  42
HETATM   42  O   UNK N   1      30.168  16.443   4.861  0.00  0.00    -0.360 OA
HETATM   43  H   UNK N   1      29.848  15.563   4.823  0.00  0.00     0.217 HD
ENDBRANCH  37  42
BRANCH  41  44
HETATM   44  C   UNK N   1      29.110  18.358   9.396  0.00  0.00     0.177 C 
HETATM   45  O   UNK N   1      29.572  18.882  10.395  0.00  0.00    -0.646 OA
BRANCH  44  46
HETATM   46  O   UNK N   1      27.785  18.114   9.353  0.00  0.00    -0.773 OA
HETATM   47  H   UNK N   1      27.434  17.342   9.749  0.00  0.00     0.167 HD
ENDBRANCH  44  46
ENDBRANCH  41  44
ENDBRANCH  34  36
ENDBRANCH   1  34
TORSDOF 13
ENDMDL
MODEL 6
REMARK VINA RESULT:      -7.0      1.937      3.831
REMARK  13 active torsions:
REMARK  status: ('A' for Active; 'I' for Inactive)
REMARK    1  A    between atoms: O_1  and  C_2 
REMARK    2  A    between atoms: C_2  and  C_4 
REMARK    3  A    between atoms: C_8  and  O_9 
REMARK    4  A    between atoms: C_10  and  C_11 
REMARK    5  A    between atoms: C_11  and  C_13 
REMARK    6  A    between atoms: C_14  and  O_15 
REMARK    7  A    between atoms: C_17  and  C_21 
REMARK    8  A    between atoms: C_19  and  O_20 
REMARK    9  A    between atoms: C_21  and  O_23 
REMARK   10  A    between atoms: C_24  and  O_23 
REMARK   11  A    between atoms: C_30  and  N_31 
REMARK       I    between atoms: N_31  and  C_32 
REMARK   12  A    between atoms: C_32  and  C_34 
REMARK   13  A    between atoms: C_37  and  O_38 
ROOT
HETATM    1  C   UNK N   1      29.463  26.408  -4.506  0.00  0.00     0.081 C 
HETATM    2  C   UNK N   1      30.830  26.027  -4.391  0.00  0.00     0.083 C 
HETATM    3  C   UNK N   1      31.163  24.785  -3.839  0.00  0.00     0.055 C 
HETATM    4  C   UNK N   1      30.145  23.932  -3.404  0.00  0.00     0.044 C 
HETATM    5  C   UNK N   1      28.819  24.249  -3.646  0.00  0.00     0.055 C 
HETATM    6  C   UNK N   1      28.469  25.448  -4.213  0.00  0.00     0.083 C 
ENDROOT
BRANCH   4   7
HETATM    7  C   UNK N   1      30.406  22.718  -2.648  0.00  0.00     0.293 C 
HETATM    8  O   UNK N   1      30.699  22.812  -1.460  0.00  0.00    -0.259 OA
BRANCH   7   9
HETATM    9  O   UNK N   1      30.257  21.499  -3.210  0.00  0.00    -0.310 OA
BRANCH   9  10
HETATM   10  C   UNK N   1      31.321  20.983  -3.908  0.00  0.00     0.156 C 
HETATM   11  C   UNK N   1      32.646  21.422  -3.305  0.00  0.00     0.036 C 
HETATM   12  C   UNK N   1      33.717  20.330  -3.398  0.00  0.00     0.022 C 
HETATM   13  C   UNK N   1      33.677  19.509  -4.689  0.00  0.00     0.114 C 
HETATM   14  N   UNK N   1      33.475  20.370  -5.845  0.00  0.00    -0.419 N 
HETATM   15  C   UNK N   1      32.066  20.288  -6.208  0.00  0.00     0.141 C 
HETATM   16  H   UNK N   1      34.188  20.928  -6.315  0.00  0.00     0.153 HD
HETATM   17  C   UNK N   1      31.220  21.301  -5.423  0.00  0.00     0.131 C 
BRANCH  17  18
HETATM   18  N   UNK N   1      29.821  21.383  -5.875  0.00  0.00    -0.348 N 
HETATM   19  C   UNK N   1      29.238  22.328  -6.665  0.00  0.00     0.252 C 
HETATM   20  O   UNK N   1      29.882  23.299  -7.052  0.00  0.00    -0.268 OA
HETATM   21  H   UNK N   1      29.228  20.661  -5.564  0.00  0.00     0.163 HD
BRANCH  19  22
HETATM   22  C   UNK N   1      27.810  22.212  -7.075  0.00  0.00     0.032 A 
HETATM   23  C   UNK N   1      27.414  21.184  -7.945  0.00  0.00     0.020 A 
HETATM   24  C   UNK N   1      26.076  21.046  -8.328  0.00  0.00     0.037 A 
HETATM   25  C   UNK N   1      25.116  21.938  -7.847  0.00  0.00     0.065 A 
HETATM   26  C   UNK N   1      25.495  22.971  -6.984  0.00  0.00     0.037 A 
HETATM   27  C   UNK N   1      26.838  23.110  -6.597  0.00  0.00     0.020 A 
BRANCH  25  28
HETATM   28  O   UNK N   1      23.830  21.800  -8.214  0.00  0.00    -0.361 OA
HETATM   29  H   UNK N   1      23.512  22.217  -8.991  0.00  0.00     0.217 HD
ENDBRANCH  25  28
ENDBRANCH  19  22
ENDBRANCH  17  18
ENDBRANCH   9  10
ENDBRANCH   7   9
ENDBRANCH   4   7
BRANCH   2  30
HETATM   30  O   UNK N   1      31.819  26.855  -4.779  0.00  0.00    -0.360 OA
HETATM   31  H   UNK N   1      32.040  27.391  -5.515  0.00  0.00     0.217 HD
ENDBRANCH   2  30
BRANCH   6  32
HETATM   32  O   UNK N   1      27.161  25.695  -4.402  0.00  0.00    -0.360 OA
HETATM   33  H   UNK N   1      26.523  25.348  -4.994  0.00  0.00     0.217 HD
ENDBRANCH   6  32
BRANCH   1  34
HETATM   34  C   UNK N   1      29.022  27.789  -4.872  0.00  0.00     0.201 C 
HETATM   35  O   UNK N   1      28.548  27.942  -5.985  0.00  0.00    -0.286 OA
BRANCH  34  36
HETATM   36  C   UNK N   1      28.867  28.921  -3.874  0.00  0.00     0.065 A 
HETATM   37  C   UNK N   1      30.001  29.704  -3.470  0.00  0.00     0.081 A 
HETATM   38  C   UNK N   1      29.874  30.697  -2.503  0.00  0.00     0.037 A 
HETATM   39  C   UNK N   1      28.663  30.925  -1.877  0.00  0.00     0.004 A 
HETATM   40  C   UNK N   1      27.563  30.148  -2.201  0.00  0.00     0.019 A 
HETATM   41  C   UNK N   1      27.622  29.154  -3.188  0.00  0.00     0.054 A 
BRANCH  37  42
HETATM   42  O   UNK N   1      31.237  29.471  -3.939  0.00  0.00    -0.360 OA
HETATM   43  H   UNK N   1      31.823  28.874  -3.516  0.00  0.00     0.217 HD
ENDBRANCH  37  42
BRANCH  41  44
HETATM   44  C   UNK N   1      26.338  28.424  -3.430  0.00  0.00     0.177 C 
HETATM   45  O   UNK N   1      25.823  27.717  -2.582  0.00  0.00    -0.646 OA
BRANCH  44  46
HETATM   46  O   UNK N   1      25.759  28.494  -4.646  0.00  0.00    -0.773 OA
HETATM   47  H   UNK N   1      25.878  29.252  -5.182  0.00  0.00     0.167 HD
ENDBRANCH  44  46
ENDBRANCH  41  44
ENDBRANCH  34  36
ENDBRANCH   1  34
TORSDOF 13
ENDMDL
MODEL 7
REMARK VINA RESULT:      -6.9     13.081     16.495
REMARK  13 active torsions:
REMARK  status: ('A' for Active; 'I' for Inactive)
REMARK    1  A    between atoms: O_1  and  C_2 
REMARK    2  A    between atoms: C_2  and  C_4 
REMARK    3  A    between atoms: C_8  and  O_9 
REMARK    4  A    between atoms: C_10  and  C_11 
REMARK    5  A    between atoms: C_11  and  C_13 
REMARK    6  A    between atoms: C_14  and  O_15 
REMARK    7  A    between atoms: C_17  and  C_21 
REMARK    8  A    between atoms: C_19  and  O_20 
REMARK    9  A    between atoms: C_21  and  O_23 
REMARK   10  A    between atoms: C_24  and  O_23 
REMARK   11  A    between atoms: C_30  and  N_31 
REMARK       I    between atoms: N_31  and  C_32 
REMARK   12  A    between atoms: C_32  and  C_34 
REMARK   13  A    between atoms: C_37  and  O_38 
ROOT
HETATM    1  C   UNK N   1      26.802  17.950   4.614  0.00  0.00     0.081 C 
HETATM    2  C   UNK N   1      27.019  16.868   3.714  0.00  0.00     0.083 C 
HETATM    3  C   UNK N   1      25.951  16.040   3.350  0.00  0.00     0.055 C 
HETATM    4  C   UNK N   1      24.681  16.286   3.879  0.00  0.00     0.044 C 
HETATM    5  C   UNK N   1      24.451  17.419   4.640  0.00  0.00     0.055 C 
HETATM    6  C   UNK N   1      25.476  18.262   4.986  0.00  0.00     0.083 C 
ENDROOT
BRANCH   4   7
HETATM    7  C   UNK N   1      23.567  15.367   3.708  0.00  0.00     0.293 C 
HETATM    8  O   UNK N   1      23.626  14.525   2.817  0.00  0.00    -0.259 OA
BRANCH   7   9
HETATM    9  O   UNK N   1      22.516  15.378   4.556  0.00  0.00    -0.310 OA
BRANCH   9  10
HETATM   10  C   UNK N   1      21.380  14.708   4.174  0.00  0.00     0.156 C 
HETATM   11  C   UNK N   1      20.509  15.564   3.267  0.00  0.00     0.036 C 
HETATM   12  C   UNK N   1      19.804  14.736   2.188  0.00  0.00     0.022 C 
HETATM   13  C   UNK N   1      19.333  13.356   2.652  0.00  0.00     0.114 C 
HETATM   14  N   UNK N   1      18.715  13.435   3.968  0.00  0.00    -0.419 N 
HETATM   15  C   UNK N   1      19.706  12.995   4.942  0.00  0.00     0.141 C 
HETATM   16  H   UNK N   1      17.763  13.741   4.171  0.00  0.00     0.153 HD
HETATM   17  C   UNK N   1      20.603  14.155   5.398  0.00  0.00     0.131 C 
BRANCH  17  18
HETATM   18  N   UNK N   1      21.505  13.807   6.508  0.00  0.00    -0.348 N 
HETATM   19  C   UNK N   1      21.230  13.758   7.843  0.00  0.00     0.252 C 
HETATM   20  O   UNK N   1      20.122  14.081   8.261  0.00  0.00    -0.268 OA
HETATM   21  H   UNK N   1      22.429  13.580   6.254  0.00  0.00     0.163 HD
BRANCH  19  22
HETATM   22  C   UNK N   1      22.261  13.318   8.824  0.00  0.00     0.032 A 
HETATM   23  C   UNK N   1      23.624  13.448   8.512  0.00  0.00     0.020 A 
HETATM   24  C   UNK N   1      24.608  13.059   9.425  0.00  0.00     0.037 A 
HETATM   25  C   UNK N   1      24.242  12.529  10.664  0.00  0.00     0.065 A 
HETATM   26  C   UNK N   1      22.888  12.387  10.987  0.00  0.00     0.037 A 
HETATM   27  C   UNK N   1      21.899  12.780  10.072  0.00  0.00     0.020 A 
BRANCH  25  28
HETATM   28  O   UNK N   1      25.190  12.158  11.541  0.00  0.00    -0.361 OA
HETATM   29  H   UNK N   1      26.095  12.184  11.299  0.00  0.00     0.217 HD
ENDBRANCH  25  28
ENDBRANCH  19  22
ENDBRANCH  17  18
ENDBRANCH   9  10
ENDBRANCH   7   9
ENDBRANCH   4   7
BRANCH   2  30
HETATM   30  O   UNK N   1      28.245  16.605   3.224  0.00  0.00    -0.360 OA
HETATM   31  H   UNK N   1      28.959  16.021   3.390  0.00  0.00     0.217 HD
ENDBRANCH   2  30
BRANCH   6  32
HETATM   32  O   UNK N   1      25.180  19.334   5.743  0.00  0.00    -0.360 OA
HETATM   33  H   UNK N   1      25.600  20.160   5.874  0.00  0.00     0.217 HD
ENDBRANCH   6  32
BRANCH   1  34
HETATM   34  C   UNK N   1      27.910  18.744   5.229  0.00  0.00     0.201 C 
HETATM   35  O   UNK N   1      28.064  19.885   4.826  0.00  0.00    -0.286 OA
BRANCH  34  36
HETATM   36  C   UNK N   1      28.652  18.330   6.485  0.00  0.00     0.065 A 
HETATM   37  C   UNK N   1      28.236  18.804   7.775  0.00  0.00     0.081 A 
HETATM   38  C   UNK N   1      28.957  18.482   8.921  0.00  0.00     0.037 A 
HETATM   39  C   UNK N   1      30.115  17.732   8.842  0.00  0.00     0.004 A 
HETATM   40  C   UNK N   1      30.577  17.307   7.607  0.00  0.00     0.019 A 
HETATM   41  C   UNK N   1      29.878  17.575   6.421  0.00  0.00     0.054 A 
BRANCH  37  42
HETATM   42  O   UNK N   1      27.193  19.635   7.931  0.00  0.00    -0.360 OA
HETATM   43  H   UNK N   1      26.721  19.693   8.738  0.00  0.00     0.217 HD
ENDBRANCH  37  42
BRANCH  41  44
HETATM   44  C   UNK N   1      30.503  17.024   5.178  0.00  0.00     0.177 C 
HETATM   45  O   UNK N   1      30.664  15.828   5.007  0.00  0.00    -0.646 OA
BRANCH  44  46
HETATM   46  O   UNK N   1      30.966  17.874   4.240  0.00  0.00    -0.773 OA
HETATM   47  H   UNK N   1      30.641  17.833   3.363  0.00  0.00     0.167 HD
ENDBRANCH  44  46
ENDBRANCH  41  44
ENDBRANCH  34  36
ENDBRANCH   1  34
TORSDOF 13
ENDMDL
MODEL 8
REMARK VINA RESULT:      -6.9     11.140     13.677
REMARK  13 active torsions:
REMARK  status: ('A' for Active; 'I' for Inactive)
REMARK    1  A    between atoms: O_1  and  C_2 
REMARK    2  A    between atoms: C_2  and  C_4 
REMARK    3  A    between atoms: C_8  and  O_9 
REMARK    4  A    between atoms: C_10  and  C_11 
REMARK    5  A    between atoms: C_11  and  C_13 
REMARK    6  A    between atoms: C_14  and  O_15 
REMARK    7  A    between atoms: C_17  and  C_21 
REMARK    8  A    between atoms: C_19  and  O_20 
REMARK    9  A    between atoms: C_21  and  O_23 
REMARK   10  A    between atoms: C_24  and  O_23 
REMARK   11  A    between atoms: C_30  and  N_31 
REMARK       I    between atoms: N_31  and  C_32 
REMARK   12  A    between atoms: C_32  and  C_34 
REMARK   13  A    between atoms: C_37  and  O_38 
ROOT
HETATM    1  C   UNK N   1      21.001  17.488   3.617  0.00  0.00     0.081 C 
HETATM    2  C   UNK N   1      22.205  17.211   4.325  0.00  0.00     0.083 C 
HETATM    3  C   UNK N   1      23.275  18.110   4.257  0.00  0.00     0.055 C 
HETATM    4  C   UNK N   1      23.149  19.271   3.491  0.00  0.00     0.044 C 
HETATM    5  C   UNK N   1      21.931  19.601   2.921  0.00  0.00     0.055 C 
HETATM    6  C   UNK N   1      20.858  18.750   2.998  0.00  0.00     0.083 C 
ENDROOT
BRANCH   4   7
HETATM    7  C   UNK N   1      24.270  20.155   3.212  0.00  0.00     0.293 C 
HETATM    8  O   UNK N   1      24.063  21.360   3.110  0.00  0.00    -0.259 OA
BRANCH   7   9
HETATM    9  O   UNK N   1      25.532  19.680   3.140  0.00  0.00    -0.310 OA
BRANCH   9  10
HETATM   10  C   UNK N   1      26.255  19.605   4.305  0.00  0.00     0.156 C 
HETATM   11  C   UNK N   1      27.125  20.838   4.498  0.00  0.00     0.036 C 
HETATM   12  C   UNK N   1      27.238  21.245   5.971  0.00  0.00     0.022 C 
HETATM   13  C   UNK N   1      27.312  20.072   6.951  0.00  0.00     0.114 C 
HETATM   14  N   UNK N   1      28.210  19.039   6.455  0.00  0.00    -0.419 N 
HETATM   15  C   UNK N   1      27.386  17.991   5.867  0.00  0.00     0.141 C 
HETATM   16  H   UNK N   1      29.229  19.047   6.510  0.00  0.00     0.153 HD
HETATM   17  C   UNK N   1      27.063  18.285   4.395  0.00  0.00     0.131 C 
BRANCH  17  18
HETATM   18  N   UNK N   1      26.383  17.177   3.703  0.00  0.00    -0.348 N 
HETATM   19  C   UNK N   1      26.936  16.112   3.056  0.00  0.00     0.252 C 
HETATM   20  O   UNK N   1      28.154  16.016   2.947  0.00  0.00    -0.268 OA
HETATM   21  H   UNK N   1      25.398  17.210   3.708  0.00  0.00     0.163 HD
BRANCH  19  22
HETATM   22  C   UNK N   1      26.081  15.045   2.464  0.00  0.00     0.032 A 
HETATM   23  C   UNK N   1      26.623  13.774   2.214  0.00  0.00     0.020 A 
HETATM   24  C   UNK N   1      25.834  12.753   1.676  0.00  0.00     0.037 A 
HETATM   25  C   UNK N   1      24.491  12.991   1.378  0.00  0.00     0.065 A 
HETATM   26  C   UNK N   1      23.938  14.253   1.615  0.00  0.00     0.037 A 
HETATM   27  C   UNK N   1      24.729  15.279   2.158  0.00  0.00     0.020 A 
BRANCH  25  28
HETATM   28  O   UNK N   1      23.734  12.006   0.864  0.00  0.00    -0.361 OA
HETATM   29  H   UNK N   1      24.017  11.540   0.101  0.00  0.00     0.217 HD
ENDBRANCH  25  28
ENDBRANCH  19  22
ENDBRANCH  17  18
ENDBRANCH   9  10
ENDBRANCH   7   9
ENDBRANCH   4   7
BRANCH   2  30
HETATM   30  O   UNK N   1      22.347  16.080   5.041  0.00  0.00    -0.360 OA
HETATM   31  H   UNK N   1      23.024  15.607   5.483  0.00  0.00     0.217 HD
ENDBRANCH   2  30
BRANCH   6  32
HETATM   32  O   UNK N   1      19.712  19.129   2.405  0.00  0.00    -0.360 OA
HETATM   33  H   UNK N   1      19.305  18.899   1.593  0.00  0.00     0.217 HD
ENDBRANCH   6  32
BRANCH   1  34
HETATM   34  C   UNK N   1      19.898  16.494   3.449  0.00  0.00     0.201 C 
HETATM   35  O   UNK N   1      18.787  16.831   3.822  0.00  0.00    -0.286 OA
BRANCH  34  36
HETATM   36  C   UNK N   1      20.012  15.236   2.608  0.00  0.00     0.065 A 
HETATM   37  C   UNK N   1      20.393  13.986   3.203  0.00  0.00     0.081 A 
HETATM   38  C   UNK N   1      20.566  12.847   2.422  0.00  0.00     0.037 A 
HETATM   39  C   UNK N   1      20.417  12.901   1.049  0.00  0.00     0.004 A 
HETATM   40  C   UNK N   1      20.107  14.104   0.436  0.00  0.00     0.019 A 
HETATM   41  C   UNK N   1      19.891  15.277   1.173  0.00  0.00     0.054 A 
BRANCH  37  42
HETATM   42  O   UNK N   1      20.673  13.871   4.511  0.00  0.00    -0.360 OA
HETATM   43  H   UNK N   1      21.269  14.451   4.943  0.00  0.00     0.217 HD
ENDBRANCH  37  42
BRANCH  41  44
HETATM   44  C   UNK N   1      19.542  16.483   0.357  0.00  0.00     0.177 C 
HETATM   45  O   UNK N   1      20.384  17.286  -0.007  0.00  0.00    -0.646 OA
BRANCH  44  46
HETATM   46  O   UNK N   1      18.250  16.731   0.067  0.00  0.00    -0.773 OA
HETATM   47  H   UNK N   1      17.982  16.863  -0.820  0.00  0.00     0.167 HD
ENDBRANCH  44  46
ENDBRANCH  41  44
ENDBRANCH  34  36
ENDBRANCH   1  34
TORSDOF 13
ENDMDL
MODEL 9
REMARK VINA RESULT:      -6.9     13.301     15.755
REMARK  13 active torsions:
REMARK  status: ('A' for Active; 'I' for Inactive)
REMARK    1  A    between atoms: O_1  and  C_2 
REMARK    2  A    between atoms: C_2  and  C_4 
REMARK    3  A    between atoms: C_8  and  O_9 
REMARK    4  A    between atoms: C_10  and  C_11 
REMARK    5  A    between atoms: C_11  and  C_13 
REMARK    6  A    between atoms: C_14  and  O_15 
REMARK    7  A    between atoms: C_17  and  C_21 
REMARK    8  A    between atoms: C_19  and  O_20 
REMARK    9  A    between atoms: C_21  and  O_23 
REMARK   10  A    between atoms: C_24  and  O_23 
REMARK   11  A    between atoms: C_30  and  N_31 
REMARK       I    between atoms: N_31  and  C_32 
REMARK   12  A    between atoms: C_32  and  C_34 
REMARK   13  A    between atoms: C_37  and  O_38 
ROOT
HETATM    1  C   UNK N   1      20.894  17.410   4.110  0.00  0.00     0.081 C 
HETATM    2  C   UNK N   1      20.352  17.139   2.821  0.00  0.00     0.083 C 
HETATM    3  C   UNK N   1      19.915  15.847   2.508  0.00  0.00     0.055 C 
HETATM    4  C   UNK N   1      20.017  14.836   3.468  0.00  0.00     0.044 C 
HETATM    5  C   UNK N   1      20.414  15.139   4.759  0.00  0.00     0.055 C 
HETATM    6  C   UNK N   1      20.820  16.404   5.099  0.00  0.00     0.083 C 
ENDROOT
BRANCH   4   7
HETATM    7  C   UNK N   1      19.769  13.436   3.164  0.00  0.00     0.293 C 
HETATM    8  O   UNK N   1      18.644  13.098   2.808  0.00  0.00    -0.259 OA
BRANCH   7   9
HETATM    9  O   UNK N   1      20.767  12.526   3.195  0.00  0.00    -0.310 OA
BRANCH   9  10
HETATM   10  C   UNK N   1      21.948  12.853   2.575  0.00  0.00     0.156 C 
HETATM   11  C   UNK N   1      22.002  12.301   1.158  0.00  0.00     0.036 C 
HETATM   12  C   UNK N   1      22.733  13.243   0.196  0.00  0.00     0.022 C 
HETATM   13  C   UNK N   1      23.940  13.961   0.804  0.00  0.00     0.114 C 
HETATM   14  N   UNK N   1      24.739  13.045   1.605  0.00  0.00    -0.419 N 
HETATM   15  C   UNK N   1      24.391  13.272   3.002  0.00  0.00     0.141 C 
HETATM   16  H   UNK N   1      25.417  12.369   1.254  0.00  0.00     0.153 HD
HETATM   17  C   UNK N   1      23.176  12.433   3.425  0.00  0.00     0.131 C 
BRANCH  17  18
HETATM   18  N   UNK N   1      22.889  12.489   4.868  0.00  0.00    -0.348 N 
HETATM   19  C   UNK N   1      22.905  11.474   5.777  0.00  0.00     0.252 C 
HETATM   20  O   UNK N   1      23.130  10.322   5.419  0.00  0.00    -0.268 OA
HETATM   21  H   UNK N   1      22.654  13.377   5.224  0.00  0.00     0.163 HD
BRANCH  19  22
HETATM   22  C   UNK N   1      22.648  11.732   7.222  0.00  0.00     0.032 A 
HETATM   23  C   UNK N   1      23.462  11.131   8.195  0.00  0.00     0.020 A 
HETATM   24  C   UNK N   1      23.250  11.374   9.556  0.00  0.00     0.037 A 
HETATM   25  C   UNK N   1      22.217  12.221   9.961  0.00  0.00     0.065 A 
HETATM   26  C   UNK N   1      21.393  12.822   9.004  0.00  0.00     0.037 A 
HETATM   27  C   UNK N   1      21.607  12.581   7.638  0.00  0.00     0.020 A 
BRANCH  25  28
HETATM   28  O   UNK N   1      22.017  12.455  11.270  0.00  0.00    -0.361 OA
HETATM   29  H   UNK N   1      22.564  12.048  11.913  0.00  0.00     0.217 HD
ENDBRANCH  25  28
ENDBRANCH  19  22
ENDBRANCH  17  18
ENDBRANCH   9  10
ENDBRANCH   7   9
ENDBRANCH   4   7
BRANCH   2  30
HETATM   30  O   UNK N   1      20.278  18.098   1.880  0.00  0.00    -0.360 OA
HETATM   31  H   UNK N   1      19.798  18.885   1.714  0.00  0.00     0.217 HD
ENDBRANCH   2  30
BRANCH   6  32
HETATM   32  O   UNK N   1      21.208  16.620   6.368  0.00  0.00    -0.360 OA
HETATM   33  H   UNK N   1      21.048  16.168   7.172  0.00  0.00     0.217 HD
ENDBRANCH   6  32
BRANCH   1  34
HETATM   34  C   UNK N   1      21.585  18.689   4.459  0.00  0.00     0.201 C 
HETATM   35  O   UNK N   1      21.082  19.369   5.337  0.00  0.00    -0.286 OA
BRANCH  34  36
HETATM   36  C   UNK N   1      22.987  19.047   4.001  0.00  0.00     0.065 A 
HETATM   37  C   UNK N   1      24.138  18.495   4.659  0.00  0.00     0.081 A 
HETATM   38  C   UNK N   1      25.424  18.875   4.286  0.00  0.00     0.037 A 
HETATM   39  C   UNK N   1      25.624  19.825   3.302  0.00  0.00     0.004 A 
HETATM   40  C   UNK N   1      24.534  20.420   2.688  0.00  0.00     0.019 A 
HETATM   41  C   UNK N   1      23.217  20.056   2.999  0.00  0.00     0.054 A 
BRANCH  37  42
HETATM   42  O   UNK N   1      24.034  17.657   5.703  0.00  0.00    -0.360 OA
HETATM   43  H   UNK N   1      23.202  17.392   6.045  0.00  0.00     0.217 HD
ENDBRANCH  37  42
BRANCH  41  44
HETATM   44  C   UNK N   1      22.159  20.780   2.226  0.00  0.00     0.177 C 
HETATM   45  O   UNK N   1      21.963  20.572   1.042  0.00  0.00    -0.646 OA
BRANCH  44  46
HETATM   46  O   UNK N   1      21.439  21.742   2.837  0.00  0.00    -0.773 OA
HETATM   47  H   UNK N   1      20.938  21.543   3.603  0.00  0.00     0.167 HD
ENDBRANCH  44  46
ENDBRANCH  41  44
ENDBRANCH  34  36
ENDBRANCH   1  34
TORSDOF 13
ENDMDL
