REMARK WARNING: 32 MAX_TORS EXCEEDED!!!
REMARK  35 active torsions:
REMARK  status: ('A' for Active; 'I' for Inactive)
REMARK    1  A    between atoms: C_10  and  C_7 
REMARK    2  A    between atoms: C_19  and  C_7 
REMARK    3  A    between atoms: C_23  and  C_10 
REMARK    4  A    between atoms: C_12  and  C_11 
REMARK    5  A    between atoms: C_22  and  C_11 
REMARK    6  A    between atoms: N_36  and  C_12 
REMARK    7  A    between atoms: C_14  and  C_13 
REMARK    8  A    between atoms: N_34  and  C_13 
REMARK    9  A    between atoms: S_66  and  C_14 
REMARK   10  A    between atoms: C_21  and  C_15 
REMARK   11  A    between atoms: O_58  and  C_15 
REMARK   12  A    between atoms: C_32  and  C_16 
REMARK   13  A    between atoms: O_59  and  C_16 
REMARK   14  A    between atoms: N_44  and  C_20 
REMARK   15  A    between atoms: N_34  and  C_22 
REMARK   16  A    between atoms: O_46  and  C_22 
REMARK   17  A    between atoms: S_66  and  C_23 
REMARK   18  A    between atoms: C_25  and  O_48 
REMARK   19  A    between atoms: C_26  and  O_61 
REMARK   20  A    between atoms: C_30  and  C_27 
REMARK   21  A    between atoms: C_32  and  C_27 
REMARK   22  A    between atoms: C_27  and  O_49 
REMARK   23  A    between atoms: N_33  and  C_28 
REMARK   24  A    between atoms: N_36  and  C_30 
REMARK   25  A    between atoms: O_50  and  C_30 
REMARK   26  A    between atoms: C_31  and  N_45 
REMARK   27  A    between atoms: P_63  and  O_51 
REMARK   28  A    between atoms: P_63  and  O_52 
REMARK   29  A    between atoms: P_64  and  O_54 
REMARK   30  A    between atoms: P_65  and  O_56 
REMARK   31  A    between atoms: P_64  and  O_58 
REMARK   32  A    between atoms: P_65  and  O_59 
REMARK   33  A    between atoms: P_63  and  O_61 
REMARK   34  A    between atoms: P_64  and  O_62 
REMARK   35  A    between atoms: P_65  and  O_62 
ROOT
HETATM    1  O   UNK N   1      -4.555  -4.713  -1.052  0.00  0.00    -0.631 OA
HETATM    2  P   UNK N   1      -3.223  -4.124  -1.605  0.00  0.00     0.401 P 
ENDROOT
BRANCH   2   3
HETATM    3  O   UNK N   1      -1.640  -4.131  -0.921  0.00  0.00    -0.307 OA
HETATM    4  H   UNK N   1      -1.199  -4.904  -0.536  0.00  0.00     0.222 HD
ENDBRANCH   2   3
BRANCH   2   5
HETATM    5  O   UNK N   1      -2.603  -5.809  -1.682  0.00  0.00    -0.296 OA
BRANCH   5   6
HETATM    6  C   UNK N   1      -3.087  -6.636  -0.630  0.00  0.00     0.192 C 
BRANCH   6   7
HETATM    7  C   UNK N   1      -2.210  -6.916   0.618  0.00  0.00     0.008 C 
HETATM    8  C   UNK N   1      -1.412  -5.732   1.121  0.00  0.00     0.020 C 
HETATM    9  C   UNK N   1      -3.201  -7.200   1.734  0.00  0.00     0.020 C 
BRANCH   7  10
HETATM   10  C   UNK N   1      -1.256  -8.123   0.439  0.00  0.00     0.202 C 
BRANCH  10  11
HETATM   11  C   UNK N   1      -1.980  -9.352  -0.063  0.00  0.00     0.141 C 
BRANCH  11  12
HETATM   12  N   UNK N   1      -3.008  -9.798   0.575  0.00  0.00    -0.372 N 
ATOM     13  HN  UNK N   1      -3.285  -9.343   1.445  1.00  0.00     0.161 HD
BRANCH  12  14
HETATM   14  C   UNK N   1      -3.778 -10.917   0.097  0.00  0.00     0.129 C 
BRANCH  14  15
HETATM   15  C   UNK N   1      -4.947 -10.409  -0.738  0.00  0.00     0.103 C 
BRANCH  15  16
HETATM   16  C   UNK N   1      -6.128 -10.036   0.118  0.00  0.00     0.112 C 
BRANCH  16  17
HETATM   17  N   UNK N   1      -6.589  -8.832   0.149  0.00  0.00    -0.374 N 
ATOM     18  HN  UNK N   1      -7.409  -8.638   0.723  1.00  0.00     0.161 HD
BRANCH  17  19
HETATM   19  C   UNK N   1      -5.993  -7.750  -0.595  0.00  0.00     0.132 C 
BRANCH  19  20
HETATM   20  C   UNK N   1      -6.975  -6.604  -0.775  0.00  0.00     0.102 C 
BRANCH  20  21
HETATM   21  S   UNK N   1      -7.592  -6.011   0.826  0.00  0.00    -0.086 SA
BRANCH  21  22
HETATM   22  C   UNK N   1      -9.288  -5.972   0.245  0.00  0.00     0.208 C 
HETATM   23  O   UNK N   1      -9.755  -4.909  -0.138  0.00  0.00    -0.281 OA
BRANCH  22  24
HETATM   24  C   UNK N   1     -10.120  -7.201   0.259  0.00  0.00     0.063 C 
BRANCH  24  25
HETATM   25  C   UNK N   1     -11.428  -7.153  -0.061  0.00  0.00     0.016 C 
BRANCH  25  26
HETATM   26  C   UNK N   1     -12.328  -8.328  -0.043  0.00  0.00    -0.036 A 
HETATM   27  C   UNK N   1     -13.693  -8.118  -0.271  0.00  0.00     0.013 A 
HETATM   28  C   UNK N   1     -14.591  -9.184  -0.244  0.00  0.00     0.030 A 
HETATM   29  C   UNK N   1     -14.141 -10.489   0.002  0.00  0.00     0.029 A 
HETATM   30  C   UNK N   1     -12.767 -10.704   0.222  0.00  0.00     0.030 A 
HETATM   31  C   UNK N   1     -11.867  -9.630   0.206  0.00  0.00     0.013 A 
BRANCH  29  32
HETATM   32  N   UNK N   1     -15.067 -11.577   0.030  0.00  0.00    -0.390 N 
HETATM   33  C   UNK N   1     -14.615 -12.929   0.238  0.00  0.00     0.149 C 
HETATM   34  C   UNK N   1     -16.480 -11.347  -0.145  0.00  0.00     0.149 C 
ENDBRANCH  29  32
ENDBRANCH  25  26
ENDBRANCH  24  25
ENDBRANCH  22  24
ENDBRANCH  21  22
ENDBRANCH  20  21
ENDBRANCH  19  20
ENDBRANCH  17  19
ENDBRANCH  16  17
BRANCH  16  35
HETATM   35  O   UNK N   1      -6.737 -10.991   0.844  0.00  0.00    -0.350 OA
HETATM   36  H   UNK N   1      -7.525 -10.956   1.349  0.00  0.00     0.219 HD
ENDBRANCH  16  35
ENDBRANCH  15  16
ENDBRANCH  14  15
ENDBRANCH  12  14
ENDBRANCH  11  12
BRANCH  11  37
HETATM   37  O   UNK N   1      -1.565  -9.956  -1.198  0.00  0.00    -0.348 OA
HETATM   38  H   UNK N   1      -1.784 -10.414  -1.986  0.00  0.00     0.219 HD
ENDBRANCH  11  37
ENDBRANCH  10  11
BRANCH  10  39
HETATM   39  O   UNK N   1      -0.224  -7.795  -0.447  0.00  0.00    -0.387 OA
HETATM   40  H   UNK N   1       0.331  -8.301  -1.061  0.00  0.00     0.210 HD
ENDBRANCH  10  39
ENDBRANCH   7  10
ENDBRANCH   6   7
ENDBRANCH   5   6
ENDBRANCH   2   5
BRANCH   2  41
HETATM   41  O   UNK N   1      -3.301  -3.765   0.107  0.00  0.00    -0.195 OA
BRANCH  41  42
HETATM   42  P   UNK N   1      -3.104  -2.056   0.380  0.00  0.00     0.401 P 
HETATM   43  O   UNK N   1      -4.366  -1.236   0.759  0.00  0.00    -0.631 OA
BRANCH  42  44
HETATM   44  O   UNK N   1      -2.963  -2.502   2.046  0.00  0.00    -0.307 OA
HETATM   45  H   UNK N   1      -3.140  -2.695   2.980  0.00  0.00     0.222 HD
ENDBRANCH  42  44
BRANCH  42  46
HETATM   46  O   UNK N   1      -1.551  -1.318   0.609  0.00  0.00    -0.294 OA
BRANCH  46  47
HETATM   47  C   UNK N   1      -0.915  -1.464  -0.620  0.00  0.00     0.215 C 
BRANCH  47  48
HETATM   48  C   UNK N   1       0.376  -0.674  -0.676  0.00  0.00     0.180 C 
HETATM   49  C   UNK N   1       1.627  -1.409  -0.206  0.00  0.00     0.197 C 
HETATM   50  C   UNK N   1       2.536  -0.211  -0.206  0.00  0.00     0.199 C 
HETATM   51  C   UNK N   1       1.624   0.787   0.514  0.00  0.00     0.262 C 
HETATM   52  O   UNK N   1       0.294   0.494   0.111  0.00  0.00    -0.353 OA
BRANCH  49  53
HETATM   53  O   UNK N   1       2.069  -2.392  -1.120  0.00  0.00    -0.286 OA
BRANCH  53  54
HETATM   54  P   UNK N   1       1.852  -4.007  -0.465  0.00  0.00     0.391 P 
HETATM   55  O   UNK N   1       0.967  -4.787  -1.473  0.00  0.00    -0.632 OA
BRANCH  54  56
HETATM   56  O   UNK N   1       1.033  -4.068   1.066  0.00  0.00    -0.307 OA
HETATM   57  H   UNK N   1       0.775  -3.689   1.921  0.00  0.00     0.222 HD
ENDBRANCH  54  56
BRANCH  54  58
HETATM   58  O   UNK N   1       3.356  -4.869  -0.388  0.00  0.00    -0.307 OA
HETATM   59  H   UNK N   1       3.359  -5.838  -0.345  0.00  0.00     0.222 HD
ENDBRANCH  54  58
ENDBRANCH  53  54
ENDBRANCH  49  53
BRANCH  50  60
HETATM   60  O   UNK N   1       3.739  -0.446   0.465  0.00  0.00    -0.388 OA
HETATM   61  H   UNK N   1       4.015  -1.251   0.930  0.00  0.00     0.210 HD
ENDBRANCH  50  60
BRANCH  51  62
HETATM   62  N   UNK N   1       1.928   2.182   0.191  0.00  0.00    -0.297 N 
HETATM   63  C   UNK N   1       1.028   3.098  -0.257  0.00  0.00     0.188 A 
HETATM   64  N   UNK N   1       1.609   4.310  -0.463  0.00  0.00    -0.346 N 
HETATM   65  C   UNK N   1       2.898   4.117  -0.140  0.00  0.00     0.122 A 
ATOM     66  HN  UNK N   1       1.166   5.169  -0.789  1.00  0.00     0.167 HD
HETATM   67  C   UNK N   1       3.959   5.001  -0.181  0.00  0.00     0.131 A 
HETATM   68  C   UNK N   1       3.091   2.843   0.258  0.00  0.00     0.142 A 
HETATM   69  N   UNK N   1       5.192   4.538   0.183  0.00  0.00    -0.337 N 
HETATM   70  C   UNK N   1       5.368   3.234   0.582  0.00  0.00     0.183 A 
ATOM     71  HN  UNK N   1       5.993   5.169   0.157  1.00  0.00     0.168 HD
HETATM   72  N   UNK N   1       4.304   2.371   0.625  0.00  0.00    -0.336 N 
ATOM     73  HN  UNK N   1       4.424   1.403   0.924  1.00  0.00     0.168 HD
BRANCH  67  74
HETATM   74  N   UNK N   1       3.782   6.337  -0.593  0.00  0.00    -0.383 N 
HETATM   75  H   UNK N   1       4.528   6.911  -0.881  0.00  0.00     0.157 HD
HETATM   76  H   UNK N   1       2.872   6.713  -0.593  0.00  0.00     0.157 HD
ENDBRANCH  67  74
ENDBRANCH  51  62
ENDBRANCH  47  48
ENDBRANCH  46  47
ENDBRANCH  42  46
ENDBRANCH  41  42
ENDBRANCH   2  41
TORSDOF 35
