MODEL 1
REMARK VINA RESULT:      -4.7      0.000      0.000
REMARK  0 active torsions:
REMARK  status: ('A' for Active; 'I' for Inactive)
ROOT
HETATM    1  O   UNK N   1      25.282  24.676  -6.254  0.00  0.00    -0.322 OA
HETATM    2  C   UNK N   1      25.900  23.648  -5.693  0.00  0.00     0.143 A 
HETATM    3  C   UNK N   1      26.475  24.055  -4.487  0.00  0.00     0.039 A 
HETATM    4  C   UNK N   1      26.153  25.384  -4.380  0.00  0.00    -0.001 A 
HETATM    5  C   UNK N   1      25.424  25.720  -5.481  0.00  0.00     0.085 A 
HETATM    6  C   UNK N   1      24.938  27.007  -5.681  0.00  0.00     0.038 A 
HETATM    7  C   UNK N   1      25.225  27.971  -4.696  0.00  0.00     0.003 A 
HETATM    8  C   UNK N   1      25.982  27.622  -3.552  0.00  0.00     0.001 A 
HETATM    9  C   UNK N   1      26.456  26.308  -3.386  0.00  0.00     0.014 A 
ENDROOT
TORSDOF 0
ENDMDL
MODEL 2
REMARK VINA RESULT:      -4.6     14.627     15.952
REMARK  0 active torsions:
REMARK  status: ('A' for Active; 'I' for Inactive)
ROOT
HETATM    1  O   UNK N   1      34.549  17.975   6.750  0.00  0.00    -0.322 OA
HETATM    2  C   UNK N   1      34.388  18.035   8.062  0.00  0.00     0.143 A 
HETATM    3  C   UNK N   1      33.064  17.723   8.382  0.00  0.00     0.039 A 
HETATM    4  C   UNK N   1      32.465  17.476   7.173  0.00  0.00    -0.001 A 
HETATM    5  C   UNK N   1      33.409  17.642   6.205  0.00  0.00     0.085 A 
HETATM    6  C   UNK N   1      33.124  17.465   4.855  0.00  0.00     0.038 A 
HETATM    7  C   UNK N   1      31.807  17.103   4.512  0.00  0.00     0.003 A 
HETATM    8  C   UNK N   1      30.827  16.931   5.518  0.00  0.00     0.001 A 
HETATM    9  C   UNK N   1      31.155  17.119   6.872  0.00  0.00     0.014 A 
ENDROOT
TORSDOF 0
ENDMDL
MODEL 3
REMARK VINA RESULT:      -4.5     19.388     20.446
REMARK  0 active torsions:
REMARK  status: ('A' for Active; 'I' for Inactive)
ROOT
HETATM    1  O   UNK N   1      24.253  13.038   9.964  0.00  0.00    -0.322 OA
HETATM    2  C   UNK N   1      24.658  12.194  10.899  0.00  0.00     0.143 A 
HETATM    3  C   UNK N   1      23.551  11.728  11.614  0.00  0.00     0.039 A 
HETATM    4  C   UNK N   1      22.477  12.354  11.035  0.00  0.00    -0.001 A 
HETATM    5  C   UNK N   1      22.952  13.144  10.032  0.00  0.00     0.085 A 
HETATM    6  C   UNK N   1      22.112  13.921   9.241  0.00  0.00     0.038 A 
HETATM    7  C   UNK N   1      20.731  13.866   9.511  0.00  0.00     0.003 A 
HETATM    8  C   UNK N   1      20.238  13.045  10.553  0.00  0.00     0.001 A 
HETATM    9  C   UNK N   1      21.120  12.274  11.331  0.00  0.00     0.014 A 
ENDROOT
TORSDOF 0
ENDMDL
MODEL 4
REMARK VINA RESULT:      -4.5     18.919     20.094
REMARK  0 active torsions:
REMARK  status: ('A' for Active; 'I' for Inactive)
ROOT
HETATM    1  O   UNK N   1      22.107  14.106   8.620  0.00  0.00    -0.322 OA
HETATM    2  C   UNK N   1      20.835  14.116   8.986  0.00  0.00     0.143 A 
HETATM    3  C   UNK N   1      20.685  13.368  10.157  0.00  0.00     0.039 A 
HETATM    4  C   UNK N   1      21.949  12.924  10.449  0.00  0.00    -0.001 A 
HETATM    5  C   UNK N   1      22.785  13.398   9.485  0.00  0.00     0.085 A 
HETATM    6  C   UNK N   1      24.149  13.126   9.488  0.00  0.00     0.038 A 
HETATM    7  C   UNK N   1      24.650  12.331  10.536  0.00  0.00     0.003 A 
HETATM    8  C   UNK N   1      23.781  11.838  11.539  0.00  0.00     0.001 A 
HETATM    9  C   UNK N   1      22.407  12.136  11.500  0.00  0.00     0.014 A 
ENDROOT
TORSDOF 0
ENDMDL
MODEL 5
REMARK VINA RESULT:      -4.4     19.740     20.939
REMARK  0 active torsions:
REMARK  status: ('A' for Active; 'I' for Inactive)
ROOT
HETATM    1  O   UNK N   1      24.338  12.021  12.229  0.00  0.00    -0.322 OA
HETATM    2  C   UNK N   1      23.246  11.842  12.954  0.00  0.00     0.143 A 
HETATM    3  C   UNK N   1      22.121  11.943  12.131  0.00  0.00     0.039 A 
HETATM    4  C   UNK N   1      22.628  12.192  10.881  0.00  0.00    -0.001 A 
HETATM    5  C   UNK N   1      23.985  12.232  10.988  0.00  0.00     0.085 A 
HETATM    6  C   UNK N   1      24.807  12.467   9.892  0.00  0.00     0.038 A 
HETATM    7  C   UNK N   1      24.185  12.666   8.644  0.00  0.00     0.003 A 
HETATM    8  C   UNK N   1      22.775  12.625   8.533  0.00  0.00     0.001 A 
HETATM    9  C   UNK N   1      21.978  12.384   9.667  0.00  0.00     0.014 A 
ENDROOT
TORSDOF 0
ENDMDL
MODEL 6
REMARK VINA RESULT:      -4.3     26.112     27.279
REMARK  0 active torsions:
REMARK  status: ('A' for Active; 'I' for Inactive)
ROOT
HETATM    1  O   UNK N   1      34.368  12.706  15.071  0.00  0.00    -0.322 OA
HETATM    2  C   UNK N   1      34.276  11.540  14.453  0.00  0.00     0.143 A 
HETATM    3  C   UNK N   1      34.588  10.514  15.348  0.00  0.00     0.039 A 
HETATM    4  C   UNK N   1      34.868  11.157  16.527  0.00  0.00    -0.001 A 
HETATM    5  C   UNK N   1      34.721  12.494  16.312  0.00  0.00     0.085 A 
HETATM    6  C   UNK N   1      34.934  13.433  17.315  0.00  0.00     0.038 A 
HETATM    7  C   UNK N   1      35.312  12.954  18.584  0.00  0.00     0.003 A 
HETATM    8  C   UNK N   1      35.465  11.564  18.807  0.00  0.00     0.001 A 
HETATM    9  C   UNK N   1      35.241  10.646  17.766  0.00  0.00     0.014 A 
ENDROOT
TORSDOF 0
ENDMDL
MODEL 7
REMARK VINA RESULT:      -4.3     19.360     20.525
REMARK  0 active torsions:
REMARK  status: ('A' for Active; 'I' for Inactive)
ROOT
HETATM    1  O   UNK N   1      20.874  12.602  11.100  0.00  0.00    -0.322 OA
HETATM    2  C   UNK N   1      20.361  13.369  10.152  0.00  0.00     0.143 A 
HETATM    3  C   UNK N   1      21.386  13.819   9.315  0.00  0.00     0.039 A 
HETATM    4  C   UNK N   1      22.527  13.266   9.837  0.00  0.00    -0.001 A 
HETATM    5  C   UNK N   1      22.167  12.531  10.926  0.00  0.00     0.085 A 
HETATM    6  C   UNK N   1      23.098  11.835  11.689  0.00  0.00     0.038 A 
HETATM    7  C   UNK N   1      24.448  11.912  11.297  0.00  0.00     0.003 A 
HETATM    8  C   UNK N   1      24.822  12.676  10.166  0.00  0.00     0.001 A 
HETATM    9  C   UNK N   1      23.850  13.366   9.419  0.00  0.00     0.014 A 
ENDROOT
TORSDOF 0
ENDMDL
MODEL 8
REMARK VINA RESULT:      -4.2     19.549     20.673
REMARK  0 active torsions:
REMARK  status: ('A' for Active; 'I' for Inactive)
ROOT
HETATM    1  O   UNK N   1      20.750  12.869  10.062  0.00  0.00    -0.322 OA
HETATM    2  C   UNK N   1      20.326  12.343  11.200  0.00  0.00     0.143 A 
HETATM    3  C   UNK N   1      21.424  11.901  11.942  0.00  0.00     0.039 A 
HETATM    4  C   UNK N   1      22.513  12.202  11.165  0.00  0.00    -0.001 A 
HETATM    5  C   UNK N   1      22.054  12.792  10.026  0.00  0.00     0.085 A 
HETATM    6  C   UNK N   1      22.911  13.223   9.019  0.00  0.00     0.038 A 
HETATM    7  C   UNK N   1      24.292  13.028   9.213  0.00  0.00     0.003 A 
HETATM    8  C   UNK N   1      24.768  12.415  10.397  0.00  0.00     0.001 A 
HETATM    9  C   UNK N   1      23.869  11.993  11.393  0.00  0.00     0.014 A 
ENDROOT
TORSDOF 0
ENDMDL
MODEL 9
REMARK VINA RESULT:      -4.1      0.878      1.962
REMARK  0 active torsions:
REMARK  status: ('A' for Active; 'I' for Inactive)
ROOT
HETATM    1  O   UNK N   1      26.660  24.154  -4.844  0.00  0.00    -0.322 OA
HETATM    2  C   UNK N   1      26.290  23.857  -6.079  0.00  0.00     0.143 A 
HETATM    3  C   UNK N   1      25.642  24.957  -6.646  0.00  0.00     0.039 A 
HETATM    4  C   UNK N   1      25.659  25.914  -5.664  0.00  0.00    -0.001 A 
HETATM    5  C   UNK N   1      26.290  25.380  -4.581  0.00  0.00     0.085 A 
HETATM    6  C   UNK N   1      26.476  26.098  -3.405  0.00  0.00     0.038 A 
HETATM    7  C   UNK N   1      25.983  27.416  -3.363  0.00  0.00     0.003 A 
HETATM    8  C   UNK N   1      25.327  27.970  -4.489  0.00  0.00     0.001 A 
HETATM    9  C   UNK N   1      25.159  27.212  -5.661  0.00  0.00     0.014 A 
ENDROOT
TORSDOF 0
ENDMDL
