MODEL 1
REMARK VINA RESULT:      -6.5      0.000      0.000
REMARK  6 active torsions:
REMARK  status: ('A' for Active; 'I' for Inactive)
REMARK    1  A    between atoms: C_6  and  C_3 
REMARK    2  A    between atoms: O_18  and  C_3 
REMARK    3  A    between atoms: N_12  and  C_5 
REMARK    4  A    between atoms: C_8  and  O_19 
REMARK    5  A    between atoms: C_9  and  O_20 
REMARK    6  A    between atoms: C_11  and  N_17 
ROOT
HETATM    1  C   UNK N   1      28.288  17.904   9.037  0.00  0.00     0.048 A 
HETATM    2  C   UNK N   1      29.409  17.610   9.850  0.00  0.00     0.092 A 
HETATM    3  C   UNK N   1      31.366  17.055   5.903  0.00  0.00     0.188 A 
HETATM    4  C   UNK N   1      28.415  17.854   7.635  0.00  0.00     0.058 A 
HETATM    5  C   UNK N   1      29.659  17.517   7.114  0.00  0.00     0.104 A 
HETATM    6  C   UNK N   1      30.699  17.234   7.928  0.00  0.00     0.140 A 
HETATM    7  N   UNK N   1      30.607  17.269   9.283  0.00  0.00    -0.350 N 
ATOM      8  HN  UNK N   1      31.414  17.046   9.865  1.00  0.00     0.166 HD
HETATM    9  N   UNK N   1      30.050  17.410   5.830  0.00  0.00    -0.347 N 
ATOM     10  HN  UNK N   1      29.490  17.560   4.991  1.00  0.00     0.167 HD
HETATM   11  N   UNK N   1      31.774  16.937   7.195  0.00  0.00    -0.297 N 
ENDROOT
BRANCH  11  12
HETATM   12  C   UNK N   1      33.080  16.532   7.720  0.00  0.00     0.262 C 
HETATM   13  C   UNK N   1      33.850  17.634   8.416  0.00  0.00     0.198 C 
HETATM   14  C   UNK N   1      34.944  16.811   9.054  0.00  0.00     0.182 C 
HETATM   15  C   UNK N   1      34.236  15.452   9.278  0.00  0.00     0.179 C 
HETATM   16  O   UNK N   1      32.942  15.547   8.714  0.00  0.00    -0.353 OA
BRANCH  13  17
HETATM   17  O   UNK N   1      34.344  18.610   7.547  0.00  0.00    -0.388 OA
HETATM   18  H   UNK N   1      35.234  18.776   7.199  0.00  0.00     0.210 HD
ENDBRANCH  13  17
BRANCH  14  19
HETATM   19  O   UNK N   1      35.419  17.416  10.222  0.00  0.00    -0.390 OA
HETATM   20  H   UNK N   1      35.727  18.317  10.408  0.00  0.00     0.210 HD
ENDBRANCH  14  19
BRANCH  15  21
HETATM   21  C   UNK N   1      34.155  15.002  10.730  0.00  0.00     0.198 C 
BRANCH  21  22
HETATM   22  O   UNK N   1      32.825  15.029  11.158  0.00  0.00    -0.398 OA
HETATM   23  H   UNK N   1      32.081  14.848  10.563  0.00  0.00     0.209 HD
ENDBRANCH  21  22
ENDBRANCH  15  21
ENDBRANCH  11  12
BRANCH   4  24
HETATM   24  N   UNK N   1      27.317  18.132   6.799  0.00  0.00    -0.397 N 
HETATM   25  H   UNK N   1      27.426  18.583   5.930  0.00  0.00     0.156 HD
HETATM   26  H   UNK N   1      26.414  17.869   7.091  0.00  0.00     0.156 HD
ENDBRANCH   4  24
TORSDOF 6
ENDMDL
MODEL 2
REMARK VINA RESULT:      -6.0      3.814      5.779
REMARK  6 active torsions:
REMARK  status: ('A' for Active; 'I' for Inactive)
REMARK    1  A    between atoms: C_6  and  C_3 
REMARK    2  A    between atoms: O_18  and  C_3 
REMARK    3  A    between atoms: N_12  and  C_5 
REMARK    4  A    between atoms: C_8  and  O_19 
REMARK    5  A    between atoms: C_9  and  O_20 
REMARK    6  A    between atoms: C_11  and  N_17 
ROOT
HETATM    1  C   UNK N   1      32.494  15.899   8.220  0.00  0.00     0.048 A 
HETATM    2  C   UNK N   1      32.464  14.600   8.784  0.00  0.00     0.092 A 
HETATM    3  C   UNK N   1      35.615  16.318  11.398  0.00  0.00     0.188 A 
HETATM    4  C   UNK N   1      33.387  16.858   8.735  0.00  0.00     0.058 A 
HETATM    5  C   UNK N   1      34.202  16.475   9.793  0.00  0.00     0.104 A 
HETATM    6  C   UNK N   1      34.146  15.221  10.294  0.00  0.00     0.140 A 
HETATM    7  N   UNK N   1      33.300  14.272   9.816  0.00  0.00    -0.350 N 
ATOM      8  HN  UNK N   1      33.289  13.335  10.218  1.00  0.00     0.166 HD
HETATM    9  N   UNK N   1      35.122  17.189  10.470  0.00  0.00    -0.347 N 
ATOM     10  HN  UNK N   1      35.391  18.161  10.323  1.00  0.00     0.167 HD
HETATM   11  N   UNK N   1      35.023  15.098  11.293  0.00  0.00    -0.297 N 
ENDROOT
BRANCH  11  12
HETATM   12  C   UNK N   1      35.285  13.873  12.053  0.00  0.00     0.262 C 
HETATM   13  C   UNK N   1      36.653  13.267  11.821  0.00  0.00     0.198 C 
HETATM   14  C   UNK N   1      36.670  12.251  12.940  0.00  0.00     0.182 C 
HETATM   15  C   UNK N   1      35.771  12.930  14.003  0.00  0.00     0.179 C 
HETATM   16  O   UNK N   1      35.266  14.123  13.437  0.00  0.00    -0.353 OA
BRANCH  13  17
HETATM   17  O   UNK N   1      36.802  12.684  10.560  0.00  0.00    -0.388 OA
HETATM   18  H   UNK N   1      36.163  12.271   9.958  0.00  0.00     0.210 HD
ENDBRANCH  13  17
BRANCH  14  19
HETATM   19  O   UNK N   1      37.975  11.988  13.366  0.00  0.00    -0.390 OA
HETATM   20  H   UNK N   1      38.723  12.572  13.568  0.00  0.00     0.210 HD
ENDBRANCH  14  19
BRANCH  15  21
HETATM   21  C   UNK N   1      36.455  13.216  15.332  0.00  0.00     0.198 C 
BRANCH  21  22
HETATM   22  O   UNK N   1      37.421  14.212  15.161  0.00  0.00    -0.398 OA
HETATM   23  H   UNK N   1      37.954  14.555  15.896  0.00  0.00     0.209 HD
ENDBRANCH  21  22
ENDBRANCH  15  21
ENDBRANCH  11  12
BRANCH   4  24
HETATM   24  N   UNK N   1      33.448  18.155   8.190  0.00  0.00    -0.397 N 
HETATM   25  H   UNK N   1      33.440  18.312   7.218  0.00  0.00     0.156 HD
HETATM   26  H   UNK N   1      33.502  18.928   8.799  0.00  0.00     0.156 HD
ENDBRANCH   4  24
TORSDOF 6
ENDMDL
MODEL 3
REMARK VINA RESULT:      -5.9      8.365     11.014
REMARK  6 active torsions:
REMARK  status: ('A' for Active; 'I' for Inactive)
REMARK    1  A    between atoms: C_6  and  C_3 
REMARK    2  A    between atoms: O_18  and  C_3 
REMARK    3  A    between atoms: N_12  and  C_5 
REMARK    4  A    between atoms: C_8  and  O_19 
REMARK    5  A    between atoms: C_9  and  O_20 
REMARK    6  A    between atoms: C_11  and  N_17 
ROOT
HETATM    1  C   UNK N   1      27.794  20.132   4.911  0.00  0.00     0.048 A 
HETATM    2  C   UNK N   1      26.638  20.926   5.105  0.00  0.00     0.092 A 
HETATM    3  C   UNK N   1      24.628  17.331   3.445  0.00  0.00     0.188 A 
HETATM    4  C   UNK N   1      27.664  18.838   4.371  0.00  0.00     0.058 A 
HETATM    5  C   UNK N   1      26.384  18.397   4.058  0.00  0.00     0.104 A 
HETATM    6  C   UNK N   1      25.310  19.193   4.250  0.00  0.00     0.140 A 
HETATM    7  N   UNK N   1      25.402  20.446   4.763  0.00  0.00    -0.350 N 
ATOM      8  HN  UNK N   1      24.568  21.019   4.891  1.00  0.00     0.166 HD
HETATM    9  N   UNK N   1      25.984  17.216   3.548  0.00  0.00    -0.347 N 
ATOM     10  HN  UNK N   1      26.564  16.415   3.296  1.00  0.00     0.167 HD
HETATM   11  N   UNK N   1      24.202  18.551   3.869  0.00  0.00    -0.297 N 
ENDROOT
BRANCH  11  12
HETATM   12  C   UNK N   1      22.847  19.105   3.884  0.00  0.00     0.262 C 
HETATM   13  C   UNK N   1      22.549  20.076   2.762  0.00  0.00     0.198 C 
HETATM   14  C   UNK N   1      21.051  20.192   2.922  0.00  0.00     0.182 C 
HETATM   15  C   UNK N   1      20.680  18.803   3.500  0.00  0.00     0.179 C 
HETATM   16  O   UNK N   1      21.886  18.093   3.708  0.00  0.00    -0.353 OA
BRANCH  13  17
HETATM   17  O   UNK N   1      23.203  21.303   2.894  0.00  0.00    -0.388 OA
HETATM   18  H   UNK N   1      23.507  21.948   2.236  0.00  0.00     0.210 HD
ENDBRANCH  13  17
BRANCH  14  19
HETATM   19  O   UNK N   1      20.433  20.497   1.705  0.00  0.00    -0.390 OA
HETATM   20  H   UNK N   1      20.787  20.634   0.813  0.00  0.00     0.210 HD
ENDBRANCH  14  19
BRANCH  15  21
HETATM   21  C   UNK N   1      19.720  17.988   2.645  0.00  0.00     0.198 C 
BRANCH  21  22
HETATM   22  O   UNK N   1      18.502  18.664   2.530  0.00  0.00    -0.398 OA
HETATM   23  H   UNK N   1      17.858  18.464   1.832  0.00  0.00     0.209 HD
ENDBRANCH  21  22
ENDBRANCH  15  21
ENDBRANCH  11  12
BRANCH   4  24
HETATM   24  N   UNK N   1      28.796  18.026   4.158  0.00  0.00    -0.397 N 
HETATM   25  H   UNK N   1      28.722  17.123   3.772  0.00  0.00     0.156 HD
HETATM   26  H   UNK N   1      29.685  18.372   4.401  0.00  0.00     0.156 HD
ENDBRANCH   4  24
TORSDOF 6
ENDMDL
MODEL 4
REMARK VINA RESULT:      -5.9      3.610      6.523
REMARK  6 active torsions:
REMARK  status: ('A' for Active; 'I' for Inactive)
REMARK    1  A    between atoms: C_6  and  C_3 
REMARK    2  A    between atoms: O_18  and  C_3 
REMARK    3  A    between atoms: N_12  and  C_5 
REMARK    4  A    between atoms: C_8  and  O_19 
REMARK    5  A    between atoms: C_9  and  O_20 
REMARK    6  A    between atoms: C_11  and  N_17 
ROOT
HETATM    1  C   UNK N   1      37.054  12.703   9.454  0.00  0.00     0.048 A 
HETATM    2  C   UNK N   1      36.199  13.103   8.398  0.00  0.00     0.092 A 
HETATM    3  C   UNK N   1      35.442  16.533  11.114  0.00  0.00     0.188 A 
HETATM    4  C   UNK N   1      37.157  13.508  10.605  0.00  0.00     0.058 A 
HETATM    5  C   UNK N   1      36.405  14.676  10.643  0.00  0.00     0.104 A 
HETATM    6  C   UNK N   1      35.594  15.012   9.616  0.00  0.00     0.140 A 
HETATM    7  N   UNK N   1      35.469  14.256   8.495  0.00  0.00    -0.350 N 
ATOM      8  HN  UNK N   1      34.844  14.542   7.741  1.00  0.00     0.166 HD
HETATM    9  N   UNK N   1      36.328  15.617  11.604  0.00  0.00    -0.347 N 
ATOM     10  HN  UNK N   1      36.820  15.639  12.497  1.00  0.00     0.167 HD
HETATM   11  N   UNK N   1      34.978  16.166   9.890  0.00  0.00    -0.297 N 
ENDROOT
BRANCH  11  12
HETATM   12  C   UNK N   1      33.988  16.828   9.038  0.00  0.00     0.262 C 
HETATM   13  C   UNK N   1      34.575  17.673   7.928  0.00  0.00     0.198 C 
HETATM   14  C   UNK N   1      33.324  17.933   7.122  0.00  0.00     0.182 C 
HETATM   15  C   UNK N   1      32.485  16.664   7.411  0.00  0.00     0.179 C 
HETATM   16  O   UNK N   1      33.200  15.886   8.353  0.00  0.00    -0.353 OA
BRANCH  13  17
HETATM   17  O   UNK N   1      35.182  18.848   8.378  0.00  0.00    -0.388 OA
HETATM   18  H   UNK N   1      35.395  19.680   7.927  0.00  0.00     0.210 HD
ENDBRANCH  13  17
BRANCH  14  19
HETATM   19  O   UNK N   1      33.623  18.134   5.771  0.00  0.00    -0.390 OA
HETATM   20  H   UNK N   1      33.225  18.704   5.094  0.00  0.00     0.210 HD
ENDBRANCH  14  19
BRANCH  15  21
HETATM   21  C   UNK N   1      32.137  15.831   6.185  0.00  0.00     0.198 C 
BRANCH  21  22
HETATM   22  O   UNK N   1      33.282  15.182   5.715  0.00  0.00    -0.398 OA
HETATM   23  H   UNK N   1      33.651  14.397   6.149  0.00  0.00     0.209 HD
ENDBRANCH  21  22
ENDBRANCH  15  21
ENDBRANCH  11  12
BRANCH   4  24
HETATM   24  N   UNK N   1      37.991  13.134  11.677  0.00  0.00    -0.397 N 
HETATM   25  H   UNK N   1      37.699  12.492  12.363  0.00  0.00     0.156 HD
HETATM   26  H   UNK N   1      38.892  13.527  11.741  0.00  0.00     0.156 HD
ENDBRANCH   4  24
TORSDOF 6
ENDMDL
MODEL 5
REMARK VINA RESULT:      -5.8      3.997      6.862
REMARK  6 active torsions:
REMARK  status: ('A' for Active; 'I' for Inactive)
REMARK    1  A    between atoms: C_6  and  C_3 
REMARK    2  A    between atoms: O_18  and  C_3 
REMARK    3  A    between atoms: N_12  and  C_5 
REMARK    4  A    between atoms: C_8  and  O_19 
REMARK    5  A    between atoms: C_9  and  O_20 
REMARK    6  A    between atoms: C_11  and  N_17 
ROOT
HETATM    1  C   UNK N   1      35.585  12.395  13.589  0.00  0.00     0.048 A 
HETATM    2  C   UNK N   1      34.773  11.967  12.511  0.00  0.00     0.092 A 
HETATM    3  C   UNK N   1      35.755  16.007  10.953  0.00  0.00     0.188 A 
HETATM    4  C   UNK N   1      36.156  13.682  13.557  0.00  0.00     0.058 A 
HETATM    5  C   UNK N   1      35.893  14.476  12.448  0.00  0.00     0.104 A 
HETATM    6  C   UNK N   1      35.103  14.029  11.447  0.00  0.00     0.140 A 
HETATM    7  N   UNK N   1      34.534  12.796  11.449  0.00  0.00    -0.350 N 
ATOM      8  HN  UNK N   1      33.941  12.495  10.676  1.00  0.00     0.166 HD
HETATM    9  N   UNK N   1      36.317  15.723  12.164  0.00  0.00    -0.347 N 
ATOM     10  HN  UNK N   1      36.922  16.320  12.727  1.00  0.00     0.167 HD
HETATM   11  N   UNK N   1      34.998  14.970  10.505  0.00  0.00    -0.297 N 
ENDROOT
BRANCH  11  12
HETATM   12  C   UNK N   1      34.189  14.872   9.287  0.00  0.00     0.262 C 
HETATM   13  C   UNK N   1      32.891  15.649   9.327  0.00  0.00     0.198 C 
HETATM   14  C   UNK N   1      32.501  15.562   7.870  0.00  0.00     0.182 C 
HETATM   15  C   UNK N   1      33.881  15.476   7.173  0.00  0.00     0.179 C 
HETATM   16  O   UNK N   1      34.868  15.422   8.185  0.00  0.00    -0.353 OA
BRANCH  13  17
HETATM   17  O   UNK N   1      31.931  15.095  10.178  0.00  0.00    -0.388 OA
HETATM   18  H   UNK N   1      31.424  14.269  10.131  0.00  0.00     0.210 HD
ENDBRANCH  13  17
BRANCH  14  19
HETATM   19  O   UNK N   1      31.725  16.660   7.486  0.00  0.00    -0.390 OA
HETATM   20  H   UNK N   1      30.766  16.785   7.417  0.00  0.00     0.210 HD
ENDBRANCH  14  19
BRANCH  15  21
HETATM   21  C   UNK N   1      34.178  16.606   6.197  0.00  0.00     0.198 C 
BRANCH  21  22
HETATM   22  O   UNK N   1      34.519  17.763   6.904  0.00  0.00    -0.398 OA
HETATM   23  H   UNK N   1      34.124  18.628   6.711  0.00  0.00     0.209 HD
ENDBRANCH  21  22
ENDBRANCH  15  21
ENDBRANCH  11  12
BRANCH   4  24
HETATM   24  N   UNK N   1      36.961  14.142  14.618  0.00  0.00    -0.397 N 
HETATM   25  H   UNK N   1      37.561  13.539  15.114  0.00  0.00     0.156 HD
HETATM   26  H   UNK N   1      36.924  15.094  14.869  0.00  0.00     0.156 HD
ENDBRANCH   4  24
TORSDOF 6
ENDMDL
MODEL 6
REMARK VINA RESULT:      -5.7      8.936     11.672
REMARK  6 active torsions:
REMARK  status: ('A' for Active; 'I' for Inactive)
REMARK    1  A    between atoms: C_6  and  C_3 
REMARK    2  A    between atoms: O_18  and  C_3 
REMARK    3  A    between atoms: N_12  and  C_5 
REMARK    4  A    between atoms: C_8  and  O_19 
REMARK    5  A    between atoms: C_9  and  O_20 
REMARK    6  A    between atoms: C_11  and  N_17 
ROOT
HETATM    1  C   UNK N   1      26.839  17.887   4.737  0.00  0.00     0.048 A 
HETATM    2  C   UNK N   1      25.742  17.020   4.956  0.00  0.00     0.092 A 
HETATM    3  C   UNK N   1      23.514  20.327   3.003  0.00  0.00     0.188 A 
HETATM    4  C   UNK N   1      26.626  19.133   4.117  0.00  0.00     0.058 A 
HETATM    5  C   UNK N   1      25.326  19.449   3.740  0.00  0.00     0.104 A 
HETATM    6  C   UNK N   1      24.307  18.595   3.977  0.00  0.00     0.140 A 
HETATM    7  N   UNK N   1      24.479  17.389   4.576  0.00  0.00    -0.350 N 
ATOM      8  HN  UNK N   1      23.685  16.771   4.742  1.00  0.00     0.166 HD
HETATM    9  N   UNK N   1      24.855  20.553   3.127  0.00  0.00    -0.347 N 
ATOM     10  HN  UNK N   1      25.381  21.373   2.825  1.00  0.00     0.167 HD
HETATM   11  N   UNK N   1      23.165  19.124   3.530  0.00  0.00    -0.297 N 
ENDROOT
BRANCH  11  12
HETATM   12  C   UNK N   1      21.838  18.515   3.649  0.00  0.00     0.262 C 
HETATM   13  C   UNK N   1      20.709  19.346   3.081  0.00  0.00     0.198 C 
HETATM   14  C   UNK N   1      19.602  18.318   3.108  0.00  0.00     0.182 C 
HETATM   15  C   UNK N   1      20.388  16.995   2.929  0.00  0.00     0.179 C 
HETATM   16  O   UNK N   1      21.766  17.316   2.917  0.00  0.00    -0.353 OA
BRANCH  13  17
HETATM   17  O   UNK N   1      20.411  20.481   3.839  0.00  0.00    -0.388 OA
HETATM   18  H   UNK N   1      20.824  20.856   4.632  0.00  0.00     0.210 HD
ENDBRANCH  13  17
BRANCH  14  19
HETATM   19  O   UNK N   1      18.654  18.567   2.111  0.00  0.00    -0.390 OA
HETATM   20  H   UNK N   1      18.380  18.059   1.331  0.00  0.00     0.210 HD
ENDBRANCH  14  19
BRANCH  15  21
HETATM   21  C   UNK N   1      20.015  16.189   1.693  0.00  0.00     0.198 C 
BRANCH  21  22
HETATM   22  O   UNK N   1      20.451  16.858   0.545  0.00  0.00    -0.398 OA
HETATM   23  H   UNK N   1      20.629  17.811   0.532  0.00  0.00     0.209 HD
ENDBRANCH  21  22
ENDBRANCH  15  21
ENDBRANCH  11  12
BRANCH   4  24
HETATM   24  N   UNK N   1      27.695  20.023   3.894  0.00  0.00    -0.397 N 
HETATM   25  H   UNK N   1      27.819  20.480   3.031  0.00  0.00     0.156 HD
HETATM   26  H   UNK N   1      28.336  20.193   4.622  0.00  0.00     0.156 HD
ENDBRANCH   4  24
TORSDOF 6
ENDMDL
MODEL 7
REMARK VINA RESULT:      -5.7     11.355     13.334
REMARK  6 active torsions:
REMARK  status: ('A' for Active; 'I' for Inactive)
REMARK    1  A    between atoms: C_6  and  C_3 
REMARK    2  A    between atoms: O_18  and  C_3 
REMARK    3  A    between atoms: N_12  and  C_5 
REMARK    4  A    between atoms: C_8  and  O_19 
REMARK    5  A    between atoms: C_9  and  O_20 
REMARK    6  A    between atoms: C_11  and  N_17 
ROOT
HETATM    1  C   UNK N   1      19.505  14.472   1.014  0.00  0.00     0.048 A 
HETATM    2  C   UNK N   1      19.893  15.751   0.549  0.00  0.00     0.092 A 
HETATM    3  C   UNK N   1      20.135  16.596   4.901  0.00  0.00     0.188 A 
HETATM    4  C   UNK N   1      19.423  14.233   2.399  0.00  0.00     0.058 A 
HETATM    5  C   UNK N   1      19.739  15.284   3.253  0.00  0.00     0.104 A 
HETATM    6  C   UNK N   1      20.095  16.492   2.764  0.00  0.00     0.140 A 
HETATM    7  N   UNK N   1      20.179  16.755   1.434  0.00  0.00    -0.350 N 
ATOM      8  HN  UNK N   1      20.449  17.681   1.103  1.00  0.00     0.166 HD
HETATM    9  N   UNK N   1      19.753  15.321   4.599  0.00  0.00    -0.347 N 
ATOM     10  HN  UNK N   1      19.529  14.567   5.248  1.00  0.00     0.167 HD
HETATM   11  N   UNK N   1      20.342  17.329   3.774  0.00  0.00    -0.297 N 
ENDROOT
BRANCH  11  12
HETATM   12  C   UNK N   1      20.710  18.741   3.642  0.00  0.00     0.262 C 
HETATM   13  C   UNK N   1      22.174  18.986   3.346  0.00  0.00     0.198 C 
HETATM   14  C   UNK N   1      22.116  20.455   2.995  0.00  0.00     0.182 C 
HETATM   15  C   UNK N   1      20.687  20.591   2.415  0.00  0.00     0.179 C 
HETATM   16  O   UNK N   1      20.049  19.336   2.553  0.00  0.00    -0.353 OA
BRANCH  13  17
HETATM   17  O   UNK N   1      23.018  18.721   4.426  0.00  0.00    -0.388 OA
HETATM   18  H   UNK N   1      23.037  19.066   5.333  0.00  0.00     0.210 HD
ENDBRANCH  13  17
BRANCH  14  19
HETATM   19  O   UNK N   1      23.138  20.805   2.107  0.00  0.00    -0.390 OA
HETATM   20  H   UNK N   1      23.923  21.365   2.208  0.00  0.00     0.210 HD
ENDBRANCH  14  19
BRANCH  15  21
HETATM   21  C   UNK N   1      20.624  21.066   0.970  0.00  0.00     0.198 C 
BRANCH  21  22
HETATM   22  O   UNK N   1      20.756  19.974   0.108  0.00  0.00    -0.398 OA
HETATM   23  H   UNK N   1      21.167  19.140   0.382  0.00  0.00     0.209 HD
ENDBRANCH  21  22
ENDBRANCH  15  21
ENDBRANCH  11  12
BRANCH   4  24
HETATM   24  N   UNK N   1      19.031  12.974   2.895  0.00  0.00    -0.397 N 
HETATM   25  H   UNK N   1      19.104  12.156   2.352  0.00  0.00     0.156 HD
HETATM   26  H   UNK N   1      18.673  12.911   3.810  0.00  0.00     0.156 HD
ENDBRANCH   4  24
TORSDOF 6
ENDMDL
MODEL 8
REMARK VINA RESULT:      -5.6      1.620      2.626
REMARK  6 active torsions:
REMARK  status: ('A' for Active; 'I' for Inactive)
REMARK    1  A    between atoms: C_6  and  C_3 
REMARK    2  A    between atoms: O_18  and  C_3 
REMARK    3  A    between atoms: N_12  and  C_5 
REMARK    4  A    between atoms: C_8  and  O_19 
REMARK    5  A    between atoms: C_9  and  O_20 
REMARK    6  A    between atoms: C_11  and  N_17 
ROOT
HETATM    1  C   UNK N   1      27.602  19.304   5.764  0.00  0.00     0.048 A 
HETATM    2  C   UNK N   1      28.535  18.418   5.173  0.00  0.00     0.092 A 
HETATM    3  C   UNK N   1      29.704  17.786   9.410  0.00  0.00     0.188 A 
HETATM    4  C   UNK N   1      27.584  19.461   7.163  0.00  0.00     0.058 A 
HETATM    5  C   UNK N   1      28.496  18.720   7.905  0.00  0.00     0.104 A 
HETATM    6  C   UNK N   1      29.376  17.894   7.298  0.00  0.00     0.140 A 
HETATM    7  N   UNK N   1      29.422  17.724   5.952  0.00  0.00    -0.350 N 
ATOM      8  HN  UNK N   1      30.103  17.094   5.530  1.00  0.00     0.166 HD
HETATM    9  N   UNK N   1      28.681  18.673   9.239  0.00  0.00    -0.347 N 
ATOM     10  HN  UNK N   1      28.172  19.186   9.959  1.00  0.00     0.167 HD
HETATM   11  N   UNK N   1      30.144  17.304   8.217  0.00  0.00    -0.297 N 
ENDROOT
BRANCH  11  12
HETATM   12  C   UNK N   1      31.244  16.376   7.943  0.00  0.00     0.262 C 
HETATM   13  C   UNK N   1      32.511  17.031   7.438  0.00  0.00     0.198 C 
HETATM   14  C   UNK N   1      33.461  15.861   7.554  0.00  0.00     0.182 C 
HETATM   15  C   UNK N   1      32.854  15.070   8.738  0.00  0.00     0.179 C 
HETATM   16  O   UNK N   1      31.656  15.721   9.117  0.00  0.00    -0.353 OA
BRANCH  13  17
HETATM   17  O   UNK N   1      32.410  17.518   6.133  0.00  0.00    -0.388 OA
HETATM   18  H   UNK N   1      31.859  17.246   5.382  0.00  0.00     0.210 HD
ENDBRANCH  13  17
BRANCH  14  19
HETATM   19  O   UNK N   1      34.775  16.293   7.758  0.00  0.00    -0.390 OA
HETATM   20  H   UNK N   1      35.631  15.911   7.510  0.00  0.00     0.210 HD
ENDBRANCH  14  19
BRANCH  15  21
HETATM   21  C   UNK N   1      33.775  14.904   9.938  0.00  0.00     0.198 C 
BRANCH  21  22
HETATM   22  O   UNK N   1      33.037  15.021  11.119  0.00  0.00    -0.398 OA
HETATM   23  H   UNK N   1      33.067  15.814  11.677  0.00  0.00     0.209 HD
ENDBRANCH  21  22
ENDBRANCH  15  21
ENDBRANCH  11  12
BRANCH   4  24
HETATM   24  N   UNK N   1      26.674  20.341   7.781  0.00  0.00    -0.397 N 
HETATM   25  H   UNK N   1      25.744  20.079   7.969  0.00  0.00     0.156 HD
HETATM   26  H   UNK N   1      26.977  21.244   8.032  0.00  0.00     0.156 HD
ENDBRANCH   4  24
TORSDOF 6
ENDMDL
MODEL 9
REMARK VINA RESULT:      -5.6      5.124      7.936
REMARK  6 active torsions:
REMARK  status: ('A' for Active; 'I' for Inactive)
REMARK    1  A    between atoms: C_6  and  C_3 
REMARK    2  A    between atoms: O_18  and  C_3 
REMARK    3  A    between atoms: N_12  and  C_5 
REMARK    4  A    between atoms: C_8  and  O_19 
REMARK    5  A    between atoms: C_9  and  O_20 
REMARK    6  A    between atoms: C_11  and  N_17 
ROOT
HETATM    1  C   UNK N   1      35.053  10.508  14.044  0.00  0.00     0.048 A 
HETATM    2  C   UNK N   1      34.459  10.969  12.843  0.00  0.00     0.092 A 
HETATM    3  C   UNK N   1      36.562  14.719  13.953  0.00  0.00     0.188 A 
HETATM    4  C   UNK N   1      35.854  11.383  14.801  0.00  0.00     0.058 A 
HETATM    5  C   UNK N   1      36.029  12.675  14.320  0.00  0.00     0.104 A 
HETATM    6  C   UNK N   1      35.435  13.075  13.174  0.00  0.00     0.140 A 
HETATM    7  N   UNK N   1      34.653  12.257  12.423  0.00  0.00    -0.350 N 
ATOM      8  HN  UNK N   1      34.219  12.595  11.565  1.00  0.00     0.166 HD
HETATM    9  N   UNK N   1      36.745  13.693  14.834  0.00  0.00    -0.347 N 
ATOM     10  HN  UNK N   1      37.300  13.697  15.690  1.00  0.00     0.167 HD
HETATM   11  N   UNK N   1      35.749  14.349  12.928  0.00  0.00    -0.297 N 
ENDROOT
BRANCH  11  12
HETATM   12  C   UNK N   1      35.258  15.146  11.801  0.00  0.00     0.262 C 
HETATM   13  C   UNK N   1      36.082  15.028  10.537  0.00  0.00     0.198 C 
HETATM   14  C   UNK N   1      35.148  15.710   9.565  0.00  0.00     0.182 C 
HETATM   15  C   UNK N   1      33.761  15.404  10.181  0.00  0.00     0.179 C 
HETATM   16  O   UNK N   1      33.978  14.722  11.402  0.00  0.00    -0.353 OA
BRANCH  13  17
HETATM   17  O   UNK N   1      37.328  15.653  10.619  0.00  0.00    -0.388 OA
HETATM   18  H   UNK N   1      37.625  16.447  11.092  0.00  0.00     0.210 HD
ENDBRANCH  13  17
BRANCH  14  19
HETATM   19  O   UNK N   1      35.326  15.224   8.266  0.00  0.00    -0.390 OA
HETATM   20  H   UNK N   1      36.113  15.137   7.705  0.00  0.00     0.210 HD
ENDBRANCH  14  19
BRANCH  15  21
HETATM   21  C   UNK N   1      32.822  14.610   9.284  0.00  0.00     0.198 C 
BRANCH  21  22
HETATM   22  O   UNK N   1      33.140  13.251   9.353  0.00  0.00    -0.398 OA
HETATM   23  H   UNK N   1      34.029  12.913   9.163  0.00  0.00     0.209 HD
ENDBRANCH  21  22
ENDBRANCH  15  21
ENDBRANCH  11  12
BRANCH   4  24
HETATM   24  N   UNK N   1      36.451  10.958  16.005  0.00  0.00    -0.397 N 
HETATM   25  H   UNK N   1      37.142  10.257  16.023  0.00  0.00     0.156 HD
HETATM   26  H   UNK N   1      36.170  11.375  16.851  0.00  0.00     0.156 HD
ENDBRANCH   4  24
TORSDOF 6
ENDMDL
