MODEL 1
REMARK VINA RESULT:      -8.7      0.000      0.000
REMARK  18 active torsions:
REMARK  status: ('A' for Active; 'I' for Inactive)
REMARK    1  A    between atoms: C_13  and  C_7 
REMARK    2  A    between atoms: C_7  and  O_43 
REMARK    3  A    between atoms: C_14  and  C_8 
REMARK    4  A    between atoms: C_8  and  O_44 
REMARK    5  A    between atoms: C_9  and  C_21 
REMARK    6  A    between atoms: C_11  and  N_22 
REMARK    7  A    between atoms: C_15  and  O_31 
REMARK    8  A    between atoms: C_16  and  O_32 
REMARK    9  A    between atoms: C_17  and  O_33 
REMARK   10  A    between atoms: C_18  and  O_34 
REMARK   11  A    between atoms: C_19  and  N_29 
REMARK   12  A    between atoms: C_20  and  N_30 
REMARK   13  A    between atoms: C_21  and  O_37 
REMARK   14  A    between atoms: O_36  and  P_47 
REMARK   15  A    between atoms: O_43  and  P_46 
REMARK   16  A    between atoms: O_44  and  P_47 
REMARK   17  A    between atoms: O_45  and  P_46 
REMARK   18  A    between atoms: O_45  and  P_47 
ROOT
HETATM    1  O   UNK N   1      24.004  16.122   6.331  0.00  0.00    -0.307 OA
HETATM    2  O   UNK N   1      22.880  15.884   3.950  0.00  0.00    -0.631 OA
HETATM    3  P   UNK N   1      23.511  16.949   4.887  0.00  0.00     0.401 P 
HETATM    4  H   UNK N   1      24.244  15.515   7.049  0.00  0.00     0.222 HD
ENDROOT
BRANCH   3   5
HETATM    5  O   UNK N   1      22.335  18.202   5.249  0.00  0.00    -0.294 OA
BRANCH   5   6
HETATM    6  C   UNK N   1      22.621  19.291   4.429  0.00  0.00     0.215 C 
BRANCH   6   7
HETATM    7  C   UNK N   1      21.677  19.340   3.236  0.00  0.00     0.180 C 
HETATM    8  C   UNK N   1      21.927  20.331   2.123  0.00  0.00     0.182 C 
HETATM    9  C   UNK N   1      20.558  20.325   1.481  0.00  0.00     0.198 C 
HETATM   10  C   UNK N   1      19.740  19.289   2.270  0.00  0.00     0.262 C 
HETATM   11  O   UNK N   1      20.306  19.373   3.552  0.00  0.00    -0.353 OA
BRANCH   8  12
HETATM   12  O   UNK N   1      22.160  21.603   2.651  0.00  0.00    -0.390 OA
HETATM   13  H   UNK N   1      21.893  21.809   3.561  0.00  0.00     0.210 HD
ENDBRANCH   8  12
BRANCH   9  14
HETATM   14  O   UNK N   1      20.601  20.106   0.105  0.00  0.00    -0.388 OA
HETATM   15  H   UNK N   1      20.209  20.747  -0.510  0.00  0.00     0.210 HD
ENDBRANCH   9  14
BRANCH  10  16
HETATM   16  N   UNK N   1      19.871  17.894   1.789  0.00  0.00    -0.297 N 
HETATM   17  C   UNK N   1      20.089  17.459   0.519  0.00  0.00     0.188 A 
HETATM   18  N   UNK N   1      20.208  16.102   0.469  0.00  0.00    -0.346 N 
HETATM   19  C   UNK N   1      20.042  15.704   1.745  0.00  0.00     0.122 A 
ATOM     20  HN  UNK N   1      20.383  15.519  -0.349  1.00  0.00     0.167 HD
HETATM   21  C   UNK N   1      20.073  14.432   2.296  0.00  0.00     0.131 A 
HETATM   22  C   UNK N   1      19.829  16.773   2.530  0.00  0.00     0.142 A 
HETATM   23  N   UNK N   1      19.865  14.309   3.641  0.00  0.00    -0.337 N 
HETATM   24  C   UNK N   1      19.632  15.414   4.422  0.00  0.00     0.183 A 
ATOM     25  HN  UNK N   1      19.882  13.384   4.070  1.00  0.00     0.168 HD
HETATM   26  N   UNK N   1      19.618  16.663   3.865  0.00  0.00    -0.336 N 
ATOM     27  HN  UNK N   1      19.453  17.490   4.439  1.00  0.00     0.168 HD
BRANCH  21  28
HETATM   28  N   UNK N   1      20.321  13.295   1.502  0.00  0.00    -0.383 N 
HETATM   29  H   UNK N   1      21.154  13.143   1.002  0.00  0.00     0.157 HD
HETATM   30  H   UNK N   1      19.616  12.609   1.445  0.00  0.00     0.157 HD
ENDBRANCH  21  28
ENDBRANCH  10  16
ENDBRANCH   6   7
ENDBRANCH   5   6
ENDBRANCH   3   5
BRANCH   3  31
HETATM   31  O   UNK N   1      24.890  17.572   4.032  0.00  0.00    -0.195 OA
BRANCH  31  32
HETATM   32  P   UNK N   1      26.236  16.603   4.544  0.00  0.00     0.401 P 
HETATM   33  O   UNK N   1      27.419  16.928   3.594  0.00  0.00    -0.631 OA
BRANCH  32  34
HETATM   34  O   UNK N   1      25.879  14.919   4.316  0.00  0.00    -0.307 OA
HETATM   35  H   UNK N   1      25.386  14.430   4.993  0.00  0.00     0.222 HD
ENDBRANCH  32  34
BRANCH  32  36
HETATM   36  O   UNK N   1      26.746  16.986   6.171  0.00  0.00    -0.294 OA
BRANCH  36  37
HETATM   37  C   UNK N   1      27.310  18.257   6.092  0.00  0.00     0.215 C 
BRANCH  37  38
HETATM   38  C   UNK N   1      28.647  18.294   6.824  0.00  0.00     0.180 C 
HETATM   39  C   UNK N   1      28.492  18.896   8.203  0.00  0.00     0.182 C 
HETATM   40  C   UNK N   1      29.791  18.438   8.797  0.00  0.00     0.198 C 
HETATM   41  C   UNK N   1      30.103  17.137   8.069  0.00  0.00     0.259 C 
HETATM   42  O   UNK N   1      29.192  17.009   6.998  0.00  0.00    -0.353 OA
BRANCH  39  43
HETATM   43  O   UNK N   1      27.421  18.289   8.872  0.00  0.00    -0.390 OA
HETATM   44  H   UNK N   1      27.312  18.208   9.831  0.00  0.00     0.210 HD
ENDBRANCH  39  43
BRANCH  40  45
HETATM   45  O   UNK N   1      29.702  18.240  10.177  0.00  0.00    -0.388 OA
HETATM   46  H   UNK N   1      29.557  18.956  10.816  0.00  0.00     0.210 HD
ENDBRANCH  40  45
BRANCH  41  47
HETATM   47  N   UNK N   1      31.494  17.166   7.596  0.00  0.00    -0.336 N 
HETATM   48  C   UNK N   1      31.781  16.657   6.363  0.00  0.00     0.093 A 
HETATM   49  C   UNK N   1      33.094  16.632   5.891  0.00  0.00     0.018 A 
HETATM   50  C   UNK N   1      34.118  17.130   6.694  0.00  0.00     0.021 A 
HETATM   51  C   UNK N   1      33.823  17.657   7.953  0.00  0.00     0.053 A 
HETATM   52  C   UNK N   1      32.490  17.668   8.387  0.00  0.00     0.111 A 
BRANCH  51  53
HETATM   53  C   UNK N   1      34.902  18.181   8.813  0.00  0.00     0.177 C 
HETATM   54  O   UNK N   1      35.340  17.509   9.734  0.00  0.00    -0.646 OA
BRANCH  53  55
HETATM   55  O   UNK N   1      35.418  19.404   8.583  0.00  0.00    -0.773 OA
HETATM   56  H   UNK N   1      36.324  19.572   8.754  0.00  0.00     0.167 HD
ENDBRANCH  53  55
ENDBRANCH  51  53
ENDBRANCH  41  47
ENDBRANCH  37  38
ENDBRANCH  36  37
ENDBRANCH  32  36
ENDBRANCH  31  32
ENDBRANCH   3  31
TORSDOF 18
ENDMDL
MODEL 2
REMARK VINA RESULT:      -8.2      5.370      9.291
REMARK  18 active torsions:
REMARK  status: ('A' for Active; 'I' for Inactive)
REMARK    1  A    between atoms: C_13  and  C_7 
REMARK    2  A    between atoms: C_7  and  O_43 
REMARK    3  A    between atoms: C_14  and  C_8 
REMARK    4  A    between atoms: C_8  and  O_44 
REMARK    5  A    between atoms: C_9  and  C_21 
REMARK    6  A    between atoms: C_11  and  N_22 
REMARK    7  A    between atoms: C_15  and  O_31 
REMARK    8  A    between atoms: C_16  and  O_32 
REMARK    9  A    between atoms: C_17  and  O_33 
REMARK   10  A    between atoms: C_18  and  O_34 
REMARK   11  A    between atoms: C_19  and  N_29 
REMARK   12  A    between atoms: C_20  and  N_30 
REMARK   13  A    between atoms: C_21  and  O_37 
REMARK   14  A    between atoms: O_36  and  P_47 
REMARK   15  A    between atoms: O_43  and  P_46 
REMARK   16  A    between atoms: O_44  and  P_47 
REMARK   17  A    between atoms: O_45  and  P_46 
REMARK   18  A    between atoms: O_45  and  P_47 
ROOT
HETATM    1  O   UNK N   1      33.148  15.183   8.197  0.00  0.00    -0.307 OA
HETATM    2  O   UNK N   1      34.473  14.804   5.941  0.00  0.00    -0.631 OA
HETATM    3  P   UNK N   1      33.460  15.781   6.597  0.00  0.00     0.401 P 
HETATM    4  H   UNK N   1      33.106  14.741   9.060  0.00  0.00     0.222 HD
ENDROOT
BRANCH   3   5
HETATM    5  O   UNK N   1      31.983  15.840   5.648  0.00  0.00    -0.294 OA
BRANCH   5   6
HETATM    6  C   UNK N   1      31.561  17.167   5.617  0.00  0.00     0.215 C 
BRANCH   6   7
HETATM    7  C   UNK N   1      30.122  17.294   6.093  0.00  0.00     0.180 C 
HETATM    8  C   UNK N   1      29.838  17.623   7.540  0.00  0.00     0.182 C 
HETATM    9  C   UNK N   1      28.392  17.184   7.609  0.00  0.00     0.198 C 
HETATM   10  C   UNK N   1      28.033  16.730   6.183  0.00  0.00     0.262 C 
HETATM   11  O   UNK N   1      29.262  16.251   5.703  0.00  0.00    -0.353 OA
BRANCH   8  12
HETATM   12  O   UNK N   1      30.588  16.797   8.380  0.00  0.00    -0.390 OA
HETATM   13  H   UNK N   1      30.617  16.969   9.334  0.00  0.00     0.210 HD
ENDBRANCH   8  12
BRANCH   9  14
HETATM   14  O   UNK N   1      27.549  18.160   8.137  0.00  0.00    -0.388 OA
HETATM   15  H   UNK N   1      27.437  18.250   9.097  0.00  0.00     0.210 HD
ENDBRANCH   9  14
BRANCH  10  16
HETATM   16  N   UNK N   1      27.567  17.811   5.284  0.00  0.00    -0.297 N 
HETATM   17  C   UNK N   1      28.317  18.716   4.599  0.00  0.00     0.188 A 
HETATM   18  N   UNK N   1      27.538  19.527   3.827  0.00  0.00    -0.346 N 
HETATM   19  C   UNK N   1      26.281  19.108   4.064  0.00  0.00     0.122 A 
ATOM     20  HN  UNK N   1      27.840  20.280   3.209  1.00  0.00     0.167 HD
HETATM   21  C   UNK N   1      25.076  19.557   3.545  0.00  0.00     0.131 A 
HETATM   22  C   UNK N   1      26.299  18.092   4.943  0.00  0.00     0.142 A 
HETATM   23  N   UNK N   1      23.928  18.949   3.967  0.00  0.00    -0.337 N 
HETATM   24  C   UNK N   1      23.968  17.924   4.878  0.00  0.00     0.183 A 
ATOM     25  HN  UNK N   1      23.029  19.261   3.599  1.00  0.00     0.168 HD
HETATM   26  N   UNK N   1      25.165  17.484   5.371  0.00  0.00    -0.336 N 
ATOM     27  HN  UNK N   1      25.205  16.717   6.043  1.00  0.00     0.168 HD
BRANCH  21  28
HETATM   28  N   UNK N   1      25.029  20.603   2.602  0.00  0.00    -0.383 N 
HETATM   29  H   UNK N   1      25.237  20.493   1.646  0.00  0.00     0.157 HD
HETATM   30  H   UNK N   1      24.770  21.499   2.918  0.00  0.00     0.157 HD
ENDBRANCH  21  28
ENDBRANCH  10  16
ENDBRANCH   6   7
ENDBRANCH   5   6
ENDBRANCH   3   5
BRANCH   3  31
HETATM   31  O   UNK N   1      34.261  17.321   6.660  0.00  0.00    -0.195 OA
BRANCH  31  32
HETATM   32  P   UNK N   1      34.553  17.630   8.344  0.00  0.00     0.401 P 
HETATM   33  O   UNK N   1      33.168  17.726   9.036  0.00  0.00    -0.631 OA
BRANCH  32  34
HETATM   34  O   UNK N   1      35.305  19.182   8.543  0.00  0.00    -0.307 OA
HETATM   35  H   UNK N   1      36.268  19.270   8.468  0.00  0.00     0.222 HD
ENDBRANCH  32  34
BRANCH  32  36
HETATM   36  O   UNK N   1      35.437  16.331   9.110  0.00  0.00    -0.294 OA
BRANCH  36  37
HETATM   37  C   UNK N   1      35.139  16.434  10.467  0.00  0.00     0.215 C 
BRANCH  37  38
HETATM   38  C   UNK N   1      35.454  15.125  11.183  0.00  0.00     0.180 C 
HETATM   39  C   UNK N   1      36.567  14.379  10.482  0.00  0.00     0.182 C 
HETATM   40  C   UNK N   1      36.920  13.417  11.578  0.00  0.00     0.198 C 
HETATM   41  C   UNK N   1      36.580  14.164  12.862  0.00  0.00     0.259 C 
HETATM   42  O   UNK N   1      35.874  15.335  12.509  0.00  0.00    -0.353 OA
BRANCH  39  43
HETATM   43  O   UNK N   1      37.644  15.243  10.241  0.00  0.00    -0.390 OA
HETATM   44  H   UNK N   1      38.520  15.201  10.653  0.00  0.00     0.210 HD
ENDBRANCH  39  43
BRANCH  40  45
HETATM   45  O   UNK N   1      38.267  13.048  11.546  0.00  0.00    -0.388 OA
HETATM   46  H   UNK N   1      38.642  12.432  10.896  0.00  0.00     0.210 HD
ENDBRANCH  40  45
BRANCH  41  47
HETATM   47  N   UNK N   1      35.781  13.292  13.734  0.00  0.00    -0.336 N 
HETATM   48  C   UNK N   1      34.965  12.358  13.163  0.00  0.00     0.093 A 
HETATM   49  C   UNK N   1      34.163  11.535  13.954  0.00  0.00     0.018 A 
HETATM   50  C   UNK N   1      34.197  11.675  15.340  0.00  0.00     0.021 A 
HETATM   51  C   UNK N   1      35.037  12.626  15.924  0.00  0.00     0.053 A 
HETATM   52  C   UNK N   1      35.831  13.429  15.094  0.00  0.00     0.111 A 
BRANCH  51  53
HETATM   53  C   UNK N   1      35.075  12.786  17.390  0.00  0.00     0.177 C 
HETATM   54  O   UNK N   1      34.946  13.890  17.895  0.00  0.00    -0.646 OA
BRANCH  53  55
HETATM   55  O   UNK N   1      35.246  11.710  18.185  0.00  0.00    -0.773 OA
HETATM   56  H   UNK N   1      34.837  10.896  17.967  0.00  0.00     0.167 HD
ENDBRANCH  53  55
ENDBRANCH  51  53
ENDBRANCH  41  47
ENDBRANCH  37  38
ENDBRANCH  36  37
ENDBRANCH  32  36
ENDBRANCH  31  32
ENDBRANCH   3  31
TORSDOF 18
ENDMDL
MODEL 3
REMARK VINA RESULT:      -8.0      2.197      3.907
REMARK  18 active torsions:
REMARK  status: ('A' for Active; 'I' for Inactive)
REMARK    1  A    between atoms: C_13  and  C_7 
REMARK    2  A    between atoms: C_7  and  O_43 
REMARK    3  A    between atoms: C_14  and  C_8 
REMARK    4  A    between atoms: C_8  and  O_44 
REMARK    5  A    between atoms: C_9  and  C_21 
REMARK    6  A    between atoms: C_11  and  N_22 
REMARK    7  A    between atoms: C_15  and  O_31 
REMARK    8  A    between atoms: C_16  and  O_32 
REMARK    9  A    between atoms: C_17  and  O_33 
REMARK   10  A    between atoms: C_18  and  O_34 
REMARK   11  A    between atoms: C_19  and  N_29 
REMARK   12  A    between atoms: C_20  and  N_30 
REMARK   13  A    between atoms: C_21  and  O_37 
REMARK   14  A    between atoms: O_36  and  P_47 
REMARK   15  A    between atoms: O_43  and  P_46 
REMARK   16  A    between atoms: O_44  and  P_47 
REMARK   17  A    between atoms: O_45  and  P_46 
REMARK   18  A    between atoms: O_45  and  P_47 
ROOT
HETATM    1  O   UNK N   1      28.024  15.445   5.494  0.00  0.00    -0.307 OA
HETATM    2  O   UNK N   1      27.278  14.029   3.390  0.00  0.00    -0.631 OA
HETATM    3  P   UNK N   1      26.701  14.983   4.471  0.00  0.00     0.401 P 
HETATM    4  H   UNK N   1      28.863  15.627   5.947  0.00  0.00     0.222 HD
ENDROOT
BRANCH   3   5
HETATM    5  O   UNK N   1      25.451  14.161   5.391  0.00  0.00    -0.294 OA
BRANCH   5   6
HETATM    6  C   UNK N   1      24.892  15.094   6.261  0.00  0.00     0.215 C 
BRANCH   6   7
HETATM    7  C   UNK N   1      23.463  15.429   5.858  0.00  0.00     0.180 C 
HETATM    8  C   UNK N   1      22.340  15.234   6.851  0.00  0.00     0.182 C 
HETATM    9  C   UNK N   1      21.169  15.234   5.894  0.00  0.00     0.198 C 
HETATM   10  C   UNK N   1      21.775  15.494   4.504  0.00  0.00     0.262 C 
HETATM   11  O   UNK N   1      23.048  14.912   4.618  0.00  0.00    -0.353 OA
BRANCH   8  12
HETATM   12  O   UNK N   1      22.428  13.970   7.438  0.00  0.00    -0.390 OA
HETATM   13  H   UNK N   1      23.196  13.403   7.262  0.00  0.00     0.210 HD
ENDBRANCH   8  12
BRANCH   9  14
HETATM   14  O   UNK N   1      20.161  16.123   6.263  0.00  0.00    -0.388 OA
HETATM   15  H   UNK N   1      19.491  15.866   6.917  0.00  0.00     0.210 HD
ENDBRANCH   9  14
BRANCH  10  16
HETATM   16  N   UNK N   1      21.943  16.924   4.155  0.00  0.00    -0.297 N 
HETATM   17  C   UNK N   1      23.048  17.702   4.306  0.00  0.00     0.188 A 
HETATM   18  N   UNK N   1      22.844  18.959   3.820  0.00  0.00    -0.346 N 
HETATM   19  C   UNK N   1      21.573  18.944   3.375  0.00  0.00     0.122 A 
ATOM     20  HN  UNK N   1      23.504  19.736   3.798  1.00  0.00     0.167 HD
HETATM   21  C   UNK N   1      20.826  19.942   2.769  0.00  0.00     0.131 A 
HETATM   22  C   UNK N   1      21.033  17.733   3.587  0.00  0.00     0.142 A 
HETATM   23  N   UNK N   1      19.538  19.656   2.416  0.00  0.00    -0.337 N 
HETATM   24  C   UNK N   1      19.000  18.417   2.656  0.00  0.00     0.183 A 
ATOM     25  HN  UNK N   1      18.968  20.374   1.968  1.00  0.00     0.168 HD
HETATM   26  N   UNK N   1      19.754  17.439   3.244  0.00  0.00    -0.336 N 
ATOM     27  HN  UNK N   1      19.365  16.512   3.420  1.00  0.00     0.168 HD
BRANCH  21  28
HETATM   28  N   UNK N   1      21.375  21.214   2.510  0.00  0.00    -0.383 N 
HETATM   29  H   UNK N   1      22.008  21.403   1.781  0.00  0.00     0.157 HD
HETATM   30  H   UNK N   1      21.107  21.960   3.094  0.00  0.00     0.157 HD
ENDBRANCH  21  28
ENDBRANCH  10  16
ENDBRANCH   6   7
ENDBRANCH   5   6
ENDBRANCH   3   5
BRANCH   3  31
HETATM   31  O   UNK N   1      26.081  16.357   3.607  0.00  0.00    -0.195 OA
BRANCH  31  32
HETATM   32  P   UNK N   1      26.905  17.736   4.266  0.00  0.00     0.401 P 
HETATM   33  O   UNK N   1      26.236  18.999   3.661  0.00  0.00    -0.631 OA
BRANCH  32  34
HETATM   34  O   UNK N   1      28.556  17.757   3.728  0.00  0.00    -0.307 OA
HETATM   35  H   UNK N   1      29.250  17.351   4.271  0.00  0.00     0.222 HD
ENDBRANCH  32  34
BRANCH  32  36
HETATM   36  O   UNK N   1      26.744  17.835   6.003  0.00  0.00    -0.294 OA
BRANCH  36  37
HETATM   37  C   UNK N   1      27.335  19.045   6.361  0.00  0.00     0.215 C 
BRANCH  37  38
HETATM   38  C   UNK N   1      28.673  18.802   7.048  0.00  0.00     0.180 C 
HETATM   39  C   UNK N   1      28.560  19.012   8.542  0.00  0.00     0.182 C 
HETATM   40  C   UNK N   1      29.830  18.333   8.964  0.00  0.00     0.198 C 
HETATM   41  C   UNK N   1      30.059  17.265   7.902  0.00  0.00     0.259 C 
HETATM   42  O   UNK N   1      29.138  17.488   6.855  0.00  0.00    -0.353 OA
BRANCH  39  43
HETATM   43  O   UNK N   1      27.455  18.308   9.041  0.00  0.00    -0.390 OA
HETATM   44  H   UNK N   1      26.560  18.656   9.168  0.00  0.00     0.210 HD
ENDBRANCH  39  43
BRANCH  40  45
HETATM   45  O   UNK N   1      29.733  17.771  10.239  0.00  0.00    -0.388 OA
HETATM   46  H   UNK N   1      29.096  17.078  10.475  0.00  0.00     0.210 HD
ENDBRANCH  40  45
BRANCH  41  47
HETATM   47  N   UNK N   1      31.448  17.340   7.428  0.00  0.00    -0.336 N 
HETATM   48  C   UNK N   1      31.733  16.928   6.159  0.00  0.00     0.093 A 
HETATM   49  C   UNK N   1      33.044  16.949   5.682  0.00  0.00     0.018 A 
HETATM   50  C   UNK N   1      34.068  17.393   6.516  0.00  0.00     0.021 A 
HETATM   51  C   UNK N   1      33.774  17.821   7.813  0.00  0.00     0.053 A 
HETATM   52  C   UNK N   1      32.443  17.789   8.251  0.00  0.00     0.111 A 
BRANCH  51  53
HETATM   53  C   UNK N   1      34.852  18.288   8.706  0.00  0.00     0.177 C 
HETATM   54  O   UNK N   1      35.338  19.399   8.561  0.00  0.00    -0.646 OA
BRANCH  53  55
HETATM   55  O   UNK N   1      35.305  17.491   9.694  0.00  0.00    -0.773 OA
HETATM   56  H   UNK N   1      35.978  16.863   9.519  0.00  0.00     0.167 HD
ENDBRANCH  53  55
ENDBRANCH  51  53
ENDBRANCH  41  47
ENDBRANCH  37  38
ENDBRANCH  36  37
ENDBRANCH  32  36
ENDBRANCH  31  32
ENDBRANCH   3  31
TORSDOF 18
ENDMDL
MODEL 4
REMARK VINA RESULT:      -8.0      9.055     14.139
REMARK  18 active torsions:
REMARK  status: ('A' for Active; 'I' for Inactive)
REMARK    1  A    between atoms: C_13  and  C_7 
REMARK    2  A    between atoms: C_7  and  O_43 
REMARK    3  A    between atoms: C_14  and  C_8 
REMARK    4  A    between atoms: C_8  and  O_44 
REMARK    5  A    between atoms: C_9  and  C_21 
REMARK    6  A    between atoms: C_11  and  N_22 
REMARK    7  A    between atoms: C_15  and  O_31 
REMARK    8  A    between atoms: C_16  and  O_32 
REMARK    9  A    between atoms: C_17  and  O_33 
REMARK   10  A    between atoms: C_18  and  O_34 
REMARK   11  A    between atoms: C_19  and  N_29 
REMARK   12  A    between atoms: C_20  and  N_30 
REMARK   13  A    between atoms: C_21  and  O_37 
REMARK   14  A    between atoms: O_36  and  P_47 
REMARK   15  A    between atoms: O_43  and  P_46 
REMARK   16  A    between atoms: O_44  and  P_47 
REMARK   17  A    between atoms: O_45  and  P_46 
REMARK   18  A    between atoms: O_45  and  P_47 
ROOT
HETATM    1  O   UNK N   1      34.552  12.599  12.784  0.00  0.00    -0.307 OA
HETATM    2  O   UNK N   1      36.217  13.603  10.992  0.00  0.00    -0.631 OA
HETATM    3  P   UNK N   1      35.181  14.046  12.061  0.00  0.00     0.401 P 
HETATM    4  H   UNK N   1      34.327  11.710  13.101  0.00  0.00     0.222 HD
ENDROOT
BRANCH   3   5
HETATM    5  O   UNK N   1      33.901  14.979  11.303  0.00  0.00    -0.294 OA
BRANCH   5   6
HETATM    6  C   UNK N   1      33.613  14.376  10.081  0.00  0.00     0.215 C 
BRANCH   6   7
HETATM    7  C   UNK N   1      33.617  15.396   8.953  0.00  0.00     0.180 C 
HETATM    8  C   UNK N   1      34.627  15.274   7.835  0.00  0.00     0.182 C 
HETATM    9  C   UNK N   1      34.548  16.680   7.283  0.00  0.00     0.198 C 
HETATM   10  C   UNK N   1      33.462  17.386   8.113  0.00  0.00     0.262 C 
HETATM   11  O   UNK N   1      33.570  16.743   9.356  0.00  0.00    -0.353 OA
BRANCH   8  12
HETATM   12  O   UNK N   1      35.907  15.079   8.360  0.00  0.00    -0.390 OA
HETATM   13  H   UNK N   1      36.045  15.077   9.320  0.00  0.00     0.210 HD
ENDBRANCH   8  12
BRANCH   9  14
HETATM   14  O   UNK N   1      34.340  16.714   5.905  0.00  0.00    -0.388 OA
HETATM   15  H   UNK N   1      33.446  16.622   5.538  0.00  0.00     0.210 HD
ENDBRANCH   9  14
BRANCH  10  16
HETATM   16  N   UNK N   1      32.079  17.208   7.611  0.00  0.00    -0.297 N 
HETATM   17  C   UNK N   1      31.674  16.608   6.460  0.00  0.00     0.188 A 
HETATM   18  N   UNK N   1      30.314  16.585   6.361  0.00  0.00    -0.346 N 
HETATM   19  C   UNK N   1      29.887  17.203   7.479  0.00  0.00     0.122 A 
ATOM     20  HN  UNK N   1      29.748  16.189   5.611  1.00  0.00     0.167 HD
HETATM   21  C   UNK N   1      28.598  17.459   7.921  0.00  0.00     0.131 A 
HETATM   22  C   UNK N   1      30.942  17.585   8.217  0.00  0.00     0.142 A 
HETATM   23  N   UNK N   1      28.446  18.118   9.108  0.00  0.00    -0.337 N 
HETATM   24  C   UNK N   1      29.537  18.515   9.839  0.00  0.00     0.183 A 
ATOM     25  HN  UNK N   1      27.508  18.319   9.455  1.00  0.00     0.168 HD
HETATM   26  N   UNK N   1      30.802  18.243   9.395  0.00  0.00    -0.336 N 
ATOM     27  HN  UNK N   1      31.619  18.528   9.935  1.00  0.00     0.168 HD
BRANCH  21  28
HETATM   28  N   UNK N   1      27.473  17.046   7.181  0.00  0.00    -0.383 N 
HETATM   29  H   UNK N   1      27.482  16.878   6.212  0.00  0.00     0.157 HD
HETATM   30  H   UNK N   1      26.624  16.918   7.664  0.00  0.00     0.157 HD
ENDBRANCH  21  28
ENDBRANCH  10  16
ENDBRANCH   6   7
ENDBRANCH   5   6
ENDBRANCH   3   5
BRANCH   3  31
HETATM   31  O   UNK N   1      36.072  14.979  13.224  0.00  0.00    -0.195 OA
BRANCH  31  32
HETATM   32  P   UNK N   1      36.526  13.862  14.473  0.00  0.00     0.401 P 
HETATM   33  O   UNK N   1      37.474  14.620  15.440  0.00  0.00    -0.631 OA
BRANCH  32  34
HETATM   34  O   UNK N   1      37.458  12.561  13.800  0.00  0.00    -0.307 OA
HETATM   35  H   UNK N   1      37.399  11.672  14.182  0.00  0.00     0.222 HD
ENDBRANCH  32  34
BRANCH  32  36
HETATM   36  O   UNK N   1      35.151  13.316  15.404  0.00  0.00    -0.294 OA
BRANCH  36  37
HETATM   37  C   UNK N   1      35.637  13.104  16.692  0.00  0.00     0.215 C 
BRANCH  37  38
HETATM   38  C   UNK N   1      35.080  11.807  17.266  0.00  0.00     0.180 C 
HETATM   39  C   UNK N   1      35.340  10.646  16.332  0.00  0.00     0.182 C 
HETATM   40  C   UNK N   1      35.080   9.521  17.291  0.00  0.00     0.198 C 
HETATM   41  C   UNK N   1      35.457  10.090  18.653  0.00  0.00     0.259 C 
HETATM   42  O   UNK N   1      35.671  11.477  18.500  0.00  0.00    -0.353 OA
BRANCH  39  43
HETATM   43  O   UNK N   1      36.685  10.638  15.941  0.00  0.00    -0.390 OA
HETATM   44  H   UNK N   1      37.028  10.422  15.061  0.00  0.00     0.210 HD
ENDBRANCH  39  43
BRANCH  40  45
HETATM   45  O   UNK N   1      35.833   8.383  16.989  0.00  0.00    -0.388 OA
HETATM   46  H   UNK N   1      35.600   7.489  17.284  0.00  0.00     0.210 HD
ENDBRANCH  40  45
BRANCH  41  47
HETATM   47  N   UNK N   1      34.379   9.810  19.611  0.00  0.00    -0.336 N 
HETATM   48  C   UNK N   1      34.390  10.446  20.819  0.00  0.00     0.093 A 
HETATM   49  C   UNK N   1      33.405  10.181  21.771  0.00  0.00     0.018 A 
HETATM   50  C   UNK N   1      32.406   9.255  21.482  0.00  0.00     0.021 A 
HETATM   51  C   UNK N   1      32.391   8.610  20.243  0.00  0.00     0.053 A 
HETATM   52  C   UNK N   1      33.396   8.908  19.313  0.00  0.00     0.111 A 
BRANCH  51  53
HETATM   53  C   UNK N   1      31.340   7.622  19.930  0.00  0.00     0.177 C 
HETATM   54  O   UNK N   1      31.638   6.508  19.531  0.00  0.00    -0.646 OA
BRANCH  53  55
HETATM   55  O   UNK N   1      30.041   7.942  20.090  0.00  0.00    -0.773 OA
HETATM   56  H   UNK N   1      29.700   8.107  20.948  0.00  0.00     0.167 HD
ENDBRANCH  53  55
ENDBRANCH  51  53
ENDBRANCH  41  47
ENDBRANCH  37  38
ENDBRANCH  36  37
ENDBRANCH  32  36
ENDBRANCH  31  32
ENDBRANCH   3  31
TORSDOF 18
ENDMDL
MODEL 5
REMARK VINA RESULT:      -7.9      5.525      9.356
REMARK  18 active torsions:
REMARK  status: ('A' for Active; 'I' for Inactive)
REMARK    1  A    between atoms: C_13  and  C_7 
REMARK    2  A    between atoms: C_7  and  O_43 
REMARK    3  A    between atoms: C_14  and  C_8 
REMARK    4  A    between atoms: C_8  and  O_44 
REMARK    5  A    between atoms: C_9  and  C_21 
REMARK    6  A    between atoms: C_11  and  N_22 
REMARK    7  A    between atoms: C_15  and  O_31 
REMARK    8  A    between atoms: C_16  and  O_32 
REMARK    9  A    between atoms: C_17  and  O_33 
REMARK   10  A    between atoms: C_18  and  O_34 
REMARK   11  A    between atoms: C_19  and  N_29 
REMARK   12  A    between atoms: C_20  and  N_30 
REMARK   13  A    between atoms: C_21  and  O_37 
REMARK   14  A    between atoms: O_36  and  P_47 
REMARK   15  A    between atoms: O_43  and  P_46 
REMARK   16  A    between atoms: O_44  and  P_47 
REMARK   17  A    between atoms: O_45  and  P_46 
REMARK   18  A    between atoms: O_45  and  P_47 
ROOT
HETATM    1  O   UNK N   1      32.109  15.184  10.036  0.00  0.00    -0.307 OA
HETATM    2  O   UNK N   1      33.257  15.440   7.668  0.00  0.00    -0.631 OA
HETATM    3  P   UNK N   1      32.230  16.145   8.596  0.00  0.00     0.401 P 
HETATM    4  H   UNK N   1      32.177  14.561  10.777  0.00  0.00     0.222 HD
ENDROOT
BRANCH   3   5
HETATM    5  O   UNK N   1      30.676  16.266   7.786  0.00  0.00    -0.294 OA
BRANCH   5   6
HETATM    6  C   UNK N   1      30.832  17.142   6.715  0.00  0.00     0.215 C 
BRANCH   6   7
HETATM    7  C   UNK N   1      30.193  16.582   5.453  0.00  0.00     0.180 C 
HETATM    8  C   UNK N   1      30.440  15.142   5.064  0.00  0.00     0.182 C 
HETATM    9  C   UNK N   1      30.032  15.211   3.609  0.00  0.00     0.198 C 
HETATM   10  C   UNK N   1      29.549  16.655   3.387  0.00  0.00     0.262 C 
HETATM   11  O   UNK N   1      30.332  17.377   4.301  0.00  0.00    -0.353 OA
BRANCH   8  12
HETATM   12  O   UNK N   1      31.804  14.852   5.125  0.00  0.00    -0.390 OA
HETATM   13  H   UNK N   1      32.103  13.948   5.309  0.00  0.00     0.210 HD
ENDBRANCH   8  12
BRANCH   9  14
HETATM   14  O   UNK N   1      29.109  14.229   3.254  0.00  0.00    -0.388 OA
HETATM   15  H   UNK N   1      29.338  13.550   2.599  0.00  0.00     0.210 HD
ENDBRANCH   9  14
BRANCH  10  16
HETATM   16  N   UNK N   1      28.121  16.890   3.704  0.00  0.00    -0.297 N 
HETATM   17  C   UNK N   1      27.099  15.993   3.695  0.00  0.00     0.188 A 
HETATM   18  N   UNK N   1      25.929  16.565   4.098  0.00  0.00    -0.346 N 
HETATM   19  C   UNK N   1      26.251  17.849   4.344  0.00  0.00     0.122 A 
ATOM     20  HN  UNK N   1      25.015  16.122   4.192  1.00  0.00     0.167 HD
HETATM   21  C   UNK N   1      25.464  18.899   4.791  0.00  0.00     0.131 A 
HETATM   22  C   UNK N   1      27.557  18.045   4.096  0.00  0.00     0.142 A 
HETATM   23  N   UNK N   1      26.053  20.121   4.953  0.00  0.00    -0.337 N 
HETATM   24  C   UNK N   1      27.385  20.302   4.679  0.00  0.00     0.183 A 
ATOM     25  HN  UNK N   1      25.495  20.909   5.281  1.00  0.00     0.168 HD
HETATM   26  N   UNK N   1      28.151  19.254   4.250  0.00  0.00    -0.336 N 
ATOM     27  HN  UNK N   1      29.144  19.378   4.051  1.00  0.00     0.168 HD
BRANCH  21  28
HETATM   28  N   UNK N   1      24.098  18.718   5.084  0.00  0.00    -0.383 N 
HETATM   29  H   UNK N   1      23.707  18.825   5.981  0.00  0.00     0.157 HD
HETATM   30  H   UNK N   1      23.496  18.469   4.345  0.00  0.00     0.157 HD
ENDBRANCH  21  28
ENDBRANCH  10  16
ENDBRANCH   6   7
ENDBRANCH   5   6
ENDBRANCH   3   5
BRANCH   3  31
HETATM   31  O   UNK N   1      32.907  17.705   8.951  0.00  0.00    -0.195 OA
BRANCH  31  32
HETATM   32  P   UNK N   1      34.544  17.648   8.376  0.00  0.00     0.401 P 
HETATM   33  O   UNK N   1      35.210  18.996   8.761  0.00  0.00    -0.631 OA
BRANCH  32  34
HETATM   34  O   UNK N   1      34.564  17.574   6.641  0.00  0.00    -0.307 OA
HETATM   35  H   UNK N   1      35.290  17.983   6.145  0.00  0.00     0.222 HD
ENDBRANCH  32  34
BRANCH  32  36
HETATM   36  O   UNK N   1      35.467  16.369   9.131  0.00  0.00    -0.294 OA
BRANCH  36  37
HETATM   37  C   UNK N   1      35.219  16.493  10.496  0.00  0.00     0.215 C 
BRANCH  37  38
HETATM   38  C   UNK N   1      35.510  15.180  11.213  0.00  0.00     0.180 C 
HETATM   39  C   UNK N   1      36.592  14.401  10.498  0.00  0.00     0.182 C 
HETATM   40  C   UNK N   1      36.937  13.434  11.593  0.00  0.00     0.198 C 
HETATM   41  C   UNK N   1      36.636  14.195  12.878  0.00  0.00     0.259 C 
HETATM   42  O   UNK N   1      35.957  15.383  12.531  0.00  0.00    -0.353 OA
BRANCH  39  43
HETATM   43  O   UNK N   1      37.687  15.235  10.237  0.00  0.00    -0.390 OA
HETATM   44  H   UNK N   1      38.609  15.073  10.489  0.00  0.00     0.210 HD
ENDBRANCH  39  43
BRANCH  40  45
HETATM   45  O   UNK N   1      38.273  13.030  11.541  0.00  0.00    -0.388 OA
HETATM   46  H   UNK N   1      38.882  13.083  12.294  0.00  0.00     0.210 HD
ENDBRANCH  40  45
BRANCH  41  47
HETATM   47  N   UNK N   1      35.829  13.348  13.767  0.00  0.00    -0.336 N 
HETATM   48  C   UNK N   1      35.008  12.409  13.213  0.00  0.00     0.093 A 
HETATM   49  C   UNK N   1      34.197  11.609  14.019  0.00  0.00     0.018 A 
HETATM   50  C   UNK N   1      34.228  11.779  15.402  0.00  0.00     0.021 A 
HETATM   51  C   UNK N   1      35.073  12.736  15.968  0.00  0.00     0.053 A 
HETATM   52  C   UNK N   1      35.875  13.515  15.123  0.00  0.00     0.111 A 
BRANCH  51  53
HETATM   53  C   UNK N   1      35.108  12.927  17.431  0.00  0.00     0.177 C 
HETATM   54  O   UNK N   1      35.036  11.966  18.181  0.00  0.00    -0.646 OA
BRANCH  53  55
HETATM   55  O   UNK N   1      35.226  14.165  17.950  0.00  0.00    -0.773 OA
HETATM   56  H   UNK N   1      36.046  14.450  18.302  0.00  0.00     0.167 HD
ENDBRANCH  53  55
ENDBRANCH  51  53
ENDBRANCH  41  47
ENDBRANCH  37  38
ENDBRANCH  36  37
ENDBRANCH  32  36
ENDBRANCH  31  32
ENDBRANCH   3  31
TORSDOF 18
ENDMDL
MODEL 6
REMARK VINA RESULT:      -7.9      3.806      9.109
REMARK  18 active torsions:
REMARK  status: ('A' for Active; 'I' for Inactive)
REMARK    1  A    between atoms: C_13  and  C_7 
REMARK    2  A    between atoms: C_7  and  O_43 
REMARK    3  A    between atoms: C_14  and  C_8 
REMARK    4  A    between atoms: C_8  and  O_44 
REMARK    5  A    between atoms: C_9  and  C_21 
REMARK    6  A    between atoms: C_11  and  N_22 
REMARK    7  A    between atoms: C_15  and  O_31 
REMARK    8  A    between atoms: C_16  and  O_32 
REMARK    9  A    between atoms: C_17  and  O_33 
REMARK   10  A    between atoms: C_18  and  O_34 
REMARK   11  A    between atoms: C_19  and  N_29 
REMARK   12  A    between atoms: C_20  and  N_30 
REMARK   13  A    between atoms: C_21  and  O_37 
REMARK   14  A    between atoms: O_36  and  P_47 
REMARK   15  A    between atoms: O_43  and  P_46 
REMARK   16  A    between atoms: O_44  and  P_47 
REMARK   17  A    between atoms: O_45  and  P_46 
REMARK   18  A    between atoms: O_45  and  P_47 
ROOT
HETATM    1  O   UNK N   1      20.874  19.798   4.635  0.00  0.00    -0.307 OA
HETATM    2  O   UNK N   1      22.659  20.903   3.028  0.00  0.00    -0.631 OA
HETATM    3  P   UNK N   1      21.949  19.548   3.296  0.00  0.00     0.401 P 
HETATM    4  H   UNK N   1      20.310  20.105   5.363  0.00  0.00     0.222 HD
ENDROOT
BRANCH   3   5
HETATM    5  O   UNK N   1      23.140  18.311   3.665  0.00  0.00    -0.294 OA
BRANCH   5   6
HETATM    6  C   UNK N   1      23.807  18.708   4.822  0.00  0.00     0.215 C 
BRANCH   6   7
HETATM    7  C   UNK N   1      25.314  18.566   4.660  0.00  0.00     0.180 C 
HETATM    8  C   UNK N   1      26.092  19.633   3.925  0.00  0.00     0.182 C 
HETATM    9  C   UNK N   1      27.353  18.851   3.629  0.00  0.00     0.198 C 
HETATM   10  C   UNK N   1      27.148  17.477   4.289  0.00  0.00     0.262 C 
HETATM   11  O   UNK N   1      25.756  17.310   4.208  0.00  0.00    -0.353 OA
BRANCH   8  12
HETATM   12  O   UNK N   1      25.469  19.937   2.713  0.00  0.00    -0.390 OA
HETATM   13  H   UNK N   1      25.009  20.784   2.601  0.00  0.00     0.210 HD
ENDBRANCH   8  12
BRANCH   9  14
HETATM   14  O   UNK N   1      28.513  19.517   4.021  0.00  0.00    -0.388 OA
HETATM   15  H   UNK N   1      28.548  19.989   4.868  0.00  0.00     0.210 HD
ENDBRANCH   9  14
BRANCH  10  16
HETATM   16  N   UNK N   1      27.547  17.405   5.714  0.00  0.00    -0.297 N 
HETATM   17  C   UNK N   1      26.743  17.339   6.810  0.00  0.00     0.188 A 
HETATM   18  N   UNK N   1      27.471  17.228   7.957  0.00  0.00    -0.346 N 
HETATM   19  C   UNK N   1      28.752  17.242   7.543  0.00  0.00     0.122 A 
ATOM     20  HN  UNK N   1      27.124  17.151   8.913  1.00  0.00     0.167 HD
HETATM   21  C   UNK N   1      29.928  17.149   8.272  0.00  0.00     0.131 A 
HETATM   22  C   UNK N   1      28.796  17.360   6.206  0.00  0.00     0.142 A 
HETATM   23  N   UNK N   1      31.112  17.196   7.591  0.00  0.00    -0.337 N 
HETATM   24  C   UNK N   1      31.134  17.334   6.225  0.00  0.00     0.183 A 
ATOM     25  HN  UNK N   1      31.991  17.130   8.104  1.00  0.00     0.168 HD
HETATM   26  N   UNK N   1      29.965  17.413   5.520  0.00  0.00    -0.336 N 
ATOM     27  HN  UNK N   1      29.972  17.507   4.504  1.00  0.00     0.168 HD
BRANCH  21  28
HETATM   28  N   UNK N   1      29.913  16.998   9.672  0.00  0.00    -0.383 N 
HETATM   29  H   UNK N   1      29.726  16.149  10.133  0.00  0.00     0.157 HD
HETATM   30  H   UNK N   1      30.102  17.791  10.225  0.00  0.00     0.157 HD
ENDBRANCH  21  28
ENDBRANCH  10  16
ENDBRANCH   6   7
ENDBRANCH   5   6
ENDBRANCH   3   5
BRANCH   3  31
HETATM   31  O   UNK N   1      21.058  19.188   1.849  0.00  0.00    -0.195 OA
BRANCH  31  32
HETATM   32  P   UNK N   1      19.862  18.018   2.314  0.00  0.00     0.401 P 
HETATM   33  O   UNK N   1      19.823  16.939   1.199  0.00  0.00    -0.631 OA
BRANCH  32  34
HETATM   34  O   UNK N   1      18.288  18.751   2.336  0.00  0.00    -0.307 OA
HETATM   35  H   UNK N   1      18.193  19.693   2.545  0.00  0.00     0.222 HD
ENDBRANCH  32  34
BRANCH  32  36
HETATM   36  O   UNK N   1      20.270  17.215   3.811  0.00  0.00    -0.294 OA
BRANCH  36  37
HETATM   37  C   UNK N   1      20.588  15.906   3.454  0.00  0.00     0.215 C 
BRANCH  37  38
HETATM   38  C   UNK N   1      21.311  15.201   4.595  0.00  0.00     0.180 C 
HETATM   39  C   UNK N   1      22.639  14.644   4.132  0.00  0.00     0.182 C 
HETATM   40  C   UNK N   1      23.264  14.403   5.475  0.00  0.00     0.198 C 
HETATM   41  C   UNK N   1      22.640  15.460   6.378  0.00  0.00     0.259 C 
HETATM   42  O   UNK N   1      21.585  16.072   5.666  0.00  0.00    -0.353 OA
BRANCH  39  43
HETATM   43  O   UNK N   1      23.356  15.629   3.441  0.00  0.00    -0.390 OA
HETATM   44  H   UNK N   1      23.571  16.518   3.763  0.00  0.00     0.210 HD
ENDBRANCH  39  43
BRANCH  40  45
HETATM   45  O   UNK N   1      24.656  14.521   5.440  0.00  0.00    -0.388 OA
HETATM   46  H   UNK N   1      25.250  14.079   6.066  0.00  0.00     0.210 HD
ENDBRANCH  40  45
BRANCH  41  47
HETATM   47  N   UNK N   1      22.163  14.823   7.613  0.00  0.00    -0.336 N 
HETATM   48  C   UNK N   1      20.927  15.152   8.089  0.00  0.00     0.093 A 
HETATM   49  C   UNK N   1      20.452  14.598   9.277  0.00  0.00     0.018 A 
HETATM   50  C   UNK N   1      21.253  13.703   9.983  0.00  0.00     0.021 A 
HETATM   51  C   UNK N   1      22.515  13.361   9.492  0.00  0.00     0.053 A 
HETATM   52  C   UNK N   1      22.953  13.936   8.292  0.00  0.00     0.111 A 
BRANCH  51  53
HETATM   53  C   UNK N   1      23.373  12.419  10.236  0.00  0.00     0.177 C 
HETATM   54  O   UNK N   1      23.004  11.272  10.435  0.00  0.00    -0.646 OA
BRANCH  53  55
HETATM   55  O   UNK N   1      24.576  12.816  10.696  0.00  0.00    -0.773 OA
HETATM   56  H   UNK N   1      24.989  13.576  10.335  0.00  0.00     0.167 HD
ENDBRANCH  53  55
ENDBRANCH  51  53
ENDBRANCH  41  47
ENDBRANCH  37  38
ENDBRANCH  36  37
ENDBRANCH  32  36
ENDBRANCH  31  32
ENDBRANCH   3  31
TORSDOF 18
ENDMDL
MODEL 7
REMARK VINA RESULT:      -7.9      1.875      2.743
REMARK  18 active torsions:
REMARK  status: ('A' for Active; 'I' for Inactive)
REMARK    1  A    between atoms: C_13  and  C_7 
REMARK    2  A    between atoms: C_7  and  O_43 
REMARK    3  A    between atoms: C_14  and  C_8 
REMARK    4  A    between atoms: C_8  and  O_44 
REMARK    5  A    between atoms: C_9  and  C_21 
REMARK    6  A    between atoms: C_11  and  N_22 
REMARK    7  A    between atoms: C_15  and  O_31 
REMARK    8  A    between atoms: C_16  and  O_32 
REMARK    9  A    between atoms: C_17  and  O_33 
REMARK   10  A    between atoms: C_18  and  O_34 
REMARK   11  A    between atoms: C_19  and  N_29 
REMARK   12  A    between atoms: C_20  and  N_30 
REMARK   13  A    between atoms: C_21  and  O_37 
REMARK   14  A    between atoms: O_36  and  P_47 
REMARK   15  A    between atoms: O_43  and  P_46 
REMARK   16  A    between atoms: O_44  and  P_47 
REMARK   17  A    between atoms: O_45  and  P_46 
REMARK   18  A    between atoms: O_45  and  P_47 
ROOT
HETATM    1  O   UNK N   1      26.875  17.847   3.684  0.00  0.00    -0.307 OA
HETATM    2  O   UNK N   1      25.526  19.936   2.784  0.00  0.00    -0.631 OA
HETATM    3  P   UNK N   1      25.518  18.899   3.940  0.00  0.00     0.401 P 
HETATM    4  H   UNK N   1      27.680  17.374   3.419  0.00  0.00     0.222 HD
ENDROOT
BRANCH   3   5
HETATM    5  O   UNK N   1      24.011  17.998   3.926  0.00  0.00    -0.294 OA
BRANCH   5   6
HETATM    6  C   UNK N   1      23.004  18.862   4.349  0.00  0.00     0.215 C 
BRANCH   6   7
HETATM    7  C   UNK N   1      21.967  19.072   3.256  0.00  0.00     0.180 C 
HETATM    8  C   UNK N   1      22.206  20.114   2.187  0.00  0.00     0.182 C 
HETATM    9  C   UNK N   1      20.791  20.266   1.676  0.00  0.00     0.198 C 
HETATM   10  C   UNK N   1      19.956  19.248   2.474  0.00  0.00     0.262 C 
HETATM   11  O   UNK N   1      20.638  19.196   3.700  0.00  0.00    -0.353 OA
BRANCH   8  12
HETATM   12  O   UNK N   1      22.596  21.322   2.768  0.00  0.00    -0.390 OA
HETATM   13  H   UNK N   1      23.433  21.381   3.255  0.00  0.00     0.210 HD
ENDBRANCH   8  12
BRANCH   9  14
HETATM   14  O   UNK N   1      20.693  20.139   0.292  0.00  0.00    -0.388 OA
HETATM   15  H   UNK N   1      20.126  20.738  -0.220  0.00  0.00     0.210 HD
ENDBRANCH   9  14
BRANCH  10  16
HETATM   16  N   UNK N   1      19.921  17.883   1.898  0.00  0.00    -0.297 N 
HETATM   17  C   UNK N   1      20.129  17.510   0.607  0.00  0.00     0.188 A 
HETATM   18  N   UNK N   1      20.069  16.156   0.462  0.00  0.00    -0.346 N 
HETATM   19  C   UNK N   1      19.802  15.699   1.701  0.00  0.00     0.122 A 
ATOM     20  HN  UNK N   1      20.197  15.612  -0.390  1.00  0.00     0.167 HD
HETATM   21  C   UNK N   1      19.642  14.400   2.159  0.00  0.00     0.131 A 
HETATM   22  C   UNK N   1      19.702  16.732   2.553  0.00  0.00     0.142 A 
HETATM   23  N   UNK N   1      19.368  14.216   3.485  0.00  0.00    -0.337 N 
HETATM   24  C   UNK N   1      19.253  15.287   4.336  0.00  0.00     0.183 A 
ATOM     25  HN  UNK N   1      19.246  13.270   3.846  1.00  0.00     0.168 HD
HETATM   26  N   UNK N   1      19.426  16.561   3.870  0.00  0.00    -0.336 N 
ATOM     27  HN  UNK N   1      19.350  17.362   4.497  1.00  0.00     0.168 HD
BRANCH  21  28
HETATM   28  N   UNK N   1      19.769  13.296   1.293  0.00  0.00    -0.383 N 
HETATM   29  H   UNK N   1      20.534  13.152   0.691  0.00  0.00     0.157 HD
HETATM   30  H   UNK N   1      19.046  12.626   1.291  0.00  0.00     0.157 HD
ENDBRANCH  21  28
ENDBRANCH  10  16
ENDBRANCH   6   7
ENDBRANCH   5   6
ENDBRANCH   3   5
BRANCH   3  31
HETATM   31  O   UNK N   1      25.718  19.818   5.401  0.00  0.00    -0.195 OA
BRANCH  31  32
HETATM   32  P   UNK N   1      27.405  19.710   5.796  0.00  0.00     0.401 P 
HETATM   33  O   UNK N   1      27.719  20.872   6.775  0.00  0.00    -0.631 OA
BRANCH  32  34
HETATM   34  O   UNK N   1      28.368  19.994   4.380  0.00  0.00    -0.307 OA
HETATM   35  H   UNK N   1      28.246  20.806   3.863  0.00  0.00     0.222 HD
ENDBRANCH  32  34
BRANCH  32  36
HETATM   36  O   UNK N   1      27.799  18.214   6.610  0.00  0.00    -0.294 OA
BRANCH  36  37
HETATM   37  C   UNK N   1      28.944  18.489   7.355  0.00  0.00     0.215 C 
BRANCH  37  38
HETATM   38  C   UNK N   1      29.914  17.316   7.296  0.00  0.00     0.180 C 
HETATM   39  C   UNK N   1      29.732  16.526   6.019  0.00  0.00     0.182 C 
HETATM   40  C   UNK N   1      31.017  15.752   6.045  0.00  0.00     0.198 C 
HETATM   41  C   UNK N   1      31.993  16.663   6.779  0.00  0.00     0.259 C 
HETATM   42  O   UNK N   1      31.257  17.737   7.327  0.00  0.00    -0.353 OA
BRANCH  39  43
HETATM   43  O   UNK N   1      29.719  17.393   4.918  0.00  0.00    -0.390 OA
HETATM   44  H   UNK N   1      29.254  17.254   4.080  0.00  0.00     0.210 HD
ENDBRANCH  39  43
BRANCH  40  45
HETATM   45  O   UNK N   1      31.476  15.444   4.762  0.00  0.00    -0.388 OA
HETATM   46  H   UNK N   1      32.336  15.033   4.581  0.00  0.00     0.210 HD
ENDBRANCH  40  45
BRANCH  41  47
HETATM   47  N   UNK N   1      32.685  15.893   7.822  0.00  0.00    -0.336 N 
HETATM   48  C   UNK N   1      32.377  14.573   7.980  0.00  0.00     0.093 A 
HETATM   49  C   UNK N   1      32.985  13.816   8.981  0.00  0.00     0.018 A 
HETATM   50  C   UNK N   1      33.912  14.420   9.828  0.00  0.00     0.021 A 
HETATM   51  C   UNK N   1      34.231  15.769   9.662  0.00  0.00     0.053 A 
HETATM   52  C   UNK N   1      33.602  16.493   8.640  0.00  0.00     0.111 A 
BRANCH  51  53
HETATM   53  C   UNK N   1      35.208  16.419  10.558  0.00  0.00     0.177 C 
HETATM   54  O   UNK N   1      35.600  17.552  10.326  0.00  0.00    -0.646 OA
BRANCH  53  55
HETATM   55  O   UNK N   1      35.668  15.768  11.644  0.00  0.00    -0.773 OA
HETATM   56  H   UNK N   1      36.572  15.527  11.699  0.00  0.00     0.167 HD
ENDBRANCH  53  55
ENDBRANCH  51  53
ENDBRANCH  41  47
ENDBRANCH  37  38
ENDBRANCH  36  37
ENDBRANCH  32  36
ENDBRANCH  31  32
ENDBRANCH   3  31
TORSDOF 18
ENDMDL
MODEL 8
REMARK VINA RESULT:      -7.8      6.932     14.785
REMARK  18 active torsions:
REMARK  status: ('A' for Active; 'I' for Inactive)
REMARK    1  A    between atoms: C_13  and  C_7 
REMARK    2  A    between atoms: C_7  and  O_43 
REMARK    3  A    between atoms: C_14  and  C_8 
REMARK    4  A    between atoms: C_8  and  O_44 
REMARK    5  A    between atoms: C_9  and  C_21 
REMARK    6  A    between atoms: C_11  and  N_22 
REMARK    7  A    between atoms: C_15  and  O_31 
REMARK    8  A    between atoms: C_16  and  O_32 
REMARK    9  A    between atoms: C_17  and  O_33 
REMARK   10  A    between atoms: C_18  and  O_34 
REMARK   11  A    between atoms: C_19  and  N_29 
REMARK   12  A    between atoms: C_20  and  N_30 
REMARK   13  A    between atoms: C_21  and  O_37 
REMARK   14  A    between atoms: O_36  and  P_47 
REMARK   15  A    between atoms: O_43  and  P_46 
REMARK   16  A    between atoms: O_44  and  P_47 
REMARK   17  A    between atoms: O_45  and  P_46 
REMARK   18  A    between atoms: O_45  and  P_47 
ROOT
HETATM    1  O   UNK N   1      33.211  15.028  11.231  0.00  0.00    -0.307 OA
HETATM    2  O   UNK N   1      35.068  16.887  10.936  0.00  0.00    -0.631 OA
HETATM    3  P   UNK N   1      34.700  15.458  10.451  0.00  0.00     0.401 P 
HETATM    4  H   UNK N   1      32.374  14.953  11.717  0.00  0.00     0.222 HD
ENDROOT
BRANCH   3   5
HETATM    5  O   UNK N   1      35.981  14.333  10.873  0.00  0.00    -0.294 OA
BRANCH   5   6
HETATM    6  C   UNK N   1      36.244  14.493  12.232  0.00  0.00     0.215 C 
BRANCH   6   7
HETATM    7  C   UNK N   1      35.905  13.229  13.007  0.00  0.00     0.180 C 
HETATM    8  C   UNK N   1      36.591  11.929  12.655  0.00  0.00     0.182 C 
HETATM    9  C   UNK N   1      35.633  10.963  13.316  0.00  0.00     0.198 C 
HETATM   10  C   UNK N   1      34.575  11.843  14.006  0.00  0.00     0.262 C 
HETATM   11  O   UNK N   1      34.532  12.970  13.171  0.00  0.00    -0.353 OA
BRANCH   8  12
HETATM   12  O   UNK N   1      36.547  11.716  11.275  0.00  0.00    -0.390 OA
HETATM   13  H   UNK N   1      36.441  12.467  10.670  0.00  0.00     0.210 HD
ENDBRANCH   8  12
BRANCH   9  14
HETATM   14  O   UNK N   1      36.269  10.052  14.158  0.00  0.00    -0.388 OA
HETATM   15  H   UNK N   1      36.258  10.178  15.120  0.00  0.00     0.210 HD
ENDBRANCH   9  14
BRANCH  10  16
HETATM   16  N   UNK N   1      34.930  12.286  15.375  0.00  0.00    -0.297 N 
HETATM   17  C   UNK N   1      35.292  13.530  15.788  0.00  0.00     0.188 A 
HETATM   18  N   UNK N   1      35.492  13.570  17.136  0.00  0.00    -0.346 N 
HETATM   19  C   UNK N   1      35.259  12.309  17.546  0.00  0.00     0.122 A 
ATOM     20  HN  UNK N   1      35.758  14.373  17.706  1.00  0.00     0.167 HD
HETATM   21  C   UNK N   1      35.300  11.761  18.819  0.00  0.00     0.131 A 
HETATM   22  C   UNK N   1      34.936  11.541  16.492  0.00  0.00     0.142 A 
HETATM   23  N   UNK N   1      35.021  10.430  18.955  0.00  0.00    -0.337 N 
HETATM   24  C   UNK N   1      34.709   9.660  17.863  0.00  0.00     0.183 A 
ATOM     25  HN  UNK N   1      35.045  10.003  19.882  1.00  0.00     0.168 HD
HETATM   26  N   UNK N   1      34.660  10.218  16.615  0.00  0.00    -0.336 N 
ATOM     27  HN  UNK N   1      34.422   9.655  15.799  1.00  0.00     0.168 HD
BRANCH  21  28
HETATM   28  N   UNK N   1      35.610  12.547  19.946  0.00  0.00    -0.383 N 
HETATM   29  H   UNK N   1      36.409  12.419  20.505  0.00  0.00     0.157 HD
HETATM   30  H   UNK N   1      34.987  13.270  20.190  0.00  0.00     0.157 HD
ENDBRANCH  21  28
ENDBRANCH  10  16
ENDBRANCH   6   7
ENDBRANCH   5   6
ENDBRANCH   3   5
BRANCH   3  31
HETATM   31  O   UNK N   1      34.481  15.585   8.732  0.00  0.00    -0.195 OA
BRANCH  31  32
HETATM   32  P   UNK N   1      33.903  14.031   8.217  0.00  0.00     0.401 P 
HETATM   33  O   UNK N   1      32.522  13.812   8.890  0.00  0.00    -0.631 OA
BRANCH  32  34
HETATM   34  O   UNK N   1      34.942  12.778   8.821  0.00  0.00    -0.307 OA
HETATM   35  H   UNK N   1      35.728  13.007   9.341  0.00  0.00     0.222 HD
ENDBRANCH  32  34
BRANCH  32  36
HETATM   36  O   UNK N   1      33.664  13.955   6.487  0.00  0.00    -0.294 OA
BRANCH  36  37
HETATM   37  C   UNK N   1      32.283  13.922   6.306  0.00  0.00     0.215 C 
BRANCH  37  38
HETATM   38  C   UNK N   1      31.759  15.307   5.944  0.00  0.00     0.180 C 
HETATM   39  C   UNK N   1      32.664  15.982   4.938  0.00  0.00     0.182 C 
HETATM   40  C   UNK N   1      31.731  17.067   4.485  0.00  0.00     0.198 C 
HETATM   41  C   UNK N   1      30.341  16.465   4.655  0.00  0.00     0.259 C 
HETATM   42  O   UNK N   1      30.476  15.253   5.367  0.00  0.00    -0.353 OA
BRANCH  39  43
HETATM   43  O   UNK N   1      32.934  15.110   3.876  0.00  0.00    -0.390 OA
HETATM   44  H   UNK N   1      33.047  14.149   3.933  0.00  0.00     0.210 HD
ENDBRANCH  39  43
BRANCH  40  45
HETATM   45  O   UNK N   1      31.963  17.446   3.161  0.00  0.00    -0.388 OA
HETATM   46  H   UNK N   1      31.600  16.975   2.394  0.00  0.00     0.210 HD
ENDBRANCH  40  45
BRANCH  41  47
HETATM   47  N   UNK N   1      29.483  17.420   5.369  0.00  0.00    -0.336 N 
HETATM   48  C   UNK N   1      28.767  18.329   4.647  0.00  0.00     0.093 A 
HETATM   49  C   UNK N   1      27.968  19.277   5.287  0.00  0.00     0.018 A 
HETATM   50  C   UNK N   1      27.908  19.292   6.679  0.00  0.00     0.021 A 
HETATM   51  C   UNK N   1      28.636  18.357   7.418  0.00  0.00     0.053 A 
HETATM   52  C   UNK N   1      29.422  17.419   6.736  0.00  0.00     0.111 A 
BRANCH  51  53
HETATM   53  C   UNK N   1      28.584  18.370   8.893  0.00  0.00     0.177 C 
HETATM   54  O   UNK N   1      29.597  18.572   9.545  0.00  0.00    -0.646 OA
BRANCH  53  55
HETATM   55  O   UNK N   1      27.415  18.165   9.531  0.00  0.00    -0.773 OA
HETATM   56  H   UNK N   1      27.137  17.293   9.734  0.00  0.00     0.167 HD
ENDBRANCH  53  55
ENDBRANCH  51  53
ENDBRANCH  41  47
ENDBRANCH  37  38
ENDBRANCH  36  37
ENDBRANCH  32  36
ENDBRANCH  31  32
ENDBRANCH   3  31
TORSDOF 18
ENDMDL
MODEL 9
REMARK VINA RESULT:      -7.8      6.924     11.701
REMARK  18 active torsions:
REMARK  status: ('A' for Active; 'I' for Inactive)
REMARK    1  A    between atoms: C_13  and  C_7 
REMARK    2  A    between atoms: C_7  and  O_43 
REMARK    3  A    between atoms: C_14  and  C_8 
REMARK    4  A    between atoms: C_8  and  O_44 
REMARK    5  A    between atoms: C_9  and  C_21 
REMARK    6  A    between atoms: C_11  and  N_22 
REMARK    7  A    between atoms: C_15  and  O_31 
REMARK    8  A    between atoms: C_16  and  O_32 
REMARK    9  A    between atoms: C_17  and  O_33 
REMARK   10  A    between atoms: C_18  and  O_34 
REMARK   11  A    between atoms: C_19  and  N_29 
REMARK   12  A    between atoms: C_20  and  N_30 
REMARK   13  A    between atoms: C_21  and  O_37 
REMARK   14  A    between atoms: O_36  and  P_47 
REMARK   15  A    between atoms: O_43  and  P_46 
REMARK   16  A    between atoms: O_44  and  P_47 
REMARK   17  A    between atoms: O_45  and  P_46 
REMARK   18  A    between atoms: O_45  and  P_47 
ROOT
HETATM    1  O   UNK N   1      33.558  13.223   9.718  0.00  0.00    -0.307 OA
HETATM    2  O   UNK N   1      36.114  13.519   9.111  0.00  0.00    -0.631 OA
HETATM    3  P   UNK N   1      34.712  14.073   8.739  0.00  0.00     0.401 P 
HETATM    4  H   UNK N   1      33.051  12.688  10.349  0.00  0.00     0.222 HD
ENDROOT
BRANCH   3   5
HETATM    5  O   UNK N   1      34.400  13.815   7.030  0.00  0.00    -0.294 OA
BRANCH   5   6
HETATM    6  C   UNK N   1      34.586  15.035   6.384  0.00  0.00     0.215 C 
BRANCH   6   7
HETATM    7  C   UNK N   1      33.286  15.529   5.765  0.00  0.00     0.180 C 
HETATM    8  C   UNK N   1      32.577  14.681   4.736  0.00  0.00     0.182 C 
HETATM    9  C   UNK N   1      31.688  15.739   4.121  0.00  0.00     0.198 C 
HETATM   10  C   UNK N   1      31.963  17.022   4.923  0.00  0.00     0.262 C 
HETATM   11  O   UNK N   1      33.305  16.857   5.302  0.00  0.00    -0.353 OA
BRANCH   8  12
HETATM   12  O   UNK N   1      33.479  14.245   3.763  0.00  0.00    -0.390 OA
HETATM   13  H   UNK N   1      33.302  14.412   2.825  0.00  0.00     0.210 HD
ENDBRANCH   8  12
BRANCH   9  14
HETATM   14  O   UNK N   1      30.347  15.363   4.068  0.00  0.00    -0.388 OA
HETATM   15  H   UNK N   1      29.646  16.012   4.239  0.00  0.00     0.210 HD
ENDBRANCH   9  14
BRANCH  10  16
HETATM   16  N   UNK N   1      31.146  17.178   6.149  0.00  0.00    -0.297 N 
HETATM   17  C   UNK N   1      31.519  16.970   7.440  0.00  0.00     0.188 A 
HETATM   18  N   UNK N   1      30.510  17.269   8.306  0.00  0.00    -0.346 N 
HETATM   19  C   UNK N   1      29.492  17.656   7.514  0.00  0.00     0.122 A 
ATOM     20  HN  UNK N   1      30.522  17.213   9.324  1.00  0.00     0.167 HD
HETATM   21  C   UNK N   1      28.216  18.085   7.843  0.00  0.00     0.131 A 
HETATM   22  C   UNK N   1      29.870  17.589   6.226  0.00  0.00     0.142 A 
HETATM   23  N   UNK N   1      27.367  18.417   6.825  0.00  0.00    -0.337 N 
HETATM   24  C   UNK N   1      27.768  18.326   5.516  0.00  0.00     0.183 A 
ATOM     25  HN  UNK N   1      26.423  18.736   7.042  1.00  0.00     0.168 HD
HETATM   26  N   UNK N   1      29.034  17.912   5.208  0.00  0.00    -0.336 N 
ATOM     27  HN  UNK N   1      29.343  17.849   4.238  1.00  0.00     0.168 HD
BRANCH  21  28
HETATM   28  N   UNK N   1      27.801  18.191   9.185  0.00  0.00    -0.383 N 
HETATM   29  H   UNK N   1      26.867  18.318   9.465  0.00  0.00     0.157 HD
HETATM   30  H   UNK N   1      28.490  18.133   9.888  0.00  0.00     0.157 HD
ENDBRANCH  21  28
ENDBRANCH  10  16
ENDBRANCH   6   7
ENDBRANCH   5   6
ENDBRANCH   3   5
BRANCH   3  31
HETATM   31  O   UNK N   1      34.746  15.761   9.151  0.00  0.00    -0.195 OA
BRANCH  31  32
HETATM   32  P   UNK N   1      35.443  15.841  10.740  0.00  0.00     0.401 P 
HETATM   33  O   UNK N   1      35.139  17.256  11.299  0.00  0.00    -0.631 OA
BRANCH  32  34
HETATM   34  O   UNK N   1      37.172  15.720  10.639  0.00  0.00    -0.307 OA
HETATM   35  H   UNK N   1      37.649  16.156   9.916  0.00  0.00     0.222 HD
ENDBRANCH  32  34
BRANCH  32  36
HETATM   36  O   UNK N   1      34.732  14.678  11.833  0.00  0.00    -0.294 OA
BRANCH  36  37
HETATM   37  C   UNK N   1      35.732  14.380  12.756  0.00  0.00     0.215 C 
BRANCH  37  38
HETATM   38  C   UNK N   1      35.362  13.141  13.563  0.00  0.00     0.180 C 
HETATM   39  C   UNK N   1      34.789  12.064  12.669  0.00  0.00     0.182 C 
HETATM   40  C   UNK N   1      34.912  10.900  13.609  0.00  0.00     0.198 C 
HETATM   41  C   UNK N   1      36.115  11.242  14.479  0.00  0.00     0.259 C 
HETATM   42  O   UNK N   1      36.477  12.581  14.214  0.00  0.00    -0.353 OA
BRANCH  39  43
HETATM   43  O   UNK N   1      35.622  11.871  11.559  0.00  0.00    -0.390 OA
HETATM   44  H   UNK N   1      36.377  12.421  11.302  0.00  0.00     0.210 HD
ENDBRANCH  39  43
BRANCH  40  45
HETATM   45  O   UNK N   1      35.099   9.692  12.933  0.00  0.00    -0.388 OA
HETATM   46  H   UNK N   1      35.908   9.160  12.994  0.00  0.00     0.210 HD
ENDBRANCH  40  45
BRANCH  41  47
HETATM   47  N   UNK N   1      35.763  11.045  15.892  0.00  0.00    -0.336 N 
HETATM   48  C   UNK N   1      35.458   9.788  16.326  0.00  0.00     0.093 A 
HETATM   49  C   UNK N   1      35.084   9.564  17.651  0.00  0.00     0.018 A 
HETATM   50  C   UNK N   1      35.019  10.639  18.535  0.00  0.00     0.021 A 
HETATM   51  C   UNK N   1      35.338  11.925  18.091  0.00  0.00     0.053 A 
HETATM   52  C   UNK N   1      35.714  12.106  16.754  0.00  0.00     0.111 A 
BRANCH  51  53
HETATM   53  C   UNK N   1      35.265  13.071  19.018  0.00  0.00     0.177 C 
HETATM   54  O   UNK N   1      35.232  14.213  18.587  0.00  0.00    -0.646 OA
BRANCH  53  55
HETATM   55  O   UNK N   1      35.229  12.865  20.350  0.00  0.00    -0.773 OA
HETATM   56  H   UNK N   1      35.950  12.448  20.780  0.00  0.00     0.167 HD
ENDBRANCH  53  55
ENDBRANCH  51  53
ENDBRANCH  41  47
ENDBRANCH  37  38
ENDBRANCH  36  37
ENDBRANCH  32  36
ENDBRANCH  31  32
ENDBRANCH   3  31
TORSDOF 18
ENDMDL
