MODEL 1
REMARK VINA RESULT:      -8.8      0.000      0.000
REMARK  8 active torsions:
REMARK  status: ('A' for Active; 'I' for Inactive)
REMARK    1  A    between atoms: C_28  and  C_5 
REMARK    2  A    between atoms: C_17  and  N_29 
REMARK    3  A    between atoms: O_30  and  C_18 
REMARK    4  A    between atoms: C_19  and  O_37 
REMARK    5  A    between atoms: C_20  and  O_37 
REMARK    6  A    between atoms: C_24  and  O_31 
REMARK    7  A    between atoms: O_33  and  C_26 
REMARK    8  A    between atoms: C_28  and  O_35 
ROOT
HETATM    1  C   UNK N   1      22.101  11.939  11.809  0.00  0.00     0.004 A 
HETATM    2  C   UNK N   1      21.339  12.525  10.800  0.00  0.00     0.017 A 
HETATM    3  C   UNK N   1      23.492  11.933  11.721  0.00  0.00     0.037 A 
HETATM    4  C   UNK N   1      21.007  15.295   6.684  0.00  0.00     0.024 A 
HETATM    5  C   UNK N   1      20.695  16.975   4.871  0.00  0.00     0.077 C 
HETATM    6  C   UNK N   1      22.681  18.125   3.950  0.00  0.00     0.075 C 
HETATM    7  C   UNK N   1      21.593  16.174   5.778  0.00  0.00    -0.043 A 
HETATM    8  C   UNK N   1      21.961  13.133   9.702  0.00  0.00     0.032 A 
HETATM    9  C   UNK N   1      21.790  14.566   7.585  0.00  0.00     0.032 A 
HETATM   10  C   UNK N   1      24.132  12.529  10.633  0.00  0.00     0.080 A 
HETATM   11  C   UNK N   1      23.612  17.480   4.983  0.00  0.00     0.163 C 
HETATM   12  C   UNK N   1      22.996  16.352   5.782  0.00  0.00     0.011 A 
HETATM   13  C   UNK N   1      23.372  13.152   9.616  0.00  0.00     0.062 A 
HETATM   14  C   UNK N   1      23.197  14.658   7.533  0.00  0.00     0.063 A 
HETATM   15  C   UNK N   1      21.139  13.769   8.648  0.00  0.00     0.194 C 
HETATM   16  C   UNK N   1      23.793  15.568   6.639  0.00  0.00     0.090 A 
HETATM   17  C   UNK N   1      24.020  13.856   8.480  0.00  0.00     0.199 C 
HETATM   18  C   UNK N   1      21.274  18.336   4.496  0.00  0.00     0.064 C 
HETATM   19  O   UNK N   1      19.917  13.710   8.704  0.00  0.00    -0.287 OA
HETATM   20  O   UNK N   1      25.237  13.815   8.350  0.00  0.00    -0.286 OA
ENDROOT
BRANCH  11  21
HETATM   21  O   UNK N   1      24.919  17.234   4.509  0.00  0.00    -0.351 OA
BRANCH  21  22
HETATM   22  C   UNK N   1      25.436  18.224   3.642  0.00  0.00     0.263 C 
HETATM   23  C   UNK N   1      26.749  17.687   3.063  0.00  0.00     0.099 C 
HETATM   24  C   UNK N   1      27.748  17.456   4.219  0.00  0.00     0.257 C 
HETATM   25  C   UNK N   1      27.917  18.777   5.003  0.00  0.00     0.180 C 
HETATM   26  C   UNK N   1      26.527  19.277   5.438  0.00  0.00     0.151 C 
HETATM   27  C   UNK N   1      26.640  20.600   6.176  0.00  0.00     0.042 C 
HETATM   28  O   UNK N   1      25.676  19.458   4.312  0.00  0.00    -0.354 OA
BRANCH  24  29
HETATM   29  N   UNK N   1      29.037  16.891   3.772  0.00  0.00     0.087 N 
HETATM   30  C   UNK N   1      28.873  15.760   2.868  0.00  0.00     0.310 C 
HETATM   31  C   UNK N   1      29.796  16.414   4.922  0.00  0.00     0.310 C 
ENDBRANCH  24  29
BRANCH  25  32
HETATM   32  O   UNK N   1      28.529  19.751   4.206  0.00  0.00    -0.391 OA
HETATM   33  H   UNK N   1      29.276  20.166   3.747  0.00  0.00     0.210 HD
ENDBRANCH  25  32
ENDBRANCH  21  22
ENDBRANCH  11  21
BRANCH  18  34
HETATM   34  C   UNK N   1      20.399  18.967   3.418  0.00  0.00     0.034 C 
HETATM   35  C   UNK N   1      20.762  20.424   3.160  0.00  0.00     0.008 C 
ENDBRANCH  18  34
BRANCH  18  36
HETATM   36  O   UNK N   1      21.299  19.163   5.624  0.00  0.00    -0.389 OA
HETATM   37  H   UNK N   1      21.099  19.521   6.503  0.00  0.00     0.210 HD
ENDBRANCH  18  36
BRANCH  16  38
HETATM   38  O   UNK N   1      25.132  15.730   6.639  0.00  0.00    -0.359 OA
HETATM   39  H   UNK N   1      25.738  15.016   6.659  0.00  0.00     0.217 HD
ENDBRANCH  16  38
BRANCH  10  40
HETATM   40  O   UNK N   1      25.477  12.512  10.584  0.00  0.00    -0.360 OA
HETATM   41  H   UNK N   1      25.969  13.298  10.452  0.00  0.00     0.217 HD
ENDBRANCH  10  40
TORSDOF 8
ENDMDL
MODEL 2
REMARK VINA RESULT:      -8.1     13.893     16.578
REMARK  8 active torsions:
REMARK  status: ('A' for Active; 'I' for Inactive)
REMARK    1  A    between atoms: C_28  and  C_5 
REMARK    2  A    between atoms: C_17  and  N_29 
REMARK    3  A    between atoms: O_30  and  C_18 
REMARK    4  A    between atoms: C_19  and  O_37 
REMARK    5  A    between atoms: C_20  and  O_37 
REMARK    6  A    between atoms: C_24  and  O_31 
REMARK    7  A    between atoms: O_33  and  C_26 
REMARK    8  A    between atoms: C_28  and  O_35 
ROOT
HETATM    1  C   UNK N   1      33.819  20.584  -3.057  0.00  0.00     0.004 A 
HETATM    2  C   UNK N   1      32.763  21.362  -2.586  0.00  0.00     0.017 A 
HETATM    3  C   UNK N   1      33.910  20.279  -4.415  0.00  0.00     0.037 A 
HETATM    4  C   UNK N   1      28.840  24.298  -3.428  0.00  0.00     0.024 A 
HETATM    5  C   UNK N   1      27.121  26.076  -3.735  0.00  0.00     0.077 C 
HETATM    6  C   UNK N   1      26.546  26.802  -6.027  0.00  0.00     0.075 C 
HETATM    7  C   UNK N   1      28.080  25.064  -4.307  0.00  0.00    -0.043 A 
HETATM    8  C   UNK N   1      31.798  21.863  -3.470  0.00  0.00     0.032 A 
HETATM    9  C   UNK N   1      29.781  23.381  -3.905  0.00  0.00     0.032 A 
HETATM   10  C   UNK N   1      32.958  20.763  -5.312  0.00  0.00     0.080 A 
HETATM   11  C   UNK N   1      27.643  25.929  -6.647  0.00  0.00     0.163 C 
HETATM   12  C   UNK N   1      28.276  24.931  -5.701  0.00  0.00     0.011 A 
HETATM   13  C   UNK N   1      31.897  21.577  -4.851  0.00  0.00     0.062 A 
HETATM   14  C   UNK N   1      29.917  23.166  -5.292  0.00  0.00     0.063 A 
HETATM   15  C   UNK N   1      30.694  22.704  -2.957  0.00  0.00     0.194 C 
HETATM   16  C   UNK N   1      29.172  23.959  -6.186  0.00  0.00     0.090 A 
HETATM   17  C   UNK N   1      30.905  22.167  -5.786  0.00  0.00     0.199 C 
HETATM   18  C   UNK N   1      26.920  27.292  -4.634  0.00  0.00     0.064 C 
HETATM   19  O   UNK N   1      30.587  22.910  -1.754  0.00  0.00    -0.287 OA
HETATM   20  O   UNK N   1      30.930  21.866  -6.973  0.00  0.00    -0.286 OA
ENDROOT
BRANCH  11  21
HETATM   21  O   UNK N   1      27.326  25.422  -7.926  0.00  0.00    -0.351 OA
BRANCH  21  22
HETATM   22  C   UNK N   1      25.951  25.446  -8.253  0.00  0.00     0.263 C 
HETATM   23  C   UNK N   1      25.514  23.998  -8.503  0.00  0.00     0.099 C 
HETATM   24  C   UNK N   1      26.308  23.437  -9.703  0.00  0.00     0.257 C 
HETATM   25  C   UNK N   1      26.094  24.363 -10.921  0.00  0.00     0.180 C 
HETATM   26  C   UNK N   1      26.459  25.804 -10.519  0.00  0.00     0.151 C 
HETATM   27  C   UNK N   1      26.220  26.760 -11.675  0.00  0.00     0.042 C 
HETATM   28  O   UNK N   1      25.683  26.234  -9.408  0.00  0.00    -0.354 OA
BRANCH  24  29
HETATM   29  N   UNK N   1      25.996  22.024 -10.000  0.00  0.00     0.087 N 
HETATM   30  C   UNK N   1      25.602  21.273  -8.815  0.00  0.00     0.310 C 
HETATM   31  C   UNK N   1      27.170  21.362 -10.557  0.00  0.00     0.310 C 
ENDBRANCH  24  29
BRANCH  25  32
HETATM   32  O   UNK N   1      24.760  24.326 -11.342  0.00  0.00    -0.391 OA
HETATM   33  H   UNK N   1      23.968  23.904 -11.710  0.00  0.00     0.210 HD
ENDBRANCH  25  32
ENDBRANCH  21  22
ENDBRANCH  11  21
BRANCH  18  34
HETATM   34  C   UNK N   1      25.784  28.142  -4.072  0.00  0.00     0.034 C 
HETATM   35  C   UNK N   1      26.230  29.564  -3.754  0.00  0.00     0.008 C 
ENDBRANCH  18  34
BRANCH  18  36
HETATM   36  O   UNK N   1      28.096  28.048  -4.674  0.00  0.00    -0.389 OA
HETATM   37  H   UNK N   1      28.919  28.478  -4.395  0.00  0.00     0.210 HD
ENDBRANCH  18  36
BRANCH  16  38
HETATM   38  O   UNK N   1      29.356  23.825  -7.516  0.00  0.00    -0.359 OA
HETATM   39  H   UNK N   1      29.638  24.526  -8.070  0.00  0.00     0.217 HD
ENDBRANCH  16  38
BRANCH  10  40
HETATM   40  O   UNK N   1      33.081  20.455  -6.617  0.00  0.00    -0.360 OA
HETATM   41  H   UNK N   1      32.578  19.767  -7.004  0.00  0.00     0.217 HD
ENDBRANCH  10  40
TORSDOF 8
ENDMDL
MODEL 3
REMARK VINA RESULT:      -7.8     10.359     14.783
REMARK  8 active torsions:
REMARK  status: ('A' for Active; 'I' for Inactive)
REMARK    1  A    between atoms: C_28  and  C_5 
REMARK    2  A    between atoms: C_17  and  N_29 
REMARK    3  A    between atoms: O_30  and  C_18 
REMARK    4  A    between atoms: C_19  and  O_37 
REMARK    5  A    between atoms: C_20  and  O_37 
REMARK    6  A    between atoms: C_24  and  O_31 
REMARK    7  A    between atoms: O_33  and  C_26 
REMARK    8  A    between atoms: C_28  and  O_35 
ROOT
HETATM    1  C   UNK N   1      33.748  17.906   7.193  0.00  0.00     0.004 A 
HETATM    2  C   UNK N   1      34.379  17.747   8.426  0.00  0.00     0.017 A 
HETATM    3  C   UNK N   1      33.310  16.789   6.484  0.00  0.00     0.037 A 
HETATM    4  C   UNK N   1      35.714  14.886  12.266  0.00  0.00     0.024 A 
HETATM    5  C   UNK N   1      36.083  13.643  14.394  0.00  0.00     0.077 C 
HETATM    6  C   UNK N   1      35.311  11.300  14.561  0.00  0.00     0.075 C 
HETATM    7  C   UNK N   1      35.605  13.687  12.965  0.00  0.00    -0.043 A 
HETATM    8  C   UNK N   1      34.558  16.471   8.974  0.00  0.00     0.032 A 
HETATM    9  C   UNK N   1      35.240  14.997  10.956  0.00  0.00     0.032 A 
HETATM   10  C   UNK N   1      33.482  15.508   7.009  0.00  0.00     0.080 A 
HETATM   11  C   UNK N   1      34.638  11.357  13.185  0.00  0.00     0.163 C 
HETATM   12  C   UNK N   1      34.986  12.573  12.354  0.00  0.00     0.011 A 
HETATM   13  C   UNK N   1      34.095  15.335   8.272  0.00  0.00     0.062 A 
HETATM   14  C   UNK N   1      34.710  13.867  10.298  0.00  0.00     0.063 A 
HETATM   15  C   UNK N   1      35.212  16.320  10.294  0.00  0.00     0.194 C 
HETATM   16  C   UNK N   1      34.571  12.660  11.011  0.00  0.00     0.090 A 
HETATM   17  C   UNK N   1      34.233  13.992   8.893  0.00  0.00     0.199 C 
HETATM   18  C   UNK N   1      35.308  12.654  15.259  0.00  0.00     0.064 C 
HETATM   19  O   UNK N   1      35.651  17.303  10.876  0.00  0.00    -0.287 OA
HETATM   20  O   UNK N   1      33.909  12.992   8.265  0.00  0.00    -0.286 OA
ENDROOT
BRANCH  11  21
HETATM   21  O   UNK N   1      34.649  10.131  12.485  0.00  0.00    -0.351 OA
BRANCH  21  22
HETATM   22  C   UNK N   1      35.718   9.266  12.813  0.00  0.00     0.263 C 
HETATM   23  C   UNK N   1      36.827   9.496  11.781  0.00  0.00     0.099 C 
HETATM   24  C   UNK N   1      36.291   9.127  10.380  0.00  0.00     0.257 C 
HETATM   25  C   UNK N   1      35.773   7.672  10.411  0.00  0.00     0.180 C 
HETATM   26  C   UNK N   1      34.750   7.534  11.553  0.00  0.00     0.151 C 
HETATM   27  C   UNK N   1      34.245   6.105  11.651  0.00  0.00     0.042 C 
HETATM   28  O   UNK N   1      35.328   7.896  12.801  0.00  0.00    -0.354 OA
BRANCH  24  29
HETATM   29  N   UNK N   1      37.272   9.359   9.300  0.00  0.00     0.087 N 
HETATM   30  C   UNK N   1      38.557   9.834   9.798  0.00  0.00     0.310 C 
HETATM   31  C   UNK N   1      36.768  10.373   8.380  0.00  0.00     0.310 C 
ENDBRANCH  24  29
BRANCH  25  32
HETATM   32  O   UNK N   1      36.826   6.776  10.625  0.00  0.00    -0.391 OA
HETATM   33  H   UNK N   1      37.441   6.260  11.169  0.00  0.00     0.210 HD
ENDBRANCH  25  32
ENDBRANCH  21  22
ENDBRANCH  11  21
BRANCH  18  34
HETATM   34  C   UNK N   1      36.001  12.531  16.613  0.00  0.00     0.034 C 
HETATM   35  C   UNK N   1      35.312  13.360  17.691  0.00  0.00     0.008 C 
ENDBRANCH  18  34
BRANCH  18  36
HETATM   36  O   UNK N   1      33.999  13.114  15.443  0.00  0.00    -0.389 OA
HETATM   37  H   UNK N   1      33.154  13.562  15.283  0.00  0.00     0.210 HD
ENDBRANCH  18  36
BRANCH  16  38
HETATM   38  O   UNK N   1      33.986  11.596  10.423  0.00  0.00    -0.359 OA
HETATM   39  H   UNK N   1      33.883  10.767  10.845  0.00  0.00     0.217 HD
ENDBRANCH  16  38
BRANCH  10  40
HETATM   40  O   UNK N   1      33.040  14.452   6.300  0.00  0.00    -0.360 OA
HETATM   41  H   UNK N   1      32.344  14.540   5.680  0.00  0.00     0.217 HD
ENDBRANCH  10  40
TORSDOF 8
ENDMDL
MODEL 4
REMARK VINA RESULT:      -7.7      6.943     11.665
REMARK  8 active torsions:
REMARK  status: ('A' for Active; 'I' for Inactive)
REMARK    1  A    between atoms: C_28  and  C_5 
REMARK    2  A    between atoms: C_17  and  N_29 
REMARK    3  A    between atoms: O_30  and  C_18 
REMARK    4  A    between atoms: C_19  and  O_37 
REMARK    5  A    between atoms: C_20  and  O_37 
REMARK    6  A    between atoms: C_24  and  O_31 
REMARK    7  A    between atoms: O_33  and  C_26 
REMARK    8  A    between atoms: C_28  and  O_35 
ROOT
HETATM    1  C   UNK N   1      27.643  19.614   5.524  0.00  0.00     0.004 A 
HETATM    2  C   UNK N   1      28.517  18.697   4.941  0.00  0.00     0.017 A 
HETATM    3  C   UNK N   1      27.529  19.684   6.912  0.00  0.00     0.037 A 
HETATM    4  C   UNK N   1      32.187  15.366   5.333  0.00  0.00     0.024 A 
HETATM    5  C   UNK N   1      34.264  13.991   5.371  0.00  0.00     0.077 C 
HETATM    6  C   UNK N   1      35.407  13.607   7.531  0.00  0.00     0.075 C 
HETATM    7  C   UNK N   1      33.194  14.772   6.089  0.00  0.00    -0.043 A 
HETATM    8  C   UNK N   1      29.303  17.857   5.740  0.00  0.00     0.032 A 
HETATM    9  C   UNK N   1      31.199  16.145   5.942  0.00  0.00     0.032 A 
HETATM   10  C   UNK N   1      28.298  18.853   7.726  0.00  0.00     0.080 A 
HETATM   11  C   UNK N   1      34.455  14.551   8.274  0.00  0.00     0.163 C 
HETATM   12  C   UNK N   1      33.234  14.978   7.487  0.00  0.00     0.011 A 
HETATM   13  C   UNK N   1      29.210  17.938   7.148  0.00  0.00     0.062 A 
HETATM   14  C   UNK N   1      31.168  16.277   7.347  0.00  0.00     0.063 A 
HETATM   15  C   UNK N   1      30.241  16.902   5.107  0.00  0.00     0.194 C 
HETATM   16  C   UNK N   1      32.202  15.703   8.113  0.00  0.00     0.090 A 
HETATM   17  C   UNK N   1      30.095  17.088   7.985  0.00  0.00     0.199 C 
HETATM   18  C   UNK N   1      35.615  14.025   6.080  0.00  0.00     0.064 C 
HETATM   19  O   UNK N   1      30.284  16.804   3.887  0.00  0.00    -0.287 OA
HETATM   20  O   UNK N   1      29.971  17.090   9.203  0.00  0.00    -0.286 OA
ENDROOT
BRANCH  11  21
HETATM   21  O   UNK N   1      34.205  14.183   9.614  0.00  0.00    -0.351 OA
BRANCH  21  22
HETATM   22  C   UNK N   1      34.829  15.001  10.584  0.00  0.00     0.263 C 
HETATM   23  C   UNK N   1      36.334  14.988  10.294  0.00  0.00     0.099 C 
HETATM   24  C   UNK N   1      36.859  13.542  10.439  0.00  0.00     0.257 C 
HETATM   25  C   UNK N   1      36.500  13.020  11.848  0.00  0.00     0.180 C 
HETATM   26  C   UNK N   1      34.984  13.185  12.067  0.00  0.00     0.151 C 
HETATM   27  C   UNK N   1      34.590  12.725  13.460  0.00  0.00     0.042 C 
HETATM   28  O   UNK N   1      34.592  14.543  11.911  0.00  0.00    -0.354 OA
BRANCH  24  29
HETATM   29  N   UNK N   1      38.298  13.410  10.133  0.00  0.00     0.087 N 
HETATM   30  C   UNK N   1      38.700  14.188   8.968  0.00  0.00     0.310 C 
HETATM   31  C   UNK N   1      38.619  12.016   9.850  0.00  0.00     0.310 C 
ENDBRANCH  24  29
BRANCH  25  32
HETATM   32  O   UNK N   1      37.187  13.738  12.832  0.00  0.00    -0.391 OA
HETATM   33  H   UNK N   1      37.979  14.041  13.305  0.00  0.00     0.210 HD
ENDBRANCH  25  32
ENDBRANCH  21  22
ENDBRANCH  11  21
BRANCH  18  34
HETATM   34  C   UNK N   1      36.559  13.041   5.397  0.00  0.00     0.034 C 
HETATM   35  C   UNK N   1      37.022  11.937   6.339  0.00  0.00     0.008 C 
ENDBRANCH  18  34
BRANCH  18  36
HETATM   36  O   UNK N   1      36.151  15.315   6.008  0.00  0.00    -0.389 OA
HETATM   37  H   UNK N   1      36.282  16.264   6.164  0.00  0.00     0.210 HD
ENDBRANCH  18  36
BRANCH  16  38
HETATM   38  O   UNK N   1      32.234  15.894   9.447  0.00  0.00    -0.359 OA
HETATM   39  H   UNK N   1      31.470  15.876   9.989  0.00  0.00     0.217 HD
ENDBRANCH  16  38
BRANCH  10  40
HETATM   40  O   UNK N   1      28.168  18.954   9.062  0.00  0.00    -0.360 OA
HETATM   41  H   UNK N   1      27.851  18.238   9.576  0.00  0.00     0.217 HD
ENDBRANCH  10  40
TORSDOF 8
ENDMDL
MODEL 5
REMARK VINA RESULT:      -7.6      3.456      7.126
REMARK  8 active torsions:
REMARK  status: ('A' for Active; 'I' for Inactive)
REMARK    1  A    between atoms: C_28  and  C_5 
REMARK    2  A    between atoms: C_17  and  N_29 
REMARK    3  A    between atoms: O_30  and  C_18 
REMARK    4  A    between atoms: C_19  and  O_37 
REMARK    5  A    between atoms: C_20  and  O_37 
REMARK    6  A    between atoms: C_24  and  O_31 
REMARK    7  A    between atoms: O_33  and  C_26 
REMARK    8  A    between atoms: C_28  and  O_35 
ROOT
HETATM    1  C   UNK N   1      32.427  17.250   6.555  0.00  0.00     0.004 A 
HETATM    2  C   UNK N   1      31.766  17.017   5.350  0.00  0.00     0.017 A 
HETATM    3  C   UNK N   1      31.698  17.396   7.735  0.00  0.00     0.037 A 
HETATM    4  C   UNK N   1      27.621  15.931   2.828  0.00  0.00     0.024 A 
HETATM    5  C   UNK N   1      25.709  15.014   1.520  0.00  0.00     0.077 C 
HETATM    6  C   UNK N   1      23.616  14.438   2.704  0.00  0.00     0.075 C 
HETATM    7  C   UNK N   1      26.300  15.493   2.821  0.00  0.00    -0.043 A 
HETATM    8  C   UNK N   1      30.370  16.904   5.314  0.00  0.00     0.032 A 
HETATM    9  C   UNK N   1      28.236  16.338   4.017  0.00  0.00     0.032 A 
HETATM   10  C   UNK N   1      30.307  17.292   7.722  0.00  0.00     0.080 A 
HETATM   11  C   UNK N   1      24.236  14.730   4.075  0.00  0.00     0.163 C 
HETATM   12  C   UNK N   1      25.575  15.436   4.033  0.00  0.00     0.011 A 
HETATM   13  C   UNK N   1      29.626  17.027   6.510  0.00  0.00     0.062 A 
HETATM   14  C   UNK N   1      27.494  16.381   5.216  0.00  0.00     0.063 A 
HETATM   15  C   UNK N   1      29.684  16.637   4.031  0.00  0.00     0.194 C 
HETATM   16  C   UNK N   1      26.167  15.911   5.220  0.00  0.00     0.090 A 
HETATM   17  C   UNK N   1      28.153  16.841   6.470  0.00  0.00     0.199 C 
HETATM   18  C   UNK N   1      24.647  13.934   1.702  0.00  0.00     0.064 C 
HETATM   19  O   UNK N   1      30.330  16.577   2.991  0.00  0.00    -0.287 OA
HETATM   20  O   UNK N   1      27.486  17.022   7.481  0.00  0.00    -0.286 OA
ENDROOT
BRANCH  11  21
HETATM   21  O   UNK N   1      23.324  15.233   5.028  0.00  0.00    -0.351 OA
BRANCH  21  22
HETATM   22  C   UNK N   1      22.174  15.850   4.484  0.00  0.00     0.263 C 
HETATM   23  C   UNK N   1      22.610  17.199   3.901  0.00  0.00     0.099 C 
HETATM   24  C   UNK N   1      23.164  18.081   5.042  0.00  0.00     0.257 C 
HETATM   25  C   UNK N   1      22.088  18.206   6.144  0.00  0.00     0.180 C 
HETATM   26  C   UNK N   1      21.650  16.793   6.572  0.00  0.00     0.151 C 
HETATM   27  C   UNK N   1      20.557  16.867   7.625  0.00  0.00     0.042 C 
HETATM   28  O   UNK N   1      21.157  16.056   5.460  0.00  0.00    -0.354 OA
BRANCH  24  29
HETATM   29  N   UNK N   1      23.659  19.393   4.578  0.00  0.00     0.087 N 
HETATM   30  C   UNK N   1      23.182  19.735   3.244  0.00  0.00     0.310 C 
HETATM   31  C   UNK N   1      25.116  19.384   4.523  0.00  0.00     0.310 C 
ENDBRANCH  24  29
BRANCH  25  32
HETATM   32  O   UNK N   1      20.976  18.911   5.672  0.00  0.00    -0.391 OA
HETATM   33  H   UNK N   1      20.060  19.228   5.706  0.00  0.00     0.210 HD
ENDBRANCH  25  32
ENDBRANCH  21  22
ENDBRANCH  11  21
BRANCH  18  34
HETATM   34  C   UNK N   1      23.968  13.675   0.360  0.00  0.00     0.034 C 
HETATM   35  C   UNK N   1      22.459  13.515   0.498  0.00  0.00     0.008 C 
ENDBRANCH  18  34
BRANCH  18  36
HETATM   36  O   UNK N   1      25.247  12.756   2.158  0.00  0.00    -0.389 OA
HETATM   37  H   UNK N   1      25.918  12.081   2.343  0.00  0.00     0.210 HD
ENDBRANCH  18  36
BRANCH  16  38
HETATM   38  O   UNK N   1      25.474  15.864   6.376  0.00  0.00    -0.359 OA
HETATM   39  H   UNK N   1      24.861  16.523   6.637  0.00  0.00     0.217 HD
ENDBRANCH  16  38
BRANCH  10  40
HETATM   40  O   UNK N   1      29.636  17.430   8.880  0.00  0.00    -0.360 OA
HETATM   41  H   UNK N   1      28.800  17.851   8.911  0.00  0.00     0.217 HD
ENDBRANCH  10  40
TORSDOF 8
ENDMDL
MODEL 6
REMARK VINA RESULT:      -7.6      9.988     14.266
REMARK  8 active torsions:
REMARK  status: ('A' for Active; 'I' for Inactive)
REMARK    1  A    between atoms: C_28  and  C_5 
REMARK    2  A    between atoms: C_17  and  N_29 
REMARK    3  A    between atoms: O_30  and  C_18 
REMARK    4  A    between atoms: C_19  and  O_37 
REMARK    5  A    between atoms: C_20  and  O_37 
REMARK    6  A    between atoms: C_24  and  O_31 
REMARK    7  A    between atoms: O_33  and  C_26 
REMARK    8  A    between atoms: C_28  and  O_35 
ROOT
HETATM    1  C   UNK N   1      32.066  17.563   3.714  0.00  0.00     0.004 A 
HETATM    2  C   UNK N   1      32.507  17.803   5.015  0.00  0.00     0.017 A 
HETATM    3  C   UNK N   1      32.536  16.455   3.010  0.00  0.00     0.037 A 
HETATM    4  C   UNK N   1      34.936  16.339   9.098  0.00  0.00     0.024 A 
HETATM    5  C   UNK N   1      35.781  15.550  11.306  0.00  0.00     0.077 C 
HETATM    6  C   UNK N   1      36.695  13.260  11.488  0.00  0.00     0.075 C 
HETATM    7  C   UNK N   1      35.551  15.329   9.833  0.00  0.00    -0.043 A 
HETATM    8  C   UNK N   1      33.406  16.925   5.634  0.00  0.00     0.032 A 
HETATM    9  C   UNK N   1      34.652  16.167   7.740  0.00  0.00     0.032 A 
HETATM   10  C   UNK N   1      33.436  15.571   3.606  0.00  0.00     0.080 A 
HETATM   11  C   UNK N   1      36.304  12.920  10.045  0.00  0.00     0.163 C 
HETATM   12  C   UNK N   1      35.872  14.104   9.205  0.00  0.00     0.011 A 
HETATM   13  C   UNK N   1      33.870  15.787   4.935  0.00  0.00     0.062 A 
HETATM   14  C   UNK N   1      35.057  14.989   7.078  0.00  0.00     0.063 A 
HETATM   15  C   UNK N   1      33.850  17.182   7.023  0.00  0.00     0.194 C 
HETATM   16  C   UNK N   1      35.652  13.953   7.822  0.00  0.00     0.090 A 
HETATM   17  C   UNK N   1      34.772  14.830   5.625  0.00  0.00     0.199 C 
HETATM   18  C   UNK N   1      35.739  14.262  12.123  0.00  0.00     0.064 C 
HETATM   19  O   UNK N   1      33.481  18.194   7.607  0.00  0.00    -0.287 OA
HETATM   20  O   UNK N   1      35.244  13.883   5.009  0.00  0.00    -0.286 OA
ENDROOT
BRANCH  11  21
HETATM   21  O   UNK N   1      37.182  12.020   9.404  0.00  0.00    -0.351 OA
BRANCH  21  22
HETATM   22  C   UNK N   1      38.531  12.104   9.821  0.00  0.00     0.263 C 
HETATM   23  C   UNK N   1      39.278  12.952   8.785  0.00  0.00     0.099 C 
HETATM   24  C   UNK N   1      39.216  12.238   7.416  0.00  0.00     0.257 C 
HETATM   25  C   UNK N   1      39.787  10.810   7.571  0.00  0.00     0.180 C 
HETATM   26  C   UNK N   1      39.035  10.096   8.710  0.00  0.00     0.151 C 
HETATM   27  C   UNK N   1      39.596   8.701   8.929  0.00  0.00     0.042 C 
HETATM   28  O   UNK N   1      39.145  10.824   9.927  0.00  0.00    -0.354 OA
BRANCH  24  29
HETATM   29  N   UNK N   1      39.869  12.998   6.331  0.00  0.00     0.087 N 
HETATM   30  C   UNK N   1      40.555  14.190   6.813  0.00  0.00     0.310 C 
HETATM   31  C   UNK N   1      38.872  13.438   5.363  0.00  0.00     0.310 C 
ENDBRANCH  24  29
BRANCH  25  32
HETATM   32  O   UNK N   1      41.152  10.854   7.876  0.00  0.00    -0.391 OA
HETATM   33  H   UNK N   1      42.095  10.943   7.667  0.00  0.00     0.210 HD
ENDBRANCH  25  32
ENDBRANCH  21  22
ENDBRANCH  11  21
BRANCH  18  34
HETATM   34  C   UNK N   1      36.190  14.564  13.548  0.00  0.00     0.034 C 
HETATM   35  C   UNK N   1      35.970  13.384  14.486  0.00  0.00     0.008 C 
ENDBRANCH  18  34
BRANCH  18  36
HETATM   36  O   UNK N   1      34.434  13.759  12.141  0.00  0.00    -0.389 OA
HETATM   37  H   UNK N   1      33.484  13.666  11.965  0.00  0.00     0.210 HD
ENDBRANCH  18  36
BRANCH  16  38
HETATM   38  O   UNK N   1      35.964  12.787   7.220  0.00  0.00    -0.359 OA
HETATM   39  H   UNK N   1      35.350  12.281   6.726  0.00  0.00     0.217 HD
ENDBRANCH  16  38
BRANCH  10  40
HETATM   40  O   UNK N   1      33.864  14.508   2.900  0.00  0.00    -0.360 OA
HETATM   41  H   UNK N   1      34.285  14.612   2.070  0.00  0.00     0.217 HD
ENDBRANCH  10  40
TORSDOF 8
ENDMDL
MODEL 7
REMARK VINA RESULT:      -7.6     14.540     17.143
REMARK  8 active torsions:
REMARK  status: ('A' for Active; 'I' for Inactive)
REMARK    1  A    between atoms: C_28  and  C_5 
REMARK    2  A    between atoms: C_17  and  N_29 
REMARK    3  A    between atoms: O_30  and  C_18 
REMARK    4  A    between atoms: C_19  and  O_37 
REMARK    5  A    between atoms: C_20  and  O_37 
REMARK    6  A    between atoms: C_24  and  O_31 
REMARK    7  A    between atoms: O_33  and  C_26 
REMARK    8  A    between atoms: C_28  and  O_35 
ROOT
HETATM    1  C   UNK N   1      28.695  31.062  -1.621  0.00  0.00     0.004 A 
HETATM    2  C   UNK N   1      29.707  30.138  -1.877  0.00  0.00     0.017 A 
HETATM    3  C   UNK N   1      27.434  30.893  -2.192  0.00  0.00     0.037 A 
HETATM    4  C   UNK N   1      31.217  25.778  -3.729  0.00  0.00     0.024 A 
HETATM    5  C   UNK N   1      31.993  23.472  -4.265  0.00  0.00     0.077 C 
HETATM    6  C   UNK N   1      30.366  21.840  -5.160  0.00  0.00     0.075 C 
HETATM    7  C   UNK N   1      30.911  24.521  -4.242  0.00  0.00    -0.043 A 
HETATM    8  C   UNK N   1      29.462  29.022  -2.688  0.00  0.00     0.032 A 
HETATM    9  C   UNK N   1      30.238  26.773  -3.636  0.00  0.00     0.032 A 
HETATM   10  C   UNK N   1      27.170  29.792  -3.006  0.00  0.00     0.080 A 
HETATM   11  C   UNK N   1      29.194  22.810  -4.974  0.00  0.00     0.163 C 
HETATM   12  C   UNK N   1      29.590  24.236  -4.655  0.00  0.00     0.011 A 
HETATM   13  C   UNK N   1      28.180  28.831  -3.251  0.00  0.00     0.062 A 
HETATM   14  C   UNK N   1      28.941  26.535  -4.136  0.00  0.00     0.063 A 
HETATM   15  C   UNK N   1      30.541  28.039  -2.934  0.00  0.00     0.194 C 
HETATM   16  C   UNK N   1      28.618  25.256  -4.629  0.00  0.00     0.090 A 
HETATM   17  C   UNK N   1      27.915  27.611  -4.056  0.00  0.00     0.199 C 
HETATM   18  C   UNK N   1      31.458  22.051  -4.119  0.00  0.00     0.064 C 
HETATM   19  O   UNK N   1      31.663  28.233  -2.481  0.00  0.00    -0.287 OA
HETATM   20  O   UNK N   1      26.835  27.470  -4.614  0.00  0.00    -0.286 OA
ENDROOT
BRANCH  11  21
HETATM   21  O   UNK N   1      28.171  22.674  -5.939  0.00  0.00    -0.351 OA
BRANCH  21  22
HETATM   22  C   UNK N   1      28.612  22.279  -7.223  0.00  0.00     0.263 C 
HETATM   23  C   UNK N   1      28.617  23.529  -8.110  0.00  0.00     0.099 C 
HETATM   24  C   UNK N   1      27.175  24.073  -8.216  0.00  0.00     0.257 C 
HETATM   25  C   UNK N   1      26.255  22.949  -8.743  0.00  0.00     0.180 C 
HETATM   26  C   UNK N   1      26.417  21.712  -7.840  0.00  0.00     0.151 C 
HETATM   27  C   UNK N   1      25.562  20.562  -8.347  0.00  0.00     0.042 C 
HETATM   28  O   UNK N   1      27.772  21.284  -7.800  0.00  0.00    -0.354 OA
BRANCH  24  29
HETATM   29  N   UNK N   1      27.076  25.311  -9.015  0.00  0.00     0.087 N 
HETATM   30  C   UNK N   1      28.353  25.716  -9.588  0.00  0.00     0.310 C 
HETATM   31  C   UNK N   1      26.615  26.410  -8.174  0.00  0.00     0.310 C 
ENDBRANCH  24  29
BRANCH  25  32
HETATM   32  O   UNK N   1      26.593  22.607 -10.056  0.00  0.00    -0.391 OA
HETATM   33  H   UNK N   1      26.685  22.769 -11.009  0.00  0.00     0.210 HD
ENDBRANCH  25  32
ENDBRANCH  21  22
ENDBRANCH  11  21
BRANCH  18  34
HETATM   34  C   UNK N   1      32.596  21.065  -4.367  0.00  0.00     0.034 C 
HETATM   35  C   UNK N   1      33.521  20.936  -3.164  0.00  0.00     0.008 C 
ENDBRANCH  18  34
BRANCH  18  36
HETATM   36  O   UNK N   1      30.953  21.868  -2.827  0.00  0.00    -0.389 OA
HETATM   37  H   UNK N   1      30.595  21.438  -2.036  0.00  0.00     0.210 HD
ENDBRANCH  18  36
BRANCH  16  38
HETATM   38  O   UNK N   1      27.359  24.988  -5.029  0.00  0.00    -0.359 OA
HETATM   39  H   UNK N   1      27.087  25.011  -5.925  0.00  0.00     0.217 HD
ENDBRANCH  16  38
BRANCH  10  40
HETATM   40  O   UNK N   1      25.939  29.656  -3.534  0.00  0.00    -0.360 OA
HETATM   41  H   UNK N   1      25.413  30.402  -3.740  0.00  0.00     0.217 HD
ENDBRANCH  10  40
TORSDOF 8
ENDMDL
MODEL 8
REMARK VINA RESULT:      -7.5      4.972      7.821
REMARK  8 active torsions:
REMARK  status: ('A' for Active; 'I' for Inactive)
REMARK    1  A    between atoms: C_28  and  C_5 
REMARK    2  A    between atoms: C_17  and  N_29 
REMARK    3  A    between atoms: O_30  and  C_18 
REMARK    4  A    between atoms: C_19  and  O_37 
REMARK    5  A    between atoms: C_20  and  O_37 
REMARK    6  A    between atoms: C_24  and  O_31 
REMARK    7  A    between atoms: O_33  and  C_26 
REMARK    8  A    between atoms: C_28  and  O_35 
ROOT
HETATM    1  C   UNK N   1      34.742  16.061   9.064  0.00  0.00     0.004 A 
HETATM    2  C   UNK N   1      33.622  16.889   9.003  0.00  0.00     0.017 A 
HETATM    3  C   UNK N   1      34.766  14.866   8.345  0.00  0.00     0.037 A 
HETATM    4  C   UNK N   1      29.247  18.109   6.982  0.00  0.00     0.024 A 
HETATM    5  C   UNK N   1      27.261  19.024   5.786  0.00  0.00     0.077 C 
HETATM    6  C   UNK N   1      26.398  17.822   3.806  0.00  0.00     0.075 C 
HETATM    7  C   UNK N   1      28.311  17.957   5.963  0.00  0.00    -0.043 A 
HETATM    8  C   UNK N   1      32.525  16.545   8.204  0.00  0.00     0.032 A 
HETATM    9  C   UNK N   1      30.273  17.176   7.158  0.00  0.00     0.032 A 
HETATM   10  C   UNK N   1      33.682  14.501   7.547  0.00  0.00     0.080 A 
HETATM   11  C   UNK N   1      27.559  16.822   3.827  0.00  0.00     0.163 C 
HETATM   12  C   UNK N   1      28.410  16.858   5.079  0.00  0.00     0.011 A 
HETATM   13  C   UNK N   1      32.552  15.346   7.454  0.00  0.00     0.062 A 
HETATM   14  C   UNK N   1      30.326  16.023   6.346  0.00  0.00     0.063 A 
HETATM   15  C   UNK N   1      31.352  17.445   8.134  0.00  0.00     0.194 C 
HETATM   16  C   UNK N   1      29.400  15.879   5.296  0.00  0.00     0.090 A 
HETATM   17  C   UNK N   1      31.409  15.024   6.561  0.00  0.00     0.199 C 
HETATM   18  C   UNK N   1      26.806  19.189   4.340  0.00  0.00     0.064 C 
HETATM   19  O   UNK N   1      31.314  18.458   8.821  0.00  0.00    -0.287 OA
HETATM   20  O   UNK N   1      31.382  13.954   5.966  0.00  0.00    -0.286 OA
ENDROOT
BRANCH  11  21
HETATM   21  O   UNK N   1      27.218  15.529   3.373  0.00  0.00    -0.351 OA
BRANCH  21  22
HETATM   22  C   UNK N   1      26.052  14.981   3.955  0.00  0.00     0.263 C 
HETATM   23  C   UNK N   1      26.394  13.561   4.418  0.00  0.00     0.099 C 
HETATM   24  C   UNK N   1      26.790  12.715   3.188  0.00  0.00     0.257 C 
HETATM   25  C   UNK N   1      25.640  12.765   2.157  0.00  0.00     0.180 C 
HETATM   26  C   UNK N   1      25.310  14.238   1.852  0.00  0.00     0.151 C 
HETATM   27  C   UNK N   1      24.151  14.337   0.874  0.00  0.00     0.042 C 
HETATM   28  O   UNK N   1      24.961  14.937   3.040  0.00  0.00    -0.354 OA
BRANCH  24  29
HETATM   29  N   UNK N   1      27.187  11.335   3.531  0.00  0.00     0.087 N 
HETATM   30  C   UNK N   1      28.217  11.285   4.560  0.00  0.00     0.310 C 
HETATM   31  C   UNK N   1      27.724  10.664   2.353  0.00  0.00     0.310 C 
ENDBRANCH  24  29
BRANCH  25  32
HETATM   32  O   UNK N   1      24.498  12.132   2.658  0.00  0.00    -0.391 OA
HETATM   33  H   UNK N   1      23.647  12.097   3.123  0.00  0.00     0.210 HD
ENDBRANCH  25  32
ENDBRANCH  21  22
ENDBRANCH  11  21
BRANCH  18  34
HETATM   34  C   UNK N   1      25.605  20.130   4.302  0.00  0.00     0.034 C 
HETATM   35  C   UNK N   1      25.016  20.258   2.903  0.00  0.00     0.008 C 
ENDBRANCH  18  34
BRANCH  18  36
HETATM   36  O   UNK N   1      27.847  19.728   3.577  0.00  0.00    -0.389 OA
HETATM   37  H   UNK N   1      28.727  20.047   3.322  0.00  0.00     0.210 HD
ENDBRANCH  18  36
BRANCH  16  38
HETATM   38  O   UNK N   1      29.492  14.827   4.457  0.00  0.00    -0.359 OA
HETATM   39  H   UNK N   1      29.935  14.862   3.633  0.00  0.00     0.217 HD
ENDBRANCH  16  38
BRANCH  10  40
HETATM   40  O   UNK N   1      33.743  13.344   6.861  0.00  0.00    -0.360 OA
HETATM   41  H   UNK N   1      34.547  13.041   6.489  0.00  0.00     0.217 HD
ENDBRANCH  10  40
TORSDOF 8
ENDMDL
MODEL 9
REMARK VINA RESULT:      -7.5      4.454      8.190
REMARK  8 active torsions:
REMARK  status: ('A' for Active; 'I' for Inactive)
REMARK    1  A    between atoms: C_28  and  C_5 
REMARK    2  A    between atoms: C_17  and  N_29 
REMARK    3  A    between atoms: O_30  and  C_18 
REMARK    4  A    between atoms: C_19  and  O_37 
REMARK    5  A    between atoms: C_20  and  O_37 
REMARK    6  A    between atoms: C_24  and  O_31 
REMARK    7  A    between atoms: O_33  and  C_26 
REMARK    8  A    between atoms: C_28  and  O_35 
ROOT
HETATM    1  C   UNK N   1      35.390  14.936   8.175  0.00  0.00     0.004 A 
HETATM    2  C   UNK N   1      34.419  15.921   8.348  0.00  0.00     0.017 A 
HETATM    3  C   UNK N   1      35.099  13.792   7.433  0.00  0.00     0.037 A 
HETATM    4  C   UNK N   1      29.986  17.872   7.224  0.00  0.00     0.024 A 
HETATM    5  C   UNK N   1      27.979  19.130   6.450  0.00  0.00     0.077 C 
HETATM    6  C   UNK N   1      26.594  18.175   4.638  0.00  0.00     0.075 C 
HETATM    7  C   UNK N   1      28.867  17.913   6.397  0.00  0.00    -0.043 A 
HETATM    8  C   UNK N   1      33.154  15.784   7.763  0.00  0.00     0.032 A 
HETATM    9  C   UNK N   1      30.873  16.792   7.178  0.00  0.00     0.032 A 
HETATM   10  C   UNK N   1      33.844  13.632   6.846  0.00  0.00     0.080 A 
HETATM   11  C   UNK N   1      27.572  17.017   4.413  0.00  0.00     0.163 C 
HETATM   12  C   UNK N   1      28.634  16.862   5.481  0.00  0.00     0.011 A 
HETATM   13  C   UNK N   1      32.859  14.637   6.990  0.00  0.00     0.062 A 
HETATM   14  C   UNK N   1      30.599  15.689   6.341  0.00  0.00     0.063 A 
HETATM   15  C   UNK N   1      32.139  16.847   7.939  0.00  0.00     0.194 C 
HETATM   16  C   UNK N   1      29.485  15.739   5.482  0.00  0.00     0.090 A 
HETATM   17  C   UNK N   1      31.537  14.533   6.322  0.00  0.00     0.199 C 
HETATM   18  C   UNK N   1      27.297  19.438   5.120  0.00  0.00     0.064 C 
HETATM   19  O   UNK N   1      32.384  17.816   8.647  0.00  0.00    -0.287 OA
HETATM   20  O   UNK N   1      31.238  13.512   5.714  0.00  0.00    -0.286 OA
ENDROOT
BRANCH  11  21
HETATM   21  O   UNK N   1      26.960  15.815   3.998  0.00  0.00    -0.351 OA
BRANCH  21  22
HETATM   22  C   UNK N   1      26.642  15.752   2.622  0.00  0.00     0.263 C 
HETATM   23  C   UNK N   1      25.125  15.567   2.510  0.00  0.00     0.099 C 
HETATM   24  C   UNK N   1      24.733  14.232   3.181  0.00  0.00     0.257 C 
HETATM   25  C   UNK N   1      25.541  13.088   2.527  0.00  0.00     0.180 C 
HETATM   26  C   UNK N   1      27.040  13.436   2.600  0.00  0.00     0.151 C 
HETATM   27  C   UNK N   1      27.873  12.358   1.927  0.00  0.00     0.042 C 
HETATM   28  O   UNK N   1      27.306  14.678   1.962  0.00  0.00    -0.354 OA
BRANCH  24  29
HETATM   29  N   UNK N   1      23.278  13.978   3.170  0.00  0.00     0.087 N 
HETATM   30  C   UNK N   1      22.543  14.949   2.369  0.00  0.00     0.310 C 
HETATM   31  C   UNK N   1      22.750  14.054   4.528  0.00  0.00     0.310 C 
ENDBRANCH  24  29
BRANCH  25  32
HETATM   32  O   UNK N   1      25.172  12.924   1.188  0.00  0.00    -0.391 OA
HETATM   33  H   UNK N   1      24.656  12.540   0.461  0.00  0.00     0.210 HD
ENDBRANCH  25  32
ENDBRANCH  21  22
ENDBRANCH  11  21
BRANCH  18  34
HETATM   34  C   UNK N   1      26.268  20.544   5.335  0.00  0.00     0.034 C 
HETATM   35  C   UNK N   1      26.688  21.517   6.430  0.00  0.00     0.008 C 
ENDBRANCH  18  34
BRANCH  18  36
HETATM   36  O   UNK N   1      28.251  19.860   4.189  0.00  0.00    -0.389 OA
HETATM   37  H   UNK N   1      28.897  19.842   3.466  0.00  0.00     0.210 HD
ENDBRANCH  18  36
BRANCH  16  38
HETATM   38  O   UNK N   1      29.260  14.731   4.614  0.00  0.00    -0.359 OA
HETATM   39  H   UNK N   1      29.945  14.240   4.205  0.00  0.00     0.217 HD
ENDBRANCH  16  38
BRANCH  10  40
HETATM   40  O   UNK N   1      33.601  12.518   6.130  0.00  0.00    -0.360 OA
HETATM   41  H   UNK N   1      34.103  12.309   5.368  0.00  0.00     0.217 HD
ENDBRANCH  10  40
TORSDOF 8
ENDMDL
