MODEL 1
REMARK VINA RESULT:      -4.2      0.000      0.000
REMARK  1 active torsions:
REMARK  status: ('A' for Active; 'I' for Inactive)
REMARK    1  A    between atoms: C_3  and  N_4 
ROOT
HETATM    1  C   UNK N   1      23.075  11.888  12.785  0.00  0.00     0.163 C 
HETATM    2  N   UNK N   1      22.789  12.267  11.405  0.00  0.00    -0.290 N 
HETATM    3  C   UNK N   1      23.813  12.562  10.549  0.00  0.00     0.105 A 
HETATM    4  C   UNK N   1      23.535  12.923   9.231  0.00  0.00     0.065 A 
HETATM    5  C   UNK N   1      22.210  12.976   8.809  0.00  0.00     0.096 A 
HETATM    6  N   UNK N   1      21.208  12.679   9.675  0.00  0.00    -0.319 N 
HETATM    7  C   UNK N   1      21.482  12.325  10.969  0.00  0.00     0.327 A 
HETATM    8  O   UNK N   1      20.564  12.063  11.726  0.00  0.00    -0.246 OA
HETATM    9  H   UNK N   1      20.272  12.719   9.369  0.00  0.00     0.170 HD
ENDROOT
BRANCH   3  10
HETATM   10  N   UNK N   1      25.156  12.506  10.982  0.00  0.00    -0.385 N 
HETATM   11  H   UNK N   1      25.663  11.667  10.907  0.00  0.00     0.157 HD
HETATM   12  H   UNK N   1      25.585  13.308  11.359  0.00  0.00     0.157 HD
ENDBRANCH   3  10
TORSDOF 1
ENDMDL
MODEL 2
REMARK VINA RESULT:      -4.2      1.836      2.970
REMARK  1 active torsions:
REMARK  status: ('A' for Active; 'I' for Inactive)
REMARK    1  A    between atoms: C_3  and  N_4 
ROOT
HETATM    1  C   UNK N   1      24.822  13.185   9.621  0.00  0.00     0.163 C 
HETATM    2  N   UNK N   1      23.539  12.840  10.223  0.00  0.00    -0.290 N 
HETATM    3  C   UNK N   1      22.373  13.204   9.608  0.00  0.00     0.105 A 
HETATM    4  C   UNK N   1      21.149  12.871  10.187  0.00  0.00     0.065 A 
HETATM    5  C   UNK N   1      21.137  12.170  11.389  0.00  0.00     0.096 A 
HETATM    6  N   UNK N   1      22.305  11.819  11.983  0.00  0.00    -0.319 N 
HETATM    7  C   UNK N   1      23.507  12.145  11.414  0.00  0.00     0.327 A 
HETATM    8  O   UNK N   1      24.542  11.818  11.968  0.00  0.00    -0.246 OA
HETATM    9  H   UNK N   1      22.288  11.323  12.834  0.00  0.00     0.170 HD
ENDROOT
BRANCH   3  10
HETATM   10  N   UNK N   1      22.391  13.915   8.388  0.00  0.00    -0.385 N 
HETATM   11  H   UNK N   1      21.572  13.986   7.847  0.00  0.00     0.157 HD
HETATM   12  H   UNK N   1      23.223  14.340   8.078  0.00  0.00     0.157 HD
ENDBRANCH   3  10
TORSDOF 1
ENDMDL
MODEL 3
REMARK VINA RESULT:      -4.1      1.704      2.271
REMARK  1 active torsions:
REMARK  status: ('A' for Active; 'I' for Inactive)
REMARK    1  A    between atoms: C_3  and  N_4 
ROOT
HETATM    1  C   UNK N   1      20.466  12.185  11.437  0.00  0.00     0.163 C 
HETATM    2  N   UNK N   1      21.772  12.263  10.792  0.00  0.00    -0.290 N 
HETATM    3  C   UNK N   1      22.907  12.013  11.511  0.00  0.00     0.105 A 
HETATM    4  C   UNK N   1      24.153  12.088  10.891  0.00  0.00     0.065 A 
HETATM    5  C   UNK N   1      24.219  12.419   9.541  0.00  0.00     0.096 A 
HETATM    6  N   UNK N   1      23.080  12.664   8.845  0.00  0.00    -0.319 N 
HETATM    7  C   UNK N   1      21.856  12.589   9.455  0.00  0.00     0.327 A 
HETATM    8  O   UNK N   1      20.848  12.813   8.807  0.00  0.00    -0.246 OA
HETATM    9  H   UNK N   1      23.134  12.897   7.889  0.00  0.00     0.170 HD
ENDROOT
BRANCH   3  10
HETATM   10  N   UNK N   1      22.836  11.677  12.882  0.00  0.00    -0.385 N 
HETATM   11  H   UNK N   1      23.089  10.775  13.181  0.00  0.00     0.157 HD
HETATM   12  H   UNK N   1      22.533  12.347  13.537  0.00  0.00     0.157 HD
ENDBRANCH   3  10
TORSDOF 1
ENDMDL
MODEL 4
REMARK VINA RESULT:      -4.1     11.435     12.455
REMARK  1 active torsions:
REMARK  status: ('A' for Active; 'I' for Inactive)
REMARK    1  A    between atoms: C_3  and  N_4 
ROOT
HETATM    1  C   UNK N   1      35.274  16.976  10.414  0.00  0.00     0.163 C 
HETATM    2  N   UNK N   1      34.301  17.038   9.330  0.00  0.00    -0.290 N 
HETATM    3  C   UNK N   1      33.315  16.095   9.239  0.00  0.00     0.105 A 
HETATM    4  C   UNK N   1      32.387  16.158   8.200  0.00  0.00     0.065 A 
HETATM    5  C   UNK N   1      32.482  17.188   7.269  0.00  0.00     0.096 A 
HETATM    6  N   UNK N   1      33.468  18.114   7.378  0.00  0.00    -0.319 N 
HETATM    7  C   UNK N   1      34.379  18.051   8.398  0.00  0.00     0.327 A 
HETATM    8  O   UNK N   1      35.255  18.895   8.473  0.00  0.00    -0.246 OA
HETATM    9  H   UNK N   1      33.529  18.840   6.715  0.00  0.00     0.170 HD
ENDROOT
BRANCH   3  10
HETATM   10  N   UNK N   1      33.223  15.052  10.186  0.00  0.00    -0.385 N 
HETATM   11  H   UNK N   1      32.425  14.476  10.209  0.00  0.00     0.157 HD
HETATM   12  H   UNK N   1      33.957  14.900  10.825  0.00  0.00     0.157 HD
ENDBRANCH   3  10
TORSDOF 1
ENDMDL
MODEL 5
REMARK VINA RESULT:      -4.0      1.233      2.669
REMARK  1 active torsions:
REMARK  status: ('A' for Active; 'I' for Inactive)
REMARK    1  A    between atoms: C_3  and  N_4 
ROOT
HETATM    1  C   UNK N   1      20.778  12.143  11.556  0.00  0.00     0.163 C 
HETATM    2  N   UNK N   1      22.148  12.276  11.072  0.00  0.00    -0.290 N 
HETATM    3  C   UNK N   1      22.384  12.623   9.771  0.00  0.00     0.105 A 
HETATM    4  C   UNK N   1      23.695  12.749   9.313  0.00  0.00     0.065 A 
HETATM    5  C   UNK N   1      24.746  12.518  10.196  0.00  0.00     0.096 A 
HETATM    6  N   UNK N   1      24.490  12.175  11.483  0.00  0.00    -0.319 N 
HETATM    7  C   UNK N   1      23.202  12.051  11.932  0.00  0.00     0.327 A 
HETATM    8  O   UNK N   1      22.999  11.742  13.093  0.00  0.00    -0.246 OA
HETATM    9  H   UNK N   1      25.239  12.013  12.102  0.00  0.00     0.170 HD
ENDROOT
BRANCH   3  10
HETATM   10  N   UNK N   1      21.314  12.857   8.879  0.00  0.00    -0.385 N 
HETATM   11  H   UNK N   1      21.443  13.441   8.098  0.00  0.00     0.157 HD
HETATM   12  H   UNK N   1      20.439  12.435   9.039  0.00  0.00     0.157 HD
ENDBRANCH   3  10
TORSDOF 1
ENDMDL
MODEL 6
REMARK VINA RESULT:      -4.0      9.516     11.024
REMARK  1 active torsions:
REMARK  status: ('A' for Active; 'I' for Inactive)
REMARK    1  A    between atoms: C_3  and  N_4 
ROOT
HETATM    1  C   UNK N   1      20.543  20.887   1.520  0.00  0.00     0.163 C 
HETATM    2  N   UNK N   1      20.992  19.892   2.487  0.00  0.00    -0.290 N 
HETATM    3  C   UNK N   1      20.176  18.849   2.827  0.00  0.00     0.105 A 
HETATM    4  C   UNK N   1      20.610  17.900   3.752  0.00  0.00     0.065 A 
HETATM    5  C   UNK N   1      21.874  18.034   4.317  0.00  0.00     0.096 A 
HETATM    6  N   UNK N   1      22.669  19.077   3.967  0.00  0.00    -0.319 N 
HETATM    7  C   UNK N   1      22.242  20.009   3.058  0.00  0.00     0.327 A 
HETATM    8  O   UNK N   1      22.975  20.936   2.761  0.00  0.00    -0.246 OA
HETATM    9  H   UNK N   1      23.562  19.165   4.371  0.00  0.00     0.170 HD
ENDROOT
BRANCH   3  10
HETATM   10  N   UNK N   1      18.893  18.717   2.250  0.00  0.00    -0.385 N 
HETATM   11  H   UNK N   1      18.347  19.517   2.077  0.00  0.00     0.157 HD
HETATM   12  H   UNK N   1      18.546  17.825   2.021  0.00  0.00     0.157 HD
ENDBRANCH   3  10
TORSDOF 1
ENDMDL
MODEL 7
REMARK VINA RESULT:      -3.8      1.333      2.577
REMARK  1 active torsions:
REMARK  status: ('A' for Active; 'I' for Inactive)
REMARK    1  A    between atoms: C_3  and  N_4 
ROOT
HETATM    1  C   UNK N   1      21.080  13.774   8.625  0.00  0.00     0.163 C 
HETATM    2  N   UNK N   1      21.851  13.087   9.655  0.00  0.00    -0.290 N 
HETATM    3  C   UNK N   1      23.208  12.974   9.536  0.00  0.00     0.105 A 
HETATM    4  C   UNK N   1      23.940  12.317  10.523  0.00  0.00     0.065 A 
HETATM    5  C   UNK N   1      23.270  11.784  11.621  0.00  0.00     0.096 A 
HETATM    6  N   UNK N   1      21.923  11.907  11.721  0.00  0.00    -0.319 N 
HETATM    7  C   UNK N   1      21.204  12.553  10.750  0.00  0.00     0.327 A 
HETATM    8  O   UNK N   1      19.995  12.650  10.864  0.00  0.00    -0.246 OA
HETATM    9  H   UNK N   1      21.456  11.527  12.501  0.00  0.00     0.170 HD
ENDROOT
BRANCH   3  10
HETATM   10  N   UNK N   1      23.883  13.516   8.420  0.00  0.00    -0.385 N 
HETATM   11  H   UNK N   1      23.710  13.160   7.519  0.00  0.00     0.157 HD
HETATM   12  H   UNK N   1      24.526  14.251   8.543  0.00  0.00     0.157 HD
ENDBRANCH   3  10
TORSDOF 1
ENDMDL
MODEL 8
REMARK VINA RESULT:      -3.8     23.609     24.807
REMARK  1 active torsions:
REMARK  status: ('A' for Active; 'I' for Inactive)
REMARK    1  A    between atoms: C_3  and  N_4 
ROOT
HETATM    1  C   UNK N   1      45.164  24.283   2.300  0.00  0.00     0.163 C 
HETATM    2  N   UNK N   1      44.181  23.245   2.586  0.00  0.00    -0.290 N 
HETATM    3  C   UNK N   1      44.470  22.253   3.481  0.00  0.00     0.105 A 
HETATM    4  C   UNK N   1      43.526  21.263   3.751  0.00  0.00     0.065 A 
HETATM    5  C   UNK N   1      42.298  21.303   3.097  0.00  0.00     0.096 A 
HETATM    6  N   UNK N   1      42.030  22.295   2.211  0.00  0.00    -0.319 N 
HETATM    7  C   UNK N   1      42.958  23.268   1.947  0.00  0.00     0.327 A 
HETATM    8  O   UNK N   1      42.693  24.148   1.148  0.00  0.00    -0.246 OA
HETATM    9  H   UNK N   1      41.159  22.316   1.753  0.00  0.00     0.170 HD
ENDROOT
BRANCH   3  10
HETATM   10  N   UNK N   1      45.718  22.218   4.142  0.00  0.00    -0.385 N 
HETATM   11  H   UNK N   1      45.809  22.602   5.043  0.00  0.00     0.157 HD
HETATM   12  H   UNK N   1      46.497  21.808   3.700  0.00  0.00     0.157 HD
ENDBRANCH   3  10
TORSDOF 1
ENDMDL
MODEL 9
REMARK VINA RESULT:      -3.8     12.120     13.042
REMARK  1 active torsions:
REMARK  status: ('A' for Active; 'I' for Inactive)
REMARK    1  A    between atoms: C_3  and  N_4 
ROOT
HETATM    1  C   UNK N   1      33.622  17.588   6.451  0.00  0.00     0.163 C 
HETATM    2  N   UNK N   1      34.036  17.093   7.759  0.00  0.00    -0.290 N 
HETATM    3  C   UNK N   1      33.765  15.802   8.121  0.00  0.00     0.105 A 
HETATM    4  C   UNK N   1      34.162  15.334   9.372  0.00  0.00     0.065 A 
HETATM    5  C   UNK N   1      34.832  16.195  10.236  0.00  0.00     0.096 A 
HETATM    6  N   UNK N   1      35.092  17.472   9.858  0.00  0.00    -0.319 N 
HETATM    7  C   UNK N   1      34.701  17.932   8.628  0.00  0.00     0.327 A 
HETATM    8  O   UNK N   1      34.946  19.083   8.313  0.00  0.00    -0.246 OA
HETATM    9  H   UNK N   1      35.566  18.075  10.475  0.00  0.00     0.170 HD
ENDROOT
BRANCH   3  10
HETATM   10  N   UNK N   1      33.084  14.933   7.240  0.00  0.00    -0.385 N 
HETATM   11  H   UNK N   1      32.236  14.518   7.516  0.00  0.00     0.157 HD
HETATM   12  H   UNK N   1      33.459  14.741   6.350  0.00  0.00     0.157 HD
ENDBRANCH   3  10
TORSDOF 1
ENDMDL
