MODEL 1
REMARK VINA RESULT:      -5.5      0.000      0.000
REMARK  7 active torsions:
REMARK  status: ('A' for Active; 'I' for Inactive)
REMARK       I    between atoms: C_2  and  N_4 
REMARK    1  A    between atoms: C_5  and  N_4 
REMARK    2  A    between atoms: C_5  and  C_6 
REMARK    3  A    between atoms: C_5  and  C_11 
REMARK    4  A    between atoms: C_6  and  C_7 
REMARK    5  A    between atoms: C_7  and  C_8 
REMARK    6  A    between atoms: C_8  and  O_9 
REMARK    7  A    between atoms: C_11  and  O_12 
ROOT
HETATM    1  C   UNK N   1      33.565  17.142   8.721  0.00  0.00     0.182 C 
ENDROOT
BRANCH   1   2
HETATM    2  N   UNK N   1      34.133  16.334   9.802  0.00  0.00    -0.347 N 
HETATM    3  C   UNK N   1      35.215  16.534  10.603  0.00  0.00     0.214 C 
HETATM    4  C   UNK N   1      35.550  15.514  11.633  0.00  0.00     0.117 C 
HETATM    5  O   UNK N   1      35.921  17.521  10.506  0.00  0.00    -0.274 OA
HETATM    6  H   UNK N   1      33.646  15.498   9.981  0.00  0.00     0.163 HD
ENDBRANCH   1   2
BRANCH   1   7
HETATM    7  C   UNK N   1      32.047  16.925   8.565  0.00  0.00     0.046 C 
BRANCH   7   8
HETATM    8  C   UNK N   1      31.218  18.206   8.572  0.00  0.00     0.112 C 
BRANCH   8   9
HETATM    9  C   UNK N   1      29.899  18.102   9.272  0.00  0.00     0.139 C 
HETATM   10  O   UNK N   1      28.992  17.422   8.817  0.00  0.00    -0.650 OA
BRANCH   9  11
HETATM   11  O   UNK N   1      29.718  18.772  10.425  0.00  0.00    -0.776 OA
HETATM   12  H   UNK N   1      28.932  18.648  10.920  0.00  0.00     0.167 HD
ENDBRANCH   9  11
ENDBRANCH   8   9
ENDBRANCH   7   8
ENDBRANCH   1   7
BRANCH   1  13
HETATM   13  C   UNK N   1      34.369  18.102   7.832  0.00  0.00     0.163 C 
HETATM   14  O   UNK N   1      34.459  17.936   6.632  0.00  0.00    -0.648 OA
BRANCH  13  15
HETATM   15  O   UNK N   1      34.998  19.162   8.372  0.00  0.00    -0.775 OA
HETATM   16  H   UNK N   1      35.329  19.115   9.247  0.00  0.00     0.167 HD
ENDBRANCH  13  15
ENDBRANCH   1  13
TORSDOF 7
ENDMDL
MODEL 2
REMARK VINA RESULT:      -5.4     10.952     13.606
REMARK  7 active torsions:
REMARK  status: ('A' for Active; 'I' for Inactive)
REMARK       I    between atoms: C_2  and  N_4 
REMARK    1  A    between atoms: C_5  and  N_4 
REMARK    2  A    between atoms: C_5  and  C_6 
REMARK    3  A    between atoms: C_5  and  C_11 
REMARK    4  A    between atoms: C_6  and  C_7 
REMARK    5  A    between atoms: C_7  and  C_8 
REMARK    6  A    between atoms: C_8  and  O_9 
REMARK    7  A    between atoms: C_11  and  O_12 
ROOT
HETATM    1  C   UNK N   1      21.902  19.370   3.233  0.00  0.00     0.182 C 
ENDROOT
BRANCH   1   2
HETATM    2  N   UNK N   1      23.314  19.433   3.615  0.00  0.00    -0.347 N 
HETATM    3  C   UNK N   1      24.348  20.164   3.119  0.00  0.00     0.214 C 
HETATM    4  C   UNK N   1      25.699  20.011   3.726  0.00  0.00     0.117 C 
HETATM    5  O   UNK N   1      24.209  20.944   2.194  0.00  0.00    -0.274 OA
HETATM    6  H   UNK N   1      23.558  18.840   4.362  0.00  0.00     0.163 HD
ENDBRANCH   1   2
BRANCH   1   7
HETATM    7  C   UNK N   1      21.414  17.921   3.037  0.00  0.00     0.046 C 
BRANCH   7   8
HETATM    8  C   UNK N   1      20.118  17.788   2.241  0.00  0.00     0.112 C 
BRANCH   8   9
HETATM    9  C   UNK N   1      20.293  17.717   0.757  0.00  0.00     0.139 C 
HETATM   10  O   UNK N   1      20.305  16.646   0.171  0.00  0.00    -0.650 OA
BRANCH   9  11
HETATM   11  O   UNK N   1      20.438  18.861   0.062  0.00  0.00    -0.776 OA
HETATM   12  H   UNK N   1      20.501  19.679   0.516  0.00  0.00     0.167 HD
ENDBRANCH   9  11
ENDBRANCH   8   9
ENDBRANCH   7   8
ENDBRANCH   1   7
BRANCH   1  13
HETATM   13  C   UNK N   1      20.991  20.592   3.044  0.00  0.00     0.163 C 
HETATM   14  O   UNK N   1      20.138  20.884   3.858  0.00  0.00    -0.648 OA
BRANCH  13  15
HETATM   15  O   UNK N   1      21.123  21.375   1.958  0.00  0.00    -0.775 OA
HETATM   16  H   UNK N   1      20.434  21.964   1.720  0.00  0.00     0.167 HD
ENDBRANCH  13  15
ENDBRANCH   1  13
TORSDOF 7
ENDMDL
MODEL 3
REMARK VINA RESULT:      -5.3      1.706      2.121
REMARK  7 active torsions:
REMARK  status: ('A' for Active; 'I' for Inactive)
REMARK       I    between atoms: C_2  and  N_4 
REMARK    1  A    between atoms: C_5  and  N_4 
REMARK    2  A    between atoms: C_5  and  C_6 
REMARK    3  A    between atoms: C_5  and  C_11 
REMARK    4  A    between atoms: C_6  and  C_7 
REMARK    5  A    between atoms: C_7  and  C_8 
REMARK    6  A    between atoms: C_8  and  O_9 
REMARK    7  A    between atoms: C_11  and  O_12 
ROOT
HETATM    1  C   UNK N   1      33.432  17.393   8.695  0.00  0.00     0.182 C 
ENDROOT
BRANCH   1   2
HETATM    2  N   UNK N   1      33.840  16.417   9.707  0.00  0.00    -0.347 N 
HETATM    3  C   UNK N   1      34.920  16.373  10.532  0.00  0.00     0.214 C 
HETATM    4  C   UNK N   1      35.065  15.229  11.474  0.00  0.00     0.117 C 
HETATM    5  O   UNK N   1      35.776  17.239  10.529  0.00  0.00    -0.274 OA
HETATM    6  H   UNK N   1      33.222  15.657   9.807  0.00  0.00     0.163 HD
ENDBRANCH   1   2
BRANCH   1   7
HETATM    7  C   UNK N   1      31.900  17.503   8.572  0.00  0.00     0.046 C 
BRANCH   7   8
HETATM    8  C   UNK N   1      31.273  16.545   7.562  0.00  0.00     0.112 C 
BRANCH   8   9
HETATM    9  C   UNK N   1      30.969  17.145   6.226  0.00  0.00     0.139 C 
HETATM   10  O   UNK N   1      29.838  17.501   5.933  0.00  0.00    -0.650 OA
BRANCH   9  11
HETATM   11  O   UNK N   1      31.967  17.292   5.335  0.00  0.00    -0.776 OA
HETATM   12  H   UNK N   1      32.505  16.559   5.110  0.00  0.00     0.167 HD
ENDBRANCH   9  11
ENDBRANCH   8   9
ENDBRANCH   7   8
ENDBRANCH   1   7
BRANCH   1  13
HETATM   13  C   UNK N   1      34.402  18.225   7.843  0.00  0.00     0.163 C 
HETATM   14  O   UNK N   1      34.480  18.079   6.640  0.00  0.00    -0.648 OA
BRANCH  13  15
HETATM   15  O   UNK N   1      35.195  19.147   8.420  0.00  0.00    -0.775 OA
HETATM   16  H   UNK N   1      35.041  19.408   9.306  0.00  0.00     0.167 HD
ENDBRANCH  13  15
ENDBRANCH   1  13
TORSDOF 7
ENDMDL
MODEL 4
REMARK VINA RESULT:      -5.3      1.501      4.735
REMARK  7 active torsions:
REMARK  status: ('A' for Active; 'I' for Inactive)
REMARK       I    between atoms: C_2  and  N_4 
REMARK    1  A    between atoms: C_5  and  N_4 
REMARK    2  A    between atoms: C_5  and  C_6 
REMARK    3  A    between atoms: C_5  and  C_11 
REMARK    4  A    between atoms: C_6  and  C_7 
REMARK    5  A    between atoms: C_7  and  C_8 
REMARK    6  A    between atoms: C_8  and  O_9 
REMARK    7  A    between atoms: C_11  and  O_12 
ROOT
HETATM    1  C   UNK N   1      33.459  17.109   8.543  0.00  0.00     0.182 C 
ENDROOT
BRANCH   1   2
HETATM    2  N   UNK N   1      32.120  17.370   9.075  0.00  0.00    -0.347 N 
HETATM    3  C   UNK N   1      30.915  17.497   8.457  0.00  0.00     0.214 C 
HETATM    4  C   UNK N   1      29.704  17.767   9.279  0.00  0.00     0.117 C 
HETATM    5  O   UNK N   1      30.790  17.398   7.249  0.00  0.00    -0.274 OA
HETATM    6  H   UNK N   1      32.086  17.471  10.053  0.00  0.00     0.163 HD
ENDBRANCH   1   2
BRANCH   1   7
HETATM    7  C   UNK N   1      33.970  15.702   8.912  0.00  0.00     0.046 C 
BRANCH   7   8
HETATM    8  C   UNK N   1      34.528  15.579  10.327  0.00  0.00     0.112 C 
BRANCH   8   9
HETATM    9  C   UNK N   1      35.826  16.287  10.558  0.00  0.00     0.139 C 
HETATM   10  O   UNK N   1      35.873  17.502  10.677  0.00  0.00    -0.650 OA
BRANCH   9  11
HETATM   11  O   UNK N   1      36.959  15.564  10.634  0.00  0.00    -0.776 OA
HETATM   12  H   UNK N   1      36.919  14.654  10.854  0.00  0.00     0.167 HD
ENDBRANCH   9  11
ENDBRANCH   8   9
ENDBRANCH   7   8
ENDBRANCH   1   7
BRANCH   1  13
HETATM   13  C   UNK N   1      34.280  18.105   7.712  0.00  0.00     0.163 C 
HETATM   14  O   UNK N   1      34.304  18.056   6.499  0.00  0.00    -0.648 OA
BRANCH  13  15
HETATM   15  O   UNK N   1      34.998  19.067   8.319  0.00  0.00    -0.775 OA
HETATM   16  H   UNK N   1      35.847  18.870   8.664  0.00  0.00     0.167 HD
ENDBRANCH  13  15
ENDBRANCH   1  13
TORSDOF 7
ENDMDL
MODEL 5
REMARK VINA RESULT:      -5.0      2.761      3.680
REMARK  7 active torsions:
REMARK  status: ('A' for Active; 'I' for Inactive)
REMARK       I    between atoms: C_2  and  N_4 
REMARK    1  A    between atoms: C_5  and  N_4 
REMARK    2  A    between atoms: C_5  and  C_6 
REMARK    3  A    between atoms: C_5  and  C_11 
REMARK    4  A    between atoms: C_6  and  C_7 
REMARK    5  A    between atoms: C_7  and  C_8 
REMARK    6  A    between atoms: C_8  and  O_9 
REMARK    7  A    between atoms: C_11  and  O_12 
ROOT
HETATM    1  C   UNK N   1      34.766  15.180   8.618  0.00  0.00     0.182 C 
ENDROOT
BRANCH   1   2
HETATM    2  N   UNK N   1      35.049  14.869  10.020  0.00  0.00    -0.347 N 
HETATM    3  C   UNK N   1      35.852  15.479  10.933  0.00  0.00     0.214 C 
HETATM    4  C   UNK N   1      35.937  14.921  12.310  0.00  0.00     0.117 C 
HETATM    5  O   UNK N   1      36.507  16.470  10.664  0.00  0.00    -0.274 OA
HETATM    6  H   UNK N   1      34.574  14.078  10.363  0.00  0.00     0.163 HD
ENDBRANCH   1   2
BRANCH   1   7
HETATM    7  C   UNK N   1      33.464  15.988   8.449  0.00  0.00     0.046 C 
BRANCH   7   8
HETATM    8  C   UNK N   1      33.569  17.455   8.855  0.00  0.00     0.112 C 
BRANCH   8   9
HETATM    9  C   UNK N   1      34.476  18.284   8.000  0.00  0.00     0.139 C 
HETATM   10  O   UNK N   1      35.225  19.115   8.491  0.00  0.00    -0.650 OA
BRANCH   9  11
HETATM   11  O   UNK N   1      34.459  18.104   6.667  0.00  0.00    -0.776 OA
HETATM   12  H   UNK N   1      35.230  18.274   6.162  0.00  0.00     0.167 HD
ENDBRANCH   9  11
ENDBRANCH   8   9
ENDBRANCH   7   8
ENDBRANCH   1   7
BRANCH   1  13
HETATM   13  C   UNK N   1      35.649  14.760   7.434  0.00  0.00     0.163 C 
HETATM   14  O   UNK N   1      36.402  13.810   7.505  0.00  0.00    -0.648 OA
BRANCH  13  15
HETATM   15  O   UNK N   1      35.606  15.446   6.277  0.00  0.00    -0.775 OA
HETATM   16  H   UNK N   1      35.309  15.026   5.494  0.00  0.00     0.167 HD
ENDBRANCH  13  15
ENDBRANCH   1  13
TORSDOF 7
ENDMDL
MODEL 6
REMARK VINA RESULT:      -4.9     14.090     14.900
REMARK  7 active torsions:
REMARK  status: ('A' for Active; 'I' for Inactive)
REMARK       I    between atoms: C_2  and  N_4 
REMARK    1  A    between atoms: C_5  and  N_4 
REMARK    2  A    between atoms: C_5  and  C_6 
REMARK    3  A    between atoms: C_5  and  C_11 
REMARK    4  A    between atoms: C_6  and  C_7 
REMARK    5  A    between atoms: C_7  and  C_8 
REMARK    6  A    between atoms: C_8  and  O_9 
REMARK    7  A    between atoms: C_11  and  O_12 
ROOT
HETATM    1  C   UNK N   1      20.337  17.385   2.264  0.00  0.00     0.182 C 
ENDROOT
BRANCH   1   2
HETATM    2  N   UNK N   1      20.706  16.689   3.498  0.00  0.00    -0.347 N 
HETATM    3  C   UNK N   1      19.953  16.238   4.537  0.00  0.00     0.214 C 
HETATM    4  C   UNK N   1      20.626  15.555   5.675  0.00  0.00     0.117 C 
HETATM    5  O   UNK N   1      18.743  16.372   4.570  0.00  0.00    -0.274 OA
HETATM    6  H   UNK N   1      21.671  16.519   3.593  0.00  0.00     0.163 HD
ENDBRANCH   1   2
BRANCH   1   7
HETATM    7  C   UNK N   1      19.892  18.838   2.522  0.00  0.00     0.046 C 
BRANCH   7   8
HETATM    8  C   UNK N   1      20.996  19.879   2.362  0.00  0.00     0.112 C 
BRANCH   8   9
HETATM    9  C   UNK N   1      20.868  20.755   1.156  0.00  0.00     0.139 C 
HETATM   10  O   UNK N   1      20.934  20.293   0.027  0.00  0.00    -0.650 OA
BRANCH   9  11
HETATM   11  O   UNK N   1      20.678  22.076   1.327  0.00  0.00    -0.776 OA
HETATM   12  H   UNK N   1      19.862  22.391   1.666  0.00  0.00     0.167 HD
ENDBRANCH   9  11
ENDBRANCH   8   9
ENDBRANCH   7   8
ENDBRANCH   1   7
BRANCH   1  13
HETATM   13  C   UNK N   1      20.379  16.760   0.862  0.00  0.00     0.163 C 
HETATM   14  O   UNK N   1      20.568  15.571   0.698  0.00  0.00    -0.648 OA
BRANCH  13  15
HETATM   15  O   UNK N   1      20.205  17.527  -0.230  0.00  0.00    -0.775 OA
HETATM   16  H   UNK N   1      20.210  18.461  -0.152  0.00  0.00     0.167 HD
ENDBRANCH  13  15
ENDBRANCH   1  13
TORSDOF 7
ENDMDL
MODEL 7
REMARK VINA RESULT:      -4.8      2.270      3.751
REMARK  7 active torsions:
REMARK  status: ('A' for Active; 'I' for Inactive)
REMARK       I    between atoms: C_2  and  N_4 
REMARK    1  A    between atoms: C_5  and  N_4 
REMARK    2  A    between atoms: C_5  and  C_6 
REMARK    3  A    between atoms: C_5  and  C_11 
REMARK    4  A    between atoms: C_6  and  C_7 
REMARK    5  A    between atoms: C_7  and  C_8 
REMARK    6  A    between atoms: C_8  and  O_9 
REMARK    7  A    between atoms: C_11  and  O_12 
ROOT
HETATM    1  C   UNK N   1      31.986  17.137   8.143  0.00  0.00     0.182 C 
ENDROOT
BRANCH   1   2
HETATM    2  N   UNK N   1      32.125  17.198   6.686  0.00  0.00    -0.347 N 
HETATM    3  C   UNK N   1      33.180  17.532   5.896  0.00  0.00     0.214 C 
HETATM    4  C   UNK N   1      33.016  17.500   4.417  0.00  0.00     0.117 C 
HETATM    5  O   UNK N   1      34.260  17.856   6.357  0.00  0.00    -0.274 OA
HETATM    6  H   UNK N   1      31.309  16.955   6.192  0.00  0.00     0.163 HD
ENDBRANCH   1   2
BRANCH   1   7
HETATM    7  C   UNK N   1      31.070  18.250   8.690  0.00  0.00     0.046 C 
BRANCH   7   8
HETATM    8  C   UNK N   1      29.599  18.107   8.309  0.00  0.00     0.112 C 
BRANCH   8   9
HETATM    9  C   UNK N   1      28.698  17.671   9.422  0.00  0.00     0.139 C 
HETATM   10  O   UNK N   1      29.100  16.937  10.312  0.00  0.00    -0.650 OA
BRANCH   9  11
HETATM   11  O   UNK N   1      27.422  18.099   9.434  0.00  0.00    -0.776 OA
HETATM   12  H   UNK N   1      27.098  18.623   8.728  0.00  0.00     0.167 HD
ENDBRANCH   9  11
ENDBRANCH   8   9
ENDBRANCH   7   8
ENDBRANCH   1   7
BRANCH   1  13
HETATM   13  C   UNK N   1      32.664  16.094   9.043  0.00  0.00     0.163 C 
HETATM   14  O   UNK N   1      32.227  14.967   9.154  0.00  0.00    -0.648 OA
BRANCH  13  15
HETATM   15  O   UNK N   1      33.772  16.413   9.737  0.00  0.00    -0.775 OA
HETATM   16  H   UNK N   1      33.768  16.369  10.673  0.00  0.00     0.167 HD
ENDBRANCH  13  15
ENDBRANCH   1  13
TORSDOF 7
ENDMDL
MODEL 8
REMARK VINA RESULT:      -4.8     16.732     18.222
REMARK  7 active torsions:
REMARK  status: ('A' for Active; 'I' for Inactive)
REMARK       I    between atoms: C_2  and  N_4 
REMARK    1  A    between atoms: C_5  and  N_4 
REMARK    2  A    between atoms: C_5  and  C_6 
REMARK    3  A    between atoms: C_5  and  C_11 
REMARK    4  A    between atoms: C_6  and  C_7 
REMARK    5  A    between atoms: C_7  and  C_8 
REMARK    6  A    between atoms: C_8  and  O_9 
REMARK    7  A    between atoms: C_11  and  O_12 
ROOT
HETATM    1  C   UNK N   1      25.934  24.719  -5.402  0.00  0.00     0.182 C 
ENDROOT
BRANCH   1   2
HETATM    2  N   UNK N   1      25.249  23.601  -6.054  0.00  0.00    -0.347 N 
HETATM    3  C   UNK N   1      25.724  22.556  -6.784  0.00  0.00     0.214 C 
HETATM    4  C   UNK N   1      24.764  21.557  -7.328  0.00  0.00     0.117 C 
HETATM    5  O   UNK N   1      26.911  22.408  -7.010  0.00  0.00    -0.274 OA
HETATM    6  H   UNK N   1      24.271  23.606  -5.943  0.00  0.00     0.163 HD
ENDBRANCH   1   2
BRANCH   1   7
HETATM    7  C   UNK N   1      25.741  26.046  -6.163  0.00  0.00     0.046 C 
BRANCH   7   8
HETATM    8  C   UNK N   1      24.859  27.066  -5.448  0.00  0.00     0.112 C 
BRANCH   8   9
HETATM    9  C   UNK N   1      25.591  28.024  -4.563  0.00  0.00     0.139 C 
HETATM   10  O   UNK N   1      26.425  28.794  -5.015  0.00  0.00    -0.650 OA
BRANCH   9  11
HETATM   11  O   UNK N   1      25.320  28.032  -3.245  0.00  0.00    -0.776 OA
HETATM   12  H   UNK N   1      24.686  28.630  -2.901  0.00  0.00     0.167 HD
ENDBRANCH   9  11
ENDBRANCH   8   9
ENDBRANCH   7   8
ENDBRANCH   1   7
BRANCH   1  13
HETATM   13  C   UNK N   1      26.756  24.608  -4.110  0.00  0.00     0.163 C 
HETATM   14  O   UNK N   1      26.364  25.079  -3.062  0.00  0.00    -0.648 OA
BRANCH  13  15
HETATM   15  O   UNK N   1      27.945  23.976  -4.113  0.00  0.00    -0.775 OA
HETATM   16  H   UNK N   1      28.730  24.454  -3.930  0.00  0.00     0.167 HD
ENDBRANCH  13  15
ENDBRANCH   1  13
TORSDOF 7
ENDMDL
MODEL 9
REMARK VINA RESULT:      -4.8      2.334      5.202
REMARK  7 active torsions:
REMARK  status: ('A' for Active; 'I' for Inactive)
REMARK       I    between atoms: C_2  and  N_4 
REMARK    1  A    between atoms: C_5  and  N_4 
REMARK    2  A    between atoms: C_5  and  C_6 
REMARK    3  A    between atoms: C_5  and  C_11 
REMARK    4  A    between atoms: C_6  and  C_7 
REMARK    5  A    between atoms: C_7  and  C_8 
REMARK    6  A    between atoms: C_8  and  O_9 
REMARK    7  A    between atoms: C_11  and  O_12 
ROOT
HETATM    1  C   UNK N   1      31.719  16.618   8.356  0.00  0.00     0.182 C 
ENDROOT
BRANCH   1   2
HETATM    2  N   UNK N   1      30.515  17.335   8.781  0.00  0.00    -0.347 N 
HETATM    3  C   UNK N   1      29.280  17.434   8.217  0.00  0.00     0.214 C 
HETATM    4  C   UNK N   1      28.239  18.253   8.896  0.00  0.00     0.117 C 
HETATM    5  O   UNK N   1      28.995  16.875   7.174  0.00  0.00    -0.274 OA
HETATM    6  H   UNK N   1      30.617  17.834   9.623  0.00  0.00     0.163 HD
ENDBRANCH   1   2
BRANCH   1   7
HETATM    7  C   UNK N   1      32.523  17.401   7.300  0.00  0.00     0.046 C 
BRANCH   7   8
HETATM    8  C   UNK N   1      34.038  17.277   7.434  0.00  0.00     0.112 C 
BRANCH   8   9
HETATM    9  C   UNK N   1      34.636  18.038   8.575  0.00  0.00     0.139 C 
HETATM   10  O   UNK N   1      35.108  19.153   8.415  0.00  0.00    -0.650 OA
BRANCH   9  11
HETATM   11  O   UNK N   1      34.649  17.477   9.798  0.00  0.00    -0.776 OA
HETATM   12  H   UNK N   1      33.901  17.555  10.357  0.00  0.00     0.167 HD
ENDBRANCH   9  11
ENDBRANCH   8   9
ENDBRANCH   7   8
ENDBRANCH   1   7
BRANCH   1  13
HETATM   13  C   UNK N   1      32.151  15.244   8.888  0.00  0.00     0.163 C 
HETATM   14  O   UNK N   1      32.103  14.248   8.195  0.00  0.00    -0.648 OA
BRANCH  13  15
HETATM   15  O   UNK N   1      32.598  15.114  10.150  0.00  0.00    -0.775 OA
HETATM   16  H   UNK N   1      33.230  14.454  10.358  0.00  0.00     0.167 HD
ENDBRANCH  13  15
ENDBRANCH   1  13
TORSDOF 7
ENDMDL
