MODEL 1
REMARK VINA RESULT:      -6.1      0.000      0.000
REMARK  31 active torsions:
REMARK  status: ('A' for Active; 'I' for Inactive)
REMARK    1  A    between atoms: C_5  and  C_3 
REMARK    2  A    between atoms: C_7  and  C_3 
REMARK    3  A    between atoms: C_6  and  C_4 
REMARK    4  A    between atoms: C_13  and  C_4 
REMARK    5  A    between atoms: N_24  and  C_5 
REMARK    6  A    between atoms: N_26  and  C_6 
REMARK    7  A    between atoms: N_35  and  C_7 
REMARK    8  A    between atoms: C_12  and  C_8 
REMARK    9  A    between atoms: O_49  and  C_8 
REMARK   10  A    between atoms: C_22  and  C_9 
REMARK   11  A    between atoms: O_50  and  C_9 
REMARK   12  A    between atoms: N_24  and  C_13 
REMARK   13  A    between atoms: O_36  and  C_13 
REMARK   14  A    between atoms: C_15  and  O_37 
REMARK   15  A    between atoms: C_16  and  O_52 
REMARK   16  A    between atoms: C_20  and  C_17 
REMARK   17  A    between atoms: C_22  and  C_17 
REMARK   18  A    between atoms: C_17  and  O_38 
REMARK   19  A    between atoms: N_23  and  C_18 
REMARK   20  A    between atoms: N_26  and  C_20 
REMARK   21  A    between atoms: O_39  and  C_20 
REMARK   22  A    between atoms: C_21  and  N_34 
REMARK   23  A    between atoms: P_54  and  O_42 
REMARK   24  A    between atoms: P_54  and  O_43 
REMARK   25  A    between atoms: P_55  and  O_45 
REMARK   26  A    between atoms: P_56  and  O_47 
REMARK   27  A    between atoms: P_55  and  O_49 
REMARK   28  A    between atoms: P_56  and  O_50 
REMARK   29  A    between atoms: P_54  and  O_52 
REMARK   30  A    between atoms: P_55  and  O_53 
REMARK   31  A    between atoms: P_56  and  O_53 
ROOT
HETATM    1  O   UNK N   1      20.834  18.704   7.517  0.00  0.00    -0.631 OA
HETATM    2  P   UNK N   1      20.652  17.309   6.877  0.00  0.00     0.401 P 
ENDROOT
BRANCH   2   3
HETATM    3  O   UNK N   1      22.117  16.403   6.642  0.00  0.00    -0.307 OA
HETATM    4  H   UNK N   1      22.935  16.826   6.336  0.00  0.00     0.222 HD
ENDBRANCH   2   3
BRANCH   2   5
HETATM    5  O   UNK N   1      21.934  18.045   5.948  0.00  0.00    -0.294 OA
BRANCH   5   6
HETATM    6  C   UNK N   1      21.355  18.718   4.860  0.00  0.00     0.215 C 
BRANCH   6   7
HETATM    7  C   UNK N   1      21.573  17.942   3.569  0.00  0.00     0.180 C 
HETATM    8  C   UNK N   1      20.790  18.534   2.390  0.00  0.00     0.197 C 
HETATM    9  C   UNK N   1      20.787  17.316   1.514  0.00  0.00     0.199 C 
HETATM   10  C   UNK N   1      20.356  16.311   2.584  0.00  0.00     0.262 C 
HETATM   11  O   UNK N   1      21.161  16.588   3.716  0.00  0.00    -0.353 OA
BRANCH   8  12
HETATM   12  O   UNK N   1      21.389  19.662   1.777  0.00  0.00    -0.286 OA
BRANCH  12  13
HETATM   13  P   UNK N   1      20.185  20.937   1.647  0.00  0.00     0.391 P 
HETATM   14  O   UNK N   1      20.708  22.162   0.854  0.00  0.00    -0.632 OA
BRANCH  13  15
HETATM   15  O   UNK N   1      20.477  20.340   0.041  0.00  0.00    -0.307 OA
HETATM   16  H   UNK N   1      21.008  20.385  -0.769  0.00  0.00     0.222 HD
ENDBRANCH  13  15
BRANCH  13  17
HETATM   17  O   UNK N   1      21.517  21.522   2.590  0.00  0.00    -0.307 OA
HETATM   18  H   UNK N   1      21.964  21.631   3.444  0.00  0.00     0.222 HD
ENDBRANCH  13  17
ENDBRANCH  12  13
ENDBRANCH   8  12
BRANCH   9  19
HETATM   19  O   UNK N   1      19.875  17.417   0.462  0.00  0.00    -0.388 OA
HETATM   20  H   UNK N   1      19.305  17.042  -0.228  0.00  0.00     0.210 HD
ENDBRANCH   9  19
BRANCH  10  21
HETATM   21  N   UNK N   1      20.426  14.895   2.214  0.00  0.00    -0.297 N 
HETATM   22  C   UNK N   1      19.333  14.111   2.019  0.00  0.00     0.188 A 
HETATM   23  N   UNK N   1      19.678  12.853   1.632  0.00  0.00    -0.346 N 
HETATM   24  C   UNK N   1      21.021  12.876   1.595  0.00  0.00     0.122 A 
ATOM     25  HN  UNK N   1      19.059  12.071   1.420  1.00  0.00     0.167 HD
HETATM   26  C   UNK N   1      21.912  11.874   1.252  0.00  0.00     0.131 A 
HETATM   27  C   UNK N   1      21.472  14.096   1.948  0.00  0.00     0.142 A 
HETATM   28  N   UNK N   1      23.246  12.163   1.292  0.00  0.00    -0.337 N 
HETATM   29  C   UNK N   1      23.687  13.412   1.659  0.00  0.00     0.183 A 
ATOM     30  HN  UNK N   1      23.926  11.442   1.047  1.00  0.00     0.168 HD
HETATM   31  N   UNK N   1      22.794  14.396   1.987  0.00  0.00    -0.336 N 
ATOM     32  HN  UNK N   1      23.112  15.327   2.253  1.00  0.00     0.168 HD
BRANCH  26  33
HETATM   33  N   UNK N   1      21.464  10.595   0.865  0.00  0.00    -0.383 N 
HETATM   34  H   UNK N   1      21.743  10.216   0.000  0.00  0.00     0.157 HD
HETATM   35  H   UNK N   1      20.871  10.080   1.459  0.00  0.00     0.157 HD
ENDBRANCH  26  33
ENDBRANCH  10  21
ENDBRANCH   6   7
ENDBRANCH   5   6
ENDBRANCH   2   5
BRANCH   2  36
HETATM   36  O   UNK N   1      21.113  16.511   8.435  0.00  0.00    -0.195 OA
BRANCH  36  37
HETATM   37  P   UNK N   1      20.350  15.007   9.058  0.00  0.00     0.401 P 
HETATM   38  O   UNK N   1      21.793  14.494   8.795  0.00  0.00    -0.631 OA
BRANCH  37  39
HETATM   39  O   UNK N   1      19.288  15.468   7.763  0.00  0.00    -0.307 OA
HETATM   40  H   UNK N   1      18.516  15.046   7.357  0.00  0.00     0.222 HD
ENDBRANCH  37  39
BRANCH  37  41
HETATM   41  O   UNK N   1      20.161  13.736   7.882  0.00  0.00    -0.296 OA
BRANCH  41  42
HETATM   42  C   UNK N   1      21.415  13.164   7.678  0.00  0.00     0.192 C 
BRANCH  42  43
HETATM   43  C   UNK N   1      21.573  12.569   6.268  0.00  0.00     0.008 C 
HETATM   44  C   UNK N   1      21.606  11.042   6.270  0.00  0.00     0.020 C 
HETATM   45  C   UNK N   1      20.320  12.933   5.512  0.00  0.00     0.020 C 
BRANCH  43  46
HETATM   46  C   UNK N   1      22.811  13.138   5.528  0.00  0.00     0.202 C 
BRANCH  46  47
HETATM   47  C   UNK N   1      23.997  13.365   6.459  0.00  0.00     0.141 C 
BRANCH  47  48
HETATM   48  N   UNK N   1      24.320  14.530   6.908  0.00  0.00    -0.372 N 
ATOM     49  HN  UNK N   1      23.577  15.148   7.236  1.00  0.00     0.161 HD
BRANCH  48  50
HETATM   50  C   UNK N   1      25.682  15.006   6.971  0.00  0.00     0.129 C 
BRANCH  50  51
HETATM   51  C   UNK N   1      26.099  15.739   5.684  0.00  0.00     0.103 C 
BRANCH  51  52
HETATM   52  C   UNK N   1      25.077  16.709   5.128  0.00  0.00     0.112 C 
BRANCH  52  53
HETATM   53  N   UNK N   1      25.198  17.982   5.288  0.00  0.00    -0.374 N 
ATOM     54  HN  UNK N   1      24.355  18.549   5.386  1.00  0.00     0.161 HD
BRANCH  53  55
HETATM   55  C   UNK N   1      26.484  18.634   5.335  0.00  0.00     0.123 C 
BRANCH  55  56
HETATM   56  C   UNK N   1      26.352  20.050   4.798  0.00  0.00     0.046 C 
BRANCH  56  57
HETATM   57  C   UNK N   1      26.152  20.073   3.283  0.00  0.00     0.203 C 
BRANCH  57  58
HETATM   58  N   UNK N   1      24.832  20.533   2.937  0.00  0.00    -0.156 N 
HETATM   59  O   UNK N   1      23.961  20.476   3.751  0.00  0.00    -0.537 OA
HETATM   60  O   UNK N   1      24.572  20.821   1.810  0.00  0.00    -0.537 OA
ENDBRANCH  57  58
ENDBRANCH  56  57
ENDBRANCH  55  56
ENDBRANCH  53  55
ENDBRANCH  52  53
BRANCH  52  61
HETATM   61  O   UNK N   1      24.060  16.242   4.382  0.00  0.00    -0.350 OA
HETATM   62  H   UNK N   1      23.802  15.474   3.913  0.00  0.00     0.219 HD
ENDBRANCH  52  61
ENDBRANCH  51  52
ENDBRANCH  50  51
ENDBRANCH  48  50
ENDBRANCH  47  48
BRANCH  47  63
HETATM   63  O   UNK N   1      24.730  12.300   6.842  0.00  0.00    -0.348 OA
HETATM   64  H   UNK N   1      25.160  11.503   6.603  0.00  0.00     0.219 HD
ENDBRANCH  47  63
ENDBRANCH  46  47
BRANCH  46  65
HETATM   65  O   UNK N   1      23.219  12.279   4.504  0.00  0.00    -0.387 OA
HETATM   66  H   UNK N   1      23.718  11.451   4.582  0.00  0.00     0.210 HD
ENDBRANCH  46  65
ENDBRANCH  43  46
ENDBRANCH  42  43
ENDBRANCH  41  42
ENDBRANCH  37  41
ENDBRANCH  36  37
ENDBRANCH   2  36
TORSDOF 31
ENDMDL
MODEL 2
REMARK VINA RESULT:      -5.8      4.489      7.263
REMARK  31 active torsions:
REMARK  status: ('A' for Active; 'I' for Inactive)
REMARK    1  A    between atoms: C_5  and  C_3 
REMARK    2  A    between atoms: C_7  and  C_3 
REMARK    3  A    between atoms: C_6  and  C_4 
REMARK    4  A    between atoms: C_13  and  C_4 
REMARK    5  A    between atoms: N_24  and  C_5 
REMARK    6  A    between atoms: N_26  and  C_6 
REMARK    7  A    between atoms: N_35  and  C_7 
REMARK    8  A    between atoms: C_12  and  C_8 
REMARK    9  A    between atoms: O_49  and  C_8 
REMARK   10  A    between atoms: C_22  and  C_9 
REMARK   11  A    between atoms: O_50  and  C_9 
REMARK   12  A    between atoms: N_24  and  C_13 
REMARK   13  A    between atoms: O_36  and  C_13 
REMARK   14  A    between atoms: C_15  and  O_37 
REMARK   15  A    between atoms: C_16  and  O_52 
REMARK   16  A    between atoms: C_20  and  C_17 
REMARK   17  A    between atoms: C_22  and  C_17 
REMARK   18  A    between atoms: C_17  and  O_38 
REMARK   19  A    between atoms: N_23  and  C_18 
REMARK   20  A    between atoms: N_26  and  C_20 
REMARK   21  A    between atoms: O_39  and  C_20 
REMARK   22  A    between atoms: C_21  and  N_34 
REMARK   23  A    between atoms: P_54  and  O_42 
REMARK   24  A    between atoms: P_54  and  O_43 
REMARK   25  A    between atoms: P_55  and  O_45 
REMARK   26  A    between atoms: P_56  and  O_47 
REMARK   27  A    between atoms: P_55  and  O_49 
REMARK   28  A    between atoms: P_56  and  O_50 
REMARK   29  A    between atoms: P_54  and  O_52 
REMARK   30  A    between atoms: P_55  and  O_53 
REMARK   31  A    between atoms: P_56  and  O_53 
ROOT
HETATM    1  O   UNK N   1      25.214  16.785   5.969  0.00  0.00    -0.631 OA
HETATM    2  P   UNK N   1      25.640  15.717   4.938  0.00  0.00     0.401 P 
ENDROOT
BRANCH   2   3
HETATM    3  O   UNK N   1      25.712  16.263   3.288  0.00  0.00    -0.307 OA
HETATM    4  H   UNK N   1      26.420  15.980   2.689  0.00  0.00     0.222 HD
ENDBRANCH   2   3
BRANCH   2   5
HETATM    5  O   UNK N   1      24.207  16.435   4.246  0.00  0.00    -0.294 OA
BRANCH   5   6
HETATM    6  C   UNK N   1      23.298  15.404   3.956  0.00  0.00     0.215 C 
BRANCH   6   7
HETATM    7  C   UNK N   1      22.120  15.439   4.918  0.00  0.00     0.180 C 
HETATM    8  C   UNK N   1      21.757  16.866   5.350  0.00  0.00     0.197 C 
HETATM    9  C   UNK N   1      21.010  16.517   6.604  0.00  0.00     0.199 C 
HETATM   10  C   UNK N   1      22.040  15.542   7.176  0.00  0.00     0.262 C 
HETATM   11  O   UNK N   1      22.409  14.699   6.099  0.00  0.00    -0.353 OA
BRANCH   8  12
HETATM   12  O   UNK N   1      20.977  17.594   4.419  0.00  0.00    -0.286 OA
BRANCH  12  13
HETATM   13  P   UNK N   1      21.881  19.017   3.918  0.00  0.00     0.391 P 
HETATM   14  O   UNK N   1      20.955  20.200   3.540  0.00  0.00    -0.632 OA
BRANCH  13  15
HETATM   15  O   UNK N   1      21.053  19.426   5.390  0.00  0.00    -0.307 OA
HETATM   16  H   UNK N   1      21.005  19.347   6.356  0.00  0.00     0.222 HD
ENDBRANCH  13  15
BRANCH  13  17
HETATM   17  O   UNK N   1      20.969  18.432   2.564  0.00  0.00    -0.307 OA
HETATM   18  H   UNK N   1      20.119  18.275   2.123  0.00  0.00     0.222 HD
ENDBRANCH  13  17
ENDBRANCH  12  13
ENDBRANCH   8  12
BRANCH   9  19
HETATM   19  O   UNK N   1      20.795  17.627   7.423  0.00  0.00    -0.388 OA
HETATM   20  H   UNK N   1      20.285  18.137   8.071  0.00  0.00     0.210 HD
ENDBRANCH   9  19
BRANCH  10  21
HETATM   21  N   UNK N   1      21.621  14.762   8.344  0.00  0.00    -0.297 N 
HETATM   22  C   UNK N   1      20.430  14.933   8.977  0.00  0.00     0.188 A 
HETATM   23  N   UNK N   1      20.270  14.046   9.997  0.00  0.00    -0.346 N 
HETATM   24  C   UNK N   1      21.400  13.318   9.980  0.00  0.00     0.122 A 
ATOM     25  HN  UNK N   1      19.476  13.955  10.629  1.00  0.00     0.167 HD
HETATM   26  C   UNK N   1      21.780  12.259  10.787  0.00  0.00     0.131 A 
HETATM   27  C   UNK N   1      22.212  13.748   8.994  0.00  0.00     0.142 A 
HETATM   28  N   UNK N   1      22.996  11.682  10.554  0.00  0.00    -0.337 N 
HETATM   29  C   UNK N   1      23.812  12.137   9.547  0.00  0.00     0.183 A 
ATOM     30  HN  UNK N   1      23.302  10.901  11.136  1.00  0.00     0.168 HD
HETATM   31  N   UNK N   1      23.419  13.179   8.751  0.00  0.00    -0.336 N 
ATOM     32  HN  UNK N   1      24.016  13.519   7.997  1.00  0.00     0.168 HD
BRANCH  26  33
HETATM   33  N   UNK N   1      20.941  11.782  11.813  0.00  0.00    -0.383 N 
HETATM   34  H   UNK N   1      21.285  11.135  12.470  0.00  0.00     0.157 HD
HETATM   35  H   UNK N   1      20.009  12.096  11.874  0.00  0.00     0.157 HD
ENDBRANCH  26  33
ENDBRANCH  10  21
ENDBRANCH   6   7
ENDBRANCH   5   6
ENDBRANCH   2   5
BRANCH   2  36
HETATM   36  O   UNK N   1      27.210  16.576   4.665  0.00  0.00    -0.195 OA
BRANCH  36  37
HETATM   37  P   UNK N   1      28.754  15.746   4.265  0.00  0.00     0.401 P 
HETATM   38  O   UNK N   1      28.880  15.830   5.812  0.00  0.00    -0.631 OA
BRANCH  37  39
HETATM   39  O   UNK N   1      28.807  17.162   3.261  0.00  0.00    -0.307 OA
HETATM   40  H   UNK N   1      29.380  17.433   2.527  0.00  0.00     0.222 HD
ENDBRANCH  37  39
BRANCH  37  41
HETATM   41  O   UNK N   1      30.190  16.691   4.542  0.00  0.00    -0.296 OA
BRANCH  41  42
HETATM   42  C   UNK N   1      31.241  15.803   4.765  0.00  0.00     0.192 C 
BRANCH  42  43
HETATM   43  C   UNK N   1      32.616  16.490   4.734  0.00  0.00     0.008 C 
HETATM   44  C   UNK N   1      33.774  15.496   4.683  0.00  0.00     0.020 C 
HETATM   45  C   UNK N   1      32.686  17.241   3.428  0.00  0.00     0.020 C 
BRANCH  43  46
HETATM   46  C   UNK N   1      32.802  17.480   5.913  0.00  0.00     0.202 C 
BRANCH  46  47
HETATM   47  C   UNK N   1      32.273  16.926   7.231  0.00  0.00     0.141 C 
BRANCH  47  48
HETATM   48  N   UNK N   1      31.020  16.929   7.539  0.00  0.00    -0.372 N 
ATOM     49  HN  UNK N   1      30.351  16.588   6.849  1.00  0.00     0.161 HD
BRANCH  48  50
HETATM   50  C   UNK N   1      30.517  17.390   8.811  0.00  0.00     0.129 C 
BRANCH  50  51
HETATM   51  C   UNK N   1      29.607  18.621   8.661  0.00  0.00     0.103 C 
BRANCH  51  52
HETATM   52  C   UNK N   1      28.143  18.321   8.411  0.00  0.00     0.112 C 
BRANCH  52  53
HETATM   53  N   UNK N   1      27.622  18.428   7.237  0.00  0.00    -0.374 N 
ATOM     54  HN  UNK N   1      26.989  17.698   6.910  1.00  0.00     0.161 HD
BRANCH  53  55
HETATM   55  C   UNK N   1      27.904  19.546   6.369  0.00  0.00     0.123 C 
BRANCH  55  56
HETATM   56  C   UNK N   1      26.670  19.865   5.541  0.00  0.00     0.046 C 
BRANCH  56  57
HETATM   57  C   UNK N   1      27.025  20.552   4.223  0.00  0.00     0.203 C 
BRANCH  57  58
HETATM   58  N   UNK N   1      26.117  20.170   3.172  0.00  0.00    -0.156 N 
HETATM   59  O   UNK N   1      25.818  20.970   2.338  0.00  0.00    -0.537 OA
HETATM   60  O   UNK N   1      25.549  19.123   3.219  0.00  0.00    -0.537 OA
ENDBRANCH  57  58
ENDBRANCH  56  57
ENDBRANCH  55  56
ENDBRANCH  53  55
ENDBRANCH  52  53
BRANCH  52  61
HETATM   61  O   UNK N   1      27.383  17.857   9.418  0.00  0.00    -0.350 OA
HETATM   62  H   UNK N   1      27.446  17.627  10.324  0.00  0.00     0.219 HD
ENDBRANCH  52  61
ENDBRANCH  51  52
ENDBRANCH  50  51
ENDBRANCH  48  50
ENDBRANCH  47  48
BRANCH  47  63
HETATM   63  O   UNK N   1      33.151  16.397   8.108  0.00  0.00    -0.348 OA
HETATM   64  H   UNK N   1      33.391  15.677   8.657  0.00  0.00     0.219 HD
ENDBRANCH  47  63
ENDBRANCH  46  47
BRANCH  46  65
HETATM   65  O   UNK N   1      34.151  17.802   6.086  0.00  0.00    -0.387 OA
HETATM   66  H   UNK N   1      34.612  18.613   5.817  0.00  0.00     0.210 HD
ENDBRANCH  46  65
ENDBRANCH  43  46
ENDBRANCH  42  43
ENDBRANCH  41  42
ENDBRANCH  37  41
ENDBRANCH  36  37
ENDBRANCH   2  36
TORSDOF 31
ENDMDL
MODEL 3
REMARK VINA RESULT:      -5.6      4.361      7.306
REMARK  31 active torsions:
REMARK  status: ('A' for Active; 'I' for Inactive)
REMARK    1  A    between atoms: C_5  and  C_3 
REMARK    2  A    between atoms: C_7  and  C_3 
REMARK    3  A    between atoms: C_6  and  C_4 
REMARK    4  A    between atoms: C_13  and  C_4 
REMARK    5  A    between atoms: N_24  and  C_5 
REMARK    6  A    between atoms: N_26  and  C_6 
REMARK    7  A    between atoms: N_35  and  C_7 
REMARK    8  A    between atoms: C_12  and  C_8 
REMARK    9  A    between atoms: O_49  and  C_8 
REMARK   10  A    between atoms: C_22  and  C_9 
REMARK   11  A    between atoms: O_50  and  C_9 
REMARK   12  A    between atoms: N_24  and  C_13 
REMARK   13  A    between atoms: O_36  and  C_13 
REMARK   14  A    between atoms: C_15  and  O_37 
REMARK   15  A    between atoms: C_16  and  O_52 
REMARK   16  A    between atoms: C_20  and  C_17 
REMARK   17  A    between atoms: C_22  and  C_17 
REMARK   18  A    between atoms: C_17  and  O_38 
REMARK   19  A    between atoms: N_23  and  C_18 
REMARK   20  A    between atoms: N_26  and  C_20 
REMARK   21  A    between atoms: O_39  and  C_20 
REMARK   22  A    between atoms: C_21  and  N_34 
REMARK   23  A    between atoms: P_54  and  O_42 
REMARK   24  A    between atoms: P_54  and  O_43 
REMARK   25  A    between atoms: P_55  and  O_45 
REMARK   26  A    between atoms: P_56  and  O_47 
REMARK   27  A    between atoms: P_55  and  O_49 
REMARK   28  A    between atoms: P_56  and  O_50 
REMARK   29  A    between atoms: P_54  and  O_52 
REMARK   30  A    between atoms: P_55  and  O_53 
REMARK   31  A    between atoms: P_56  and  O_53 
ROOT
HETATM    1  O   UNK N   1      23.010  14.144   7.189  0.00  0.00    -0.631 OA
HETATM    2  P   UNK N   1      24.040  13.528   6.216  0.00  0.00     0.401 P 
ENDROOT
BRANCH   2   3
HETATM    3  O   UNK N   1      23.941  14.092   4.574  0.00  0.00    -0.307 OA
HETATM    4  H   UNK N   1      24.707  14.063   3.978  0.00  0.00     0.222 HD
ENDBRANCH   2   3
BRANCH   2   5
HETATM    5  O   UNK N   1      22.514  13.371   5.383  0.00  0.00    -0.294 OA
BRANCH   5   6
HETATM    6  C   UNK N   1      21.535  14.041   6.134  0.00  0.00     0.215 C 
BRANCH   6   7
HETATM    7  C   UNK N   1      20.493  14.670   5.221  0.00  0.00     0.180 C 
HETATM    8  C   UNK N   1      19.837  13.646   4.285  0.00  0.00     0.197 C 
HETATM    9  C   UNK N   1      19.336  14.607   3.249  0.00  0.00     0.199 C 
HETATM   10  C   UNK N   1      20.628  15.408   3.089  0.00  0.00     0.262 C 
HETATM   11  O   UNK N   1      21.078  15.678   4.404  0.00  0.00    -0.353 OA
BRANCH   8  12
HETATM   12  O   UNK N   1      18.808  12.870   4.872  0.00  0.00    -0.286 OA
BRANCH  12  13
HETATM   13  P   UNK N   1      18.799  11.282   4.115  0.00  0.00     0.391 P 
HETATM   14  O   UNK N   1      17.882  10.279   4.862  0.00  0.00    -0.632 OA
BRANCH  13  15
HETATM   15  O   UNK N   1      17.197  11.936   3.957  0.00  0.00    -0.307 OA
HETATM   16  H   UNK N   1      16.608  12.574   3.524  0.00  0.00     0.222 HD
ENDBRANCH  13  15
BRANCH  13  17
HETATM   17  O   UNK N   1      19.508  11.144   5.692  0.00  0.00    -0.307 OA
HETATM   18  H   UNK N   1      20.182  11.400   6.340  0.00  0.00     0.222 HD
ENDBRANCH  13  17
ENDBRANCH  12  13
ENDBRANCH   8  12
BRANCH   9  19
HETATM   19  O   UNK N   1      18.941  13.966   2.073  0.00  0.00    -0.388 OA
HETATM   20  H   UNK N   1      18.535  13.235   1.581  0.00  0.00     0.210 HD
ENDBRANCH   9  19
BRANCH  10  21
HETATM   21  N   UNK N   1      20.540  16.637   2.294  0.00  0.00    -0.297 N 
HETATM   22  C   UNK N   1      19.929  16.709   1.082  0.00  0.00     0.188 A 
HETATM   23  N   UNK N   1      19.943  17.976   0.585  0.00  0.00    -0.346 N 
HETATM   24  C   UNK N   1      20.584  18.691   1.525  0.00  0.00     0.122 A 
ATOM     25  HN  UNK N   1      19.556  18.307  -0.298  1.00  0.00     0.167 HD
HETATM   26  C   UNK N   1      20.875  20.044   1.560  0.00  0.00     0.131 A 
HETATM   27  C   UNK N   1      20.946  17.891   2.548  0.00  0.00     0.142 A 
HETATM   28  N   UNK N   1      21.541  20.527   2.650  0.00  0.00    -0.337 N 
HETATM   29  C   UNK N   1      21.906  19.695   3.680  0.00  0.00     0.183 A 
ATOM     30  HN  UNK N   1      21.770  21.520   2.700  1.00  0.00     0.168 HD
HETATM   31  N   UNK N   1      21.604  18.360   3.636  0.00  0.00    -0.336 N 
ATOM     32  HN  UNK N   1      21.865  17.737   4.400  1.00  0.00     0.168 HD
BRANCH  26  33
HETATM   33  N   UNK N   1      20.491  20.903   0.511  0.00  0.00    -0.383 N 
HETATM   34  H   UNK N   1      20.619  20.625  -0.425  0.00  0.00     0.157 HD
HETATM   35  H   UNK N   1      20.096  21.783   0.713  0.00  0.00     0.157 HD
ENDBRANCH  26  33
ENDBRANCH  10  21
ENDBRANCH   6   7
ENDBRANCH   5   6
ENDBRANCH   2   5
BRANCH   2  36
HETATM   36  O   UNK N   1      24.895  15.118   6.081  0.00  0.00    -0.195 OA
BRANCH  36  37
HETATM   37  P   UNK N   1      24.806  16.189   4.640  0.00  0.00     0.401 P 
HETATM   38  O   UNK N   1      26.318  16.312   4.980  0.00  0.00    -0.631 OA
BRANCH  37  39
HETATM   39  O   UNK N   1      23.574  16.839   5.678  0.00  0.00    -0.307 OA
HETATM   40  H   UNK N   1      22.669  16.562   5.886  0.00  0.00     0.222 HD
ENDBRANCH  37  39
BRANCH  37  41
HETATM   41  O   UNK N   1      25.051  17.883   4.965  0.00  0.00    -0.296 OA
BRANCH  41  42
HETATM   42  C   UNK N   1      25.528  18.470   3.795  0.00  0.00     0.192 C 
BRANCH  42  43
HETATM   43  C   UNK N   1      26.253  19.801   4.052  0.00  0.00     0.008 C 
HETATM   44  C   UNK N   1      26.314  20.692   2.813  0.00  0.00     0.020 C 
HETATM   45  C   UNK N   1      25.404  20.562   5.040  0.00  0.00     0.020 C 
BRANCH  43  46
HETATM   46  C   UNK N   1      27.672  19.592   4.640  0.00  0.00     0.202 C 
BRANCH  46  47
HETATM   47  C   UNK N   1      27.671  19.519   6.163  0.00  0.00     0.141 C 
BRANCH  47  48
HETATM   48  N   UNK N   1      27.493  18.418   6.811  0.00  0.00    -0.372 N 
ATOM     49  HN  UNK N   1      26.799  17.757   6.462  1.00  0.00     0.161 HD
BRANCH  48  50
HETATM   50  C   UNK N   1      28.225  18.075   8.007  0.00  0.00     0.129 C 
BRANCH  50  51
HETATM   51  C   UNK N   1      29.743  18.036   7.764  0.00  0.00     0.103 C 
BRANCH  51  52
HETATM   52  C   UNK N   1      30.224  16.952   6.821  0.00  0.00     0.112 C 
BRANCH  52  53
HETATM   53  N   UNK N   1      31.465  16.606   6.766  0.00  0.00    -0.374 N 
ATOM     54  HN  UNK N   1      31.819  15.933   7.446  1.00  0.00     0.161 HD
BRANCH  53  55
HETATM   55  C   UNK N   1      32.369  17.136   5.775  0.00  0.00     0.123 C 
BRANCH  55  56
HETATM   56  C   UNK N   1      33.744  17.322   6.396  0.00  0.00     0.046 C 
BRANCH  56  57
HETATM   57  C   UNK N   1      33.684  18.122   7.696  0.00  0.00     0.203 C 
BRANCH  57  58
HETATM   58  N   UNK N   1      34.210  17.364   8.801  0.00  0.00    -0.156 N 
HETATM   59  O   UNK N   1      33.645  16.373   9.152  0.00  0.00    -0.537 OA
HETATM   60  O   UNK N   1      35.104  17.800   9.458  0.00  0.00    -0.537 OA
ENDBRANCH  57  58
ENDBRANCH  56  57
ENDBRANCH  55  56
ENDBRANCH  53  55
ENDBRANCH  52  53
BRANCH  52  61
HETATM   61  O   UNK N   1      29.328  16.280   6.077  0.00  0.00    -0.350 OA
HETATM   62  H   UNK N   1      28.687  16.426   5.410  0.00  0.00     0.219 HD
ENDBRANCH  52  61
ENDBRANCH  51  52
ENDBRANCH  50  51
ENDBRANCH  48  50
ENDBRANCH  47  48
BRANCH  47  63
HETATM   63  O   UNK N   1      27.881  20.653   6.863  0.00  0.00    -0.348 OA
HETATM   64  H   UNK N   1      27.630  21.539   7.037  0.00  0.00     0.219 HD
ENDBRANCH  47  63
ENDBRANCH  46  47
BRANCH  46  65
HETATM   65  O   UNK N   1      28.248  18.417   4.149  0.00  0.00    -0.387 OA
HETATM   66  H   UNK N   1      28.704  18.282   3.303  0.00  0.00     0.210 HD
ENDBRANCH  46  65
ENDBRANCH  43  46
ENDBRANCH  42  43
ENDBRANCH  41  42
ENDBRANCH  37  41
ENDBRANCH  36  37
ENDBRANCH   2  36
TORSDOF 31
ENDMDL
MODEL 4
REMARK VINA RESULT:      -5.6      4.044      7.749
REMARK  31 active torsions:
REMARK  status: ('A' for Active; 'I' for Inactive)
REMARK    1  A    between atoms: C_5  and  C_3 
REMARK    2  A    between atoms: C_7  and  C_3 
REMARK    3  A    between atoms: C_6  and  C_4 
REMARK    4  A    between atoms: C_13  and  C_4 
REMARK    5  A    between atoms: N_24  and  C_5 
REMARK    6  A    between atoms: N_26  and  C_6 
REMARK    7  A    between atoms: N_35  and  C_7 
REMARK    8  A    between atoms: C_12  and  C_8 
REMARK    9  A    between atoms: O_49  and  C_8 
REMARK   10  A    between atoms: C_22  and  C_9 
REMARK   11  A    between atoms: O_50  and  C_9 
REMARK   12  A    between atoms: N_24  and  C_13 
REMARK   13  A    between atoms: O_36  and  C_13 
REMARK   14  A    between atoms: C_15  and  O_37 
REMARK   15  A    between atoms: C_16  and  O_52 
REMARK   16  A    between atoms: C_20  and  C_17 
REMARK   17  A    between atoms: C_22  and  C_17 
REMARK   18  A    between atoms: C_17  and  O_38 
REMARK   19  A    between atoms: N_23  and  C_18 
REMARK   20  A    between atoms: N_26  and  C_20 
REMARK   21  A    between atoms: O_39  and  C_20 
REMARK   22  A    between atoms: C_21  and  N_34 
REMARK   23  A    between atoms: P_54  and  O_42 
REMARK   24  A    between atoms: P_54  and  O_43 
REMARK   25  A    between atoms: P_55  and  O_45 
REMARK   26  A    between atoms: P_56  and  O_47 
REMARK   27  A    between atoms: P_55  and  O_49 
REMARK   28  A    between atoms: P_56  and  O_50 
REMARK   29  A    between atoms: P_54  and  O_52 
REMARK   30  A    between atoms: P_55  and  O_53 
REMARK   31  A    between atoms: P_56  and  O_53 
ROOT
HETATM    1  O   UNK N   1      26.404  14.110   6.507  0.00  0.00    -0.631 OA
HETATM    2  P   UNK N   1      26.474  13.355   5.160  0.00  0.00     0.401 P 
ENDROOT
BRANCH   2   3
HETATM    3  O   UNK N   1      25.143  13.641   4.078  0.00  0.00    -0.307 OA
HETATM    4  H   UNK N   1      25.025  13.119   3.268  0.00  0.00     0.222 HD
ENDBRANCH   2   3
BRANCH   2   5
HETATM    5  O   UNK N   1      24.858  13.045   5.744  0.00  0.00    -0.294 OA
BRANCH   5   6
HETATM    6  C   UNK N   1      24.758  13.558   7.047  0.00  0.00     0.215 C 
BRANCH   6   7
HETATM    7  C   UNK N   1      23.518  14.428   7.189  0.00  0.00     0.180 C 
HETATM    8  C   UNK N   1      22.422  13.756   8.027  0.00  0.00     0.197 C 
HETATM    9  C   UNK N   1      21.260  14.565   7.531  0.00  0.00     0.199 C 
HETATM   10  C   UNK N   1      21.573  14.453   6.038  0.00  0.00     0.262 C 
HETATM   11  O   UNK N   1      22.957  14.723   5.915  0.00  0.00    -0.353 OA
BRANCH   8  12
HETATM   12  O   UNK N   1      22.603  13.840   9.430  0.00  0.00    -0.286 OA
BRANCH  12  13
HETATM   13  P   UNK N   1      22.637  12.211  10.091  0.00  0.00     0.391 P 
HETATM   14  O   UNK N   1      22.624  12.205  11.641  0.00  0.00    -0.632 OA
BRANCH  13  15
HETATM   15  O   UNK N   1      21.109  12.913  10.530  0.00  0.00    -0.307 OA
HETATM   16  H   UNK N   1      20.619  13.526  11.101  0.00  0.00     0.222 HD
ENDBRANCH  13  15
BRANCH  13  17
HETATM   17  O   UNK N   1      24.103  13.023  10.535  0.00  0.00    -0.307 OA
HETATM   18  H   UNK N   1      24.601  13.840  10.694  0.00  0.00     0.222 HD
ENDBRANCH  13  17
ENDBRANCH  12  13
ENDBRANCH   8  12
BRANCH   9  19
HETATM   19  O   UNK N   1      20.031  13.999   7.875  0.00  0.00    -0.388 OA
HETATM   20  H   UNK N   1      19.081  13.850   7.746  0.00  0.00     0.210 HD
ENDBRANCH   9  19
BRANCH  10  21
HETATM   21  N   UNK N   1      20.783  15.302   5.141  0.00  0.00    -0.297 N 
HETATM   22  C   UNK N   1      19.518  15.005   4.740  0.00  0.00     0.188 A 
HETATM   23  N   UNK N   1      18.996  15.986   3.954  0.00  0.00    -0.346 N 
HETATM   24  C   UNK N   1      19.976  16.902   3.876  0.00  0.00     0.122 A 
ATOM     25  HN  UNK N   1      18.073  16.017   3.522  1.00  0.00     0.167 HD
HETATM   26  C   UNK N   1      19.996  18.120   3.217  0.00  0.00     0.131 A 
HETATM   27  C   UNK N   1      21.049  16.494   4.582  0.00  0.00     0.142 A 
HETATM   28  N   UNK N   1      21.131  18.874   3.303  0.00  0.00    -0.337 N 
HETATM   29  C   UNK N   1      22.216  18.438   4.024  0.00  0.00     0.183 A 
ATOM     30  HN  UNK N   1      21.173  19.775   2.824  1.00  0.00     0.168 HD
HETATM   31  N   UNK N   1      22.179  17.237   4.677  0.00  0.00    -0.336 N 
ATOM     32  HN  UNK N   1      22.977  16.909   5.220  1.00  0.00     0.168 HD
BRANCH  26  33
HETATM   33  N   UNK N   1      18.881  18.575   2.486  0.00  0.00    -0.383 N 
HETATM   34  H   UNK N   1      19.011  19.130   1.683  0.00  0.00     0.157 HD
HETATM   35  H   UNK N   1      17.970  18.340   2.778  0.00  0.00     0.157 HD
ENDBRANCH  26  33
ENDBRANCH  10  21
ENDBRANCH   6   7
ENDBRANCH   5   6
ENDBRANCH   2   5
BRANCH   2  36
HETATM   36  O   UNK N   1      26.750  14.912   4.278  0.00  0.00    -0.195 OA
BRANCH  36  37
HETATM   37  P   UNK N   1      25.489  15.760   3.317  0.00  0.00     0.401 P 
HETATM   38  O   UNK N   1      26.755  16.130   2.496  0.00  0.00    -0.631 OA
BRANCH  37  39
HETATM   39  O   UNK N   1      25.224  16.369   4.922  0.00  0.00    -0.307 OA
HETATM   40  H   UNK N   1      24.502  16.263   5.560  0.00  0.00     0.222 HD
ENDBRANCH  37  39
BRANCH  37  41
HETATM   41  O   UNK N   1      25.563  17.499   3.377  0.00  0.00    -0.296 OA
BRANCH  41  42
HETATM   42  C   UNK N   1      26.906  17.857   3.488  0.00  0.00     0.192 C 
BRANCH  42  43
HETATM   43  C   UNK N   1      27.105  19.182   4.244  0.00  0.00     0.008 C 
HETATM   44  C   UNK N   1      28.561  19.645   4.254  0.00  0.00     0.020 C 
HETATM   45  C   UNK N   1      26.365  20.234   3.457  0.00  0.00     0.020 C 
BRANCH  43  46
HETATM   46  C   UNK N   1      26.545  19.123   5.688  0.00  0.00     0.202 C 
BRANCH  46  47
HETATM   47  C   UNK N   1      27.227  20.116   6.622  0.00  0.00     0.141 C 
BRANCH  47  48
HETATM   48  N   UNK N   1      28.111  19.764   7.493  0.00  0.00    -0.372 N 
ATOM     49  HN  UNK N   1      28.889  20.397   7.679  1.00  0.00     0.161 HD
BRANCH  48  50
HETATM   50  C   UNK N   1      28.055  18.517   8.219  0.00  0.00     0.129 C 
BRANCH  50  51
HETATM   51  C   UNK N   1      29.362  17.717   8.095  0.00  0.00     0.103 C 
BRANCH  51  52
HETATM   52  C   UNK N   1      29.599  17.061   6.750  0.00  0.00     0.112 C 
BRANCH  52  53
HETATM   53  N   UNK N   1      30.724  17.174   6.132  0.00  0.00    -0.374 N 
ATOM     54  HN  UNK N   1      31.526  17.557   6.633  1.00  0.00     0.161 HD
BRANCH  53  55
HETATM   55  C   UNK N   1      30.889  16.777   4.755  0.00  0.00     0.123 C 
BRANCH  55  56
HETATM   56  C   UNK N   1      32.181  17.363   4.211  0.00  0.00     0.046 C 
BRANCH  56  57
HETATM   57  C   UNK N   1      33.365  16.415   4.398  0.00  0.00     0.203 C 
BRANCH  57  58
HETATM   58  N   UNK N   1      34.138  16.766   5.562  0.00  0.00    -0.156 N 
HETATM   59  O   UNK N   1      34.014  17.853   6.040  0.00  0.00    -0.537 OA
HETATM   60  O   UNK N   1      35.002  16.043   5.951  0.00  0.00    -0.537 OA
ENDBRANCH  57  58
ENDBRANCH  56  57
ENDBRANCH  55  56
ENDBRANCH  53  55
ENDBRANCH  52  53
BRANCH  52  61
HETATM   61  O   UNK N   1      28.643  16.277   6.221  0.00  0.00    -0.350 OA
HETATM   62  H   UNK N   1      28.118  15.532   6.437  0.00  0.00     0.219 HD
ENDBRANCH  52  61
ENDBRANCH  51  52
ENDBRANCH  50  51
ENDBRANCH  48  50
ENDBRANCH  47  48
BRANCH  47  63
HETATM   63  O   UNK N   1      26.905  21.423   6.522  0.00  0.00    -0.348 OA
HETATM   64  H   UNK N   1      26.326  22.120   6.759  0.00  0.00     0.219 HD
ENDBRANCH  47  63
ENDBRANCH  46  47
BRANCH  46  65
HETATM   65  O   UNK N   1      25.172  19.384   5.702  0.00  0.00    -0.387 OA
HETATM   66  H   UNK N   1      24.688  20.010   6.264  0.00  0.00     0.210 HD
ENDBRANCH  46  65
ENDBRANCH  43  46
ENDBRANCH  42  43
ENDBRANCH  41  42
ENDBRANCH  37  41
ENDBRANCH  36  37
ENDBRANCH   2  36
TORSDOF 31
ENDMDL
MODEL 5
REMARK VINA RESULT:      -5.5      1.651      2.732
REMARK  31 active torsions:
REMARK  status: ('A' for Active; 'I' for Inactive)
REMARK    1  A    between atoms: C_5  and  C_3 
REMARK    2  A    between atoms: C_7  and  C_3 
REMARK    3  A    between atoms: C_6  and  C_4 
REMARK    4  A    between atoms: C_13  and  C_4 
REMARK    5  A    between atoms: N_24  and  C_5 
REMARK    6  A    between atoms: N_26  and  C_6 
REMARK    7  A    between atoms: N_35  and  C_7 
REMARK    8  A    between atoms: C_12  and  C_8 
REMARK    9  A    between atoms: O_49  and  C_8 
REMARK   10  A    between atoms: C_22  and  C_9 
REMARK   11  A    between atoms: O_50  and  C_9 
REMARK   12  A    between atoms: N_24  and  C_13 
REMARK   13  A    between atoms: O_36  and  C_13 
REMARK   14  A    between atoms: C_15  and  O_37 
REMARK   15  A    between atoms: C_16  and  O_52 
REMARK   16  A    between atoms: C_20  and  C_17 
REMARK   17  A    between atoms: C_22  and  C_17 
REMARK   18  A    between atoms: C_17  and  O_38 
REMARK   19  A    between atoms: N_23  and  C_18 
REMARK   20  A    between atoms: N_26  and  C_20 
REMARK   21  A    between atoms: O_39  and  C_20 
REMARK   22  A    between atoms: C_21  and  N_34 
REMARK   23  A    between atoms: P_54  and  O_42 
REMARK   24  A    between atoms: P_54  and  O_43 
REMARK   25  A    between atoms: P_55  and  O_45 
REMARK   26  A    between atoms: P_56  and  O_47 
REMARK   27  A    between atoms: P_55  and  O_49 
REMARK   28  A    between atoms: P_56  and  O_50 
REMARK   29  A    between atoms: P_54  and  O_52 
REMARK   30  A    between atoms: P_55  and  O_53 
REMARK   31  A    between atoms: P_56  and  O_53 
ROOT
HETATM    1  O   UNK N   1      20.779  18.477   7.639  0.00  0.00    -0.631 OA
HETATM    2  P   UNK N   1      20.535  17.076   7.036  0.00  0.00     0.401 P 
ENDROOT
BRANCH   2   3
HETATM    3  O   UNK N   1      21.959  16.104   6.810  0.00  0.00    -0.307 OA
HETATM    4  H   UNK N   1      21.962  15.335   6.218  0.00  0.00     0.222 HD
ENDBRANCH   2   3
BRANCH   2   5
HETATM    5  O   UNK N   1      21.836  17.735   6.077  0.00  0.00    -0.294 OA
BRANCH   5   6
HETATM    6  C   UNK N   1      21.292  18.678   5.190  0.00  0.00     0.215 C 
BRANCH   6   7
HETATM    7  C   UNK N   1      21.352  18.167   3.758  0.00  0.00     0.180 C 
HETATM    8  C   UNK N   1      20.036  18.386   3.001  0.00  0.00     0.197 C 
HETATM    9  C   UNK N   1      20.243  17.359   1.928  0.00  0.00     0.199 C 
HETATM   10  C   UNK N   1      20.679  16.213   2.842  0.00  0.00     0.262 C 
HETATM   11  O   UNK N   1      21.630  16.772   3.730  0.00  0.00    -0.353 OA
BRANCH   8  12
HETATM   12  O   UNK N   1      19.847  19.696   2.493  0.00  0.00    -0.286 OA
BRANCH  12  13
HETATM   13  P   UNK N   1      21.393  20.302   1.914  0.00  0.00     0.391 P 
HETATM   14  O   UNK N   1      21.245  21.619   1.110  0.00  0.00    -0.632 OA
BRANCH  13  15
HETATM   15  O   UNK N   1      20.782  21.460   3.057  0.00  0.00    -0.307 OA
HETATM   16  H   UNK N   1      20.426  22.348   3.218  0.00  0.00     0.222 HD
ENDBRANCH  13  15
BRANCH  13  17
HETATM   17  O   UNK N   1      20.420  19.863   0.547  0.00  0.00    -0.307 OA
HETATM   18  H   UNK N   1      19.565  19.608   0.166  0.00  0.00     0.222 HD
ENDBRANCH  13  17
ENDBRANCH  12  13
ENDBRANCH   8  12
BRANCH   9  19
HETATM   19  O   UNK N   1      19.070  17.079   1.224  0.00  0.00    -0.388 OA
HETATM   20  H   UNK N   1      18.464  17.192   0.475  0.00  0.00     0.210 HD
ENDBRANCH   9  19
BRANCH  10  21
HETATM   21  N   UNK N   1      21.208  15.017   2.180  0.00  0.00    -0.297 N 
HETATM   22  C   UNK N   1      22.445  14.948   1.621  0.00  0.00     0.188 A 
HETATM   23  N   UNK N   1      22.704  13.708   1.122  0.00  0.00    -0.346 N 
HETATM   24  C   UNK N   1      21.588  13.007   1.385  0.00  0.00     0.122 A 
ATOM     25  HN  UNK N   1      23.551  13.386   0.654  1.00  0.00     0.167 HD
HETATM   26  C   UNK N   1      21.293  11.682   1.114  0.00  0.00     0.131 A 
HETATM   27  C   UNK N   1      20.688  13.790   2.014  0.00  0.00     0.142 A 
HETATM   28  N   UNK N   1      20.071  11.208   1.497  0.00  0.00    -0.337 N 
HETATM   29  C   UNK N   1      19.166  12.022   2.133  0.00  0.00     0.183 A 
ATOM     30  HN  UNK N   1      19.826  10.235   1.307  1.00  0.00     0.168 HD
HETATM   31  N   UNK N   1      19.474  13.328   2.402  0.00  0.00    -0.336 N 
ATOM     32  HN  UNK N   1      18.810  13.937   2.880  1.00  0.00     0.168 HD
BRANCH  26  33
HETATM   33  N   UNK N   1      22.224  10.841   0.472  0.00  0.00    -0.383 N 
HETATM   34  H   UNK N   1      23.027  10.537   0.953  0.00  0.00     0.157 HD
HETATM   35  H   UNK N   1      22.071  10.557  -0.459  0.00  0.00     0.157 HD
ENDBRANCH  26  33
ENDBRANCH  10  21
ENDBRANCH   6   7
ENDBRANCH   5   6
ENDBRANCH   2   5
BRANCH   2  36
HETATM   36  O   UNK N   1      20.978  16.298   8.609  0.00  0.00    -0.195 OA
BRANCH  36  37
HETATM   37  P   UNK N   1      20.451  14.650   9.099  0.00  0.00     0.401 P 
HETATM   38  O   UNK N   1      21.992  14.498   9.236  0.00  0.00    -0.631 OA
BRANCH  37  39
HETATM   39  O   UNK N   1      19.681  14.856   7.556  0.00  0.00    -0.307 OA
HETATM   40  H   UNK N   1      20.022  14.974   6.656  0.00  0.00     0.222 HD
ENDBRANCH  37  39
BRANCH  37  41
HETATM   41  O   UNK N   1      20.872  13.381   7.983  0.00  0.00    -0.296 OA
BRANCH  41  42
HETATM   42  C   UNK N   1      21.911  12.647   8.554  0.00  0.00     0.192 C 
BRANCH  42  43
HETATM   43  C   UNK N   1      22.716  11.852   7.514  0.00  0.00     0.008 C 
HETATM   44  C   UNK N   1      23.434  10.646   8.116  0.00  0.00     0.020 C 
HETATM   45  C   UNK N   1      21.710  11.268   6.554  0.00  0.00     0.020 C 
BRANCH  43  46
HETATM   46  C   UNK N   1      23.717  12.746   6.738  0.00  0.00     0.202 C 
BRANCH  46  47
HETATM   47  C   UNK N   1      23.270  13.019   5.306  0.00  0.00     0.141 C 
BRANCH  47  48
HETATM   48  N   UNK N   1      23.751  12.386   4.290  0.00  0.00    -0.372 N 
ATOM     49  HN  UNK N   1      23.137  12.204   3.496  1.00  0.00     0.161 HD
BRANCH  48  50
HETATM   50  C   UNK N   1      25.116  11.922   4.219  0.00  0.00     0.129 C 
BRANCH  50  51
HETATM   51  C   UNK N   1      26.097  13.058   3.882  0.00  0.00     0.103 C 
BRANCH  51  52
HETATM   52  C   UNK N   1      25.959  13.645   2.493  0.00  0.00     0.112 C 
BRANCH  52  53
HETATM   53  N   UNK N   1      26.337  14.849   2.228  0.00  0.00    -0.374 N 
ATOM     54  HN  UNK N   1      25.993  15.298   1.379  1.00  0.00     0.161 HD
BRANCH  53  55
HETATM   55  C   UNK N   1      27.229  15.583   3.091  0.00  0.00     0.123 C 
BRANCH  55  56
HETATM   56  C   UNK N   1      26.615  16.935   3.419  0.00  0.00     0.046 C 
BRANCH  56  57
HETATM   57  C   UNK N   1      26.518  17.171   4.925  0.00  0.00     0.203 C 
BRANCH  57  58
HETATM   58  N   UNK N   1      25.671  16.190   5.555  0.00  0.00    -0.156 N 
HETATM   59  O   UNK N   1      24.523  16.120   5.236  0.00  0.00    -0.537 OA
HETATM   60  O   UNK N   1      26.066  15.564   6.489  0.00  0.00    -0.537 OA
ENDBRANCH  57  58
ENDBRANCH  56  57
ENDBRANCH  55  56
ENDBRANCH  53  55
ENDBRANCH  52  53
BRANCH  52  61
HETATM   61  O   UNK N   1      25.504  12.872   1.491  0.00  0.00    -0.350 OA
HETATM   62  H   UNK N   1      25.134  12.024   1.344  0.00  0.00     0.219 HD
ENDBRANCH  52  61
ENDBRANCH  51  52
ENDBRANCH  50  51
ENDBRANCH  48  50
ENDBRANCH  47  48
BRANCH  47  63
HETATM   63  O   UNK N   1      22.318  13.951   5.093  0.00  0.00    -0.348 OA
HETATM   64  H   UNK N   1      21.654  14.296   4.530  0.00  0.00     0.219 HD
ENDBRANCH  47  63
ENDBRANCH  46  47
BRANCH  46  65
HETATM   65  O   UNK N   1      23.892  13.975   7.381  0.00  0.00    -0.387 OA
HETATM   66  H   UNK N   1      23.349  14.364   8.084  0.00  0.00     0.210 HD
ENDBRANCH  46  65
ENDBRANCH  43  46
ENDBRANCH  42  43
ENDBRANCH  41  42
ENDBRANCH  37  41
ENDBRANCH  36  37
ENDBRANCH   2  36
TORSDOF 31
ENDMDL
MODEL 6
REMARK VINA RESULT:      -5.4      4.115      8.335
REMARK  31 active torsions:
REMARK  status: ('A' for Active; 'I' for Inactive)
REMARK    1  A    between atoms: C_5  and  C_3 
REMARK    2  A    between atoms: C_7  and  C_3 
REMARK    3  A    between atoms: C_6  and  C_4 
REMARK    4  A    between atoms: C_13  and  C_4 
REMARK    5  A    between atoms: N_24  and  C_5 
REMARK    6  A    between atoms: N_26  and  C_6 
REMARK    7  A    between atoms: N_35  and  C_7 
REMARK    8  A    between atoms: C_12  and  C_8 
REMARK    9  A    between atoms: O_49  and  C_8 
REMARK   10  A    between atoms: C_22  and  C_9 
REMARK   11  A    between atoms: O_50  and  C_9 
REMARK   12  A    between atoms: N_24  and  C_13 
REMARK   13  A    between atoms: O_36  and  C_13 
REMARK   14  A    between atoms: C_15  and  O_37 
REMARK   15  A    between atoms: C_16  and  O_52 
REMARK   16  A    between atoms: C_20  and  C_17 
REMARK   17  A    between atoms: C_22  and  C_17 
REMARK   18  A    between atoms: C_17  and  O_38 
REMARK   19  A    between atoms: N_23  and  C_18 
REMARK   20  A    between atoms: N_26  and  C_20 
REMARK   21  A    between atoms: O_39  and  C_20 
REMARK   22  A    between atoms: C_21  and  N_34 
REMARK   23  A    between atoms: P_54  and  O_42 
REMARK   24  A    between atoms: P_54  and  O_43 
REMARK   25  A    between atoms: P_55  and  O_45 
REMARK   26  A    between atoms: P_56  and  O_47 
REMARK   27  A    between atoms: P_55  and  O_49 
REMARK   28  A    between atoms: P_56  and  O_50 
REMARK   29  A    between atoms: P_54  and  O_52 
REMARK   30  A    between atoms: P_55  and  O_53 
REMARK   31  A    between atoms: P_56  and  O_53 
ROOT
HETATM    1  O   UNK N   1      26.133  15.375   1.690  0.00  0.00    -0.631 OA
HETATM    2  P   UNK N   1      25.602  14.332   2.698  0.00  0.00     0.401 P 
ENDROOT
BRANCH   2   3
HETATM    3  O   UNK N   1      24.496  14.946   3.891  0.00  0.00    -0.307 OA
HETATM    4  H   UNK N   1      23.691  15.427   3.640  0.00  0.00     0.222 HD
ENDBRANCH   2   3
BRANCH   2   5
HETATM    5  O   UNK N   1      26.126  15.665   3.696  0.00  0.00    -0.294 OA
BRANCH   5   6
HETATM    6  C   UNK N   1      26.261  15.198   5.013  0.00  0.00     0.215 C 
BRANCH   6   7
HETATM    7  C   UNK N   1      26.790  16.297   5.923  0.00  0.00     0.180 C 
HETATM    8  C   UNK N   1      26.823  17.666   5.231  0.00  0.00     0.197 C 
HETATM    9  C   UNK N   1      27.826  18.326   6.129  0.00  0.00     0.199 C 
HETATM   10  C   UNK N   1      28.855  17.194   6.132  0.00  0.00     0.262 C 
HETATM   11  O   UNK N   1      28.116  16.006   6.350  0.00  0.00    -0.353 OA
BRANCH   8  12
HETATM   12  O   UNK N   1      25.580  18.345   5.186  0.00  0.00    -0.286 OA
BRANCH  12  13
HETATM   13  P   UNK N   1      25.398  19.079   3.598  0.00  0.00     0.391 P 
HETATM   14  O   UNK N   1      24.062  19.854   3.458  0.00  0.00    -0.632 OA
BRANCH  13  15
HETATM   15  O   UNK N   1      25.507  20.373   4.753  0.00  0.00    -0.307 OA
HETATM   16  H   UNK N   1      25.508  21.329   4.920  0.00  0.00     0.222 HD
ENDBRANCH  13  15
BRANCH  13  17
HETATM   17  O   UNK N   1      24.174  17.866   3.796  0.00  0.00    -0.307 OA
HETATM   18  H   UNK N   1      23.391  17.523   4.254  0.00  0.00     0.222 HD
ENDBRANCH  13  17
ENDBRANCH  12  13
ENDBRANCH   8  12
BRANCH   9  19
HETATM   19  O   UNK N   1      28.324  19.515   5.591  0.00  0.00    -0.388 OA
HETATM   20  H   UNK N   1      28.545  20.458   5.636  0.00  0.00     0.210 HD
ENDBRANCH   9  19
BRANCH  10  21
HETATM   21  N   UNK N   1      29.958  17.318   7.090  0.00  0.00    -0.297 N 
HETATM   22  C   UNK N   1      29.782  17.435   8.433  0.00  0.00     0.188 A 
HETATM   23  N   UNK N   1      30.970  17.481   9.094  0.00  0.00    -0.346 N 
HETATM   24  C   UNK N   1      31.893  17.390   8.121  0.00  0.00     0.122 A 
ATOM     25  HN  UNK N   1      31.125  17.565  10.098  1.00  0.00     0.167 HD
HETATM   26  C   UNK N   1      33.274  17.371   8.213  0.00  0.00     0.131 A 
HETATM   27  C   UNK N   1      31.289  17.298   6.919  0.00  0.00     0.142 A 
HETATM   28  N   UNK N   1      33.990  17.264   7.055  0.00  0.00    -0.337 N 
HETATM   29  C   UNK N   1      33.357  17.176   5.839  0.00  0.00     0.183 A 
ATOM     30  HN  UNK N   1      35.010  17.251   7.093  1.00  0.00     0.168 HD
HETATM   31  N   UNK N   1      31.990  17.187   5.764  0.00  0.00    -0.336 N 
ATOM     32  HN  UNK N   1      31.512  17.114   4.866  1.00  0.00     0.168 HD
BRANCH  26  33
HETATM   33  N   UNK N   1      33.927  17.450   9.459  0.00  0.00    -0.383 N 
HETATM   34  H   UNK N   1      34.072  18.326   9.884  0.00  0.00     0.157 HD
HETATM   35  H   UNK N   1      34.238  16.629   9.906  0.00  0.00     0.157 HD
ENDBRANCH  26  33
ENDBRANCH  10  21
ENDBRANCH   6   7
ENDBRANCH   5   6
ENDBRANCH   2   5
BRANCH   2  36
HETATM   36  O   UNK N   1      23.947  14.442   1.972  0.00  0.00    -0.195 OA
BRANCH  36  37
HETATM   37  P   UNK N   1      23.389  13.445   0.584  0.00  0.00     0.401 P 
HETATM   38  O   UNK N   1      22.461  14.682   0.424  0.00  0.00    -0.631 OA
BRANCH  37  39
HETATM   39  O   UNK N   1      23.242  12.352   1.926  0.00  0.00    -0.307 OA
HETATM   40  H   UNK N   1      22.501  11.840   2.285  0.00  0.00     0.222 HD
ENDBRANCH  37  39
BRANCH  37  41
HETATM   41  O   UNK N   1      21.775  12.810   0.736  0.00  0.00    -0.296 OA
BRANCH  41  42
HETATM   42  C   UNK N   1      21.475  12.747   2.096  0.00  0.00     0.192 C 
BRANCH  42  43
HETATM   43  C   UNK N   1      20.019  13.136   2.401  0.00  0.00     0.008 C 
HETATM   44  C   UNK N   1      19.243  13.553   1.152  0.00  0.00     0.020 C 
HETATM   45  C   UNK N   1      19.336  11.881   2.884  0.00  0.00     0.020 C 
BRANCH  43  46
HETATM   46  C   UNK N   1      19.921  14.234   3.491  0.00  0.00     0.202 C 
BRANCH  46  47
HETATM   47  C   UNK N   1      20.376  15.600   2.989  0.00  0.00     0.141 C 
BRANCH  47  48
HETATM   48  N   UNK N   1      19.552  16.506   2.586  0.00  0.00    -0.372 N 
ATOM     49  HN  UNK N   1      18.555  16.365   2.752  1.00  0.00     0.161 HD
BRANCH  48  50
HETATM   50  C   UNK N   1      19.968  17.712   1.909  0.00  0.00     0.129 C 
BRANCH  50  51
HETATM   51  C   UNK N   1      19.652  18.974   2.728  0.00  0.00     0.103 C 
BRANCH  51  52
HETATM   52  C   UNK N   1      20.795  19.512   3.564  0.00  0.00     0.112 C 
BRANCH  52  53
HETATM   53  N   UNK N   1      21.505  18.740   4.313  0.00  0.00    -0.374 N 
ATOM     54  HN  UNK N   1      22.304  18.255   3.905  1.00  0.00     0.161 HD
BRANCH  53  55
HETATM   55  C   UNK N   1      21.210  18.541   5.711  0.00  0.00     0.123 C 
BRANCH  55  56
HETATM   56  C   UNK N   1      21.633  17.139   6.121  0.00  0.00     0.046 C 
BRANCH  56  57
HETATM   57  C   UNK N   1      20.842  16.630   7.325  0.00  0.00     0.203 C 
BRANCH  57  58
HETATM   58  N   UNK N   1      19.884  15.629   6.936  0.00  0.00    -0.156 N 
HETATM   59  O   UNK N   1      18.846  15.969   6.455  0.00  0.00    -0.537 OA
HETATM   60  O   UNK N   1      20.053  14.487   7.231  0.00  0.00    -0.537 OA
ENDBRANCH  57  58
ENDBRANCH  56  57
ENDBRANCH  55  56
ENDBRANCH  53  55
ENDBRANCH  52  53
BRANCH  52  61
HETATM   61  O   UNK N   1      21.131  20.811   3.465  0.00  0.00    -0.350 OA
HETATM   62  H   UNK N   1      21.743  21.427   3.816  0.00  0.00     0.219 HD
ENDBRANCH  52  61
ENDBRANCH  51  52
ENDBRANCH  50  51
ENDBRANCH  48  50
ENDBRANCH  47  48
BRANCH  47  63
HETATM   63  O   UNK N   1      21.695  15.878   2.982  0.00  0.00    -0.348 OA
HETATM   64  H   UNK N   1      22.391  16.430   2.681  0.00  0.00     0.219 HD
ENDBRANCH  47  63
ENDBRANCH  46  47
BRANCH  46  65
HETATM   65  O   UNK N   1      18.611  14.356   3.961  0.00  0.00    -0.387 OA
HETATM   66  H   UNK N   1      18.043  13.665   4.337  0.00  0.00     0.210 HD
ENDBRANCH  46  65
ENDBRANCH  43  46
ENDBRANCH  42  43
ENDBRANCH  41  42
ENDBRANCH  37  41
ENDBRANCH  36  37
ENDBRANCH   2  36
TORSDOF 31
ENDMDL
MODEL 7
REMARK VINA RESULT:      -5.4      1.816      2.788
REMARK  31 active torsions:
REMARK  status: ('A' for Active; 'I' for Inactive)
REMARK    1  A    between atoms: C_5  and  C_3 
REMARK    2  A    between atoms: C_7  and  C_3 
REMARK    3  A    between atoms: C_6  and  C_4 
REMARK    4  A    between atoms: C_13  and  C_4 
REMARK    5  A    between atoms: N_24  and  C_5 
REMARK    6  A    between atoms: N_26  and  C_6 
REMARK    7  A    between atoms: N_35  and  C_7 
REMARK    8  A    between atoms: C_12  and  C_8 
REMARK    9  A    between atoms: O_49  and  C_8 
REMARK   10  A    between atoms: C_22  and  C_9 
REMARK   11  A    between atoms: O_50  and  C_9 
REMARK   12  A    between atoms: N_24  and  C_13 
REMARK   13  A    between atoms: O_36  and  C_13 
REMARK   14  A    between atoms: C_15  and  O_37 
REMARK   15  A    between atoms: C_16  and  O_52 
REMARK   16  A    between atoms: C_20  and  C_17 
REMARK   17  A    between atoms: C_22  and  C_17 
REMARK   18  A    between atoms: C_17  and  O_38 
REMARK   19  A    between atoms: N_23  and  C_18 
REMARK   20  A    between atoms: N_26  and  C_20 
REMARK   21  A    between atoms: O_39  and  C_20 
REMARK   22  A    between atoms: C_21  and  N_34 
REMARK   23  A    between atoms: P_54  and  O_42 
REMARK   24  A    between atoms: P_54  and  O_43 
REMARK   25  A    between atoms: P_55  and  O_45 
REMARK   26  A    between atoms: P_56  and  O_47 
REMARK   27  A    between atoms: P_55  and  O_49 
REMARK   28  A    between atoms: P_56  and  O_50 
REMARK   29  A    between atoms: P_54  and  O_52 
REMARK   30  A    between atoms: P_55  and  O_53 
REMARK   31  A    between atoms: P_56  and  O_53 
ROOT
HETATM    1  O   UNK N   1      21.822  17.014   6.520  0.00  0.00    -0.631 OA
HETATM    2  P   UNK N   1      20.927  15.973   7.229  0.00  0.00     0.401 P 
ENDROOT
BRANCH   2   3
HETATM    3  O   UNK N   1      20.385  14.656   6.231  0.00  0.00    -0.307 OA
HETATM    4  H   UNK N   1      20.490  13.732   6.506  0.00  0.00     0.222 HD
ENDBRANCH   2   3
BRANCH   2   5
HETATM    5  O   UNK N   1      20.061  16.356   5.762  0.00  0.00    -0.294 OA
BRANCH   5   6
HETATM    6  C   UNK N   1      20.845  17.247   5.012  0.00  0.00     0.215 C 
BRANCH   6   7
HETATM    7  C   UNK N   1      21.075  16.711   3.607  0.00  0.00     0.180 C 
HETATM    8  C   UNK N   1      20.509  17.640   2.525  0.00  0.00     0.197 C 
HETATM    9  C   UNK N   1      20.414  16.632   1.418  0.00  0.00     0.199 C 
HETATM   10  C   UNK N   1      19.735  15.525   2.225  0.00  0.00     0.262 C 
HETATM   11  O   UNK N   1      20.454  15.441   3.442  0.00  0.00    -0.353 OA
BRANCH   8  12
HETATM   12  O   UNK N   1      21.328  18.751   2.200  0.00  0.00    -0.286 OA
BRANCH  12  13
HETATM   13  P   UNK N   1      20.336  20.203   2.217  0.00  0.00     0.391 P 
HETATM   14  O   UNK N   1      21.115  21.453   1.732  0.00  0.00    -0.632 OA
BRANCH  13  15
HETATM   15  O   UNK N   1      20.731  19.870   0.558  0.00  0.00    -0.307 OA
HETATM   16  H   UNK N   1      20.934  19.208  -0.122  0.00  0.00     0.222 HD
ENDBRANCH  13  15
BRANCH  13  17
HETATM   17  O   UNK N   1      21.616  20.388   3.374  0.00  0.00    -0.307 OA
HETATM   18  H   UNK N   1      21.985  20.230   4.257  0.00  0.00     0.222 HD
ENDBRANCH  13  17
ENDBRANCH  12  13
ENDBRANCH   8  12
BRANCH   9  19
HETATM   19  O   UNK N   1      19.637  17.084   0.349  0.00  0.00    -0.388 OA
HETATM   20  H   UNK N   1      18.794  17.317  -0.069  0.00  0.00     0.210 HD
ENDBRANCH   9  19
BRANCH  10  21
HETATM   21  N   UNK N   1      19.631  14.215   1.576  0.00  0.00    -0.297 N 
HETATM   22  C   UNK N   1      18.673  13.898   0.664  0.00  0.00     0.188 A 
HETATM   23  N   UNK N   1      18.837  12.637   0.180  0.00  0.00    -0.346 N 
HETATM   24  C   UNK N   1      19.926  12.177   0.819  0.00  0.00     0.122 A 
ATOM     25  HN  UNK N   1      18.264  12.152  -0.510  1.00  0.00     0.167 HD
HETATM   26  C   UNK N   1      20.563  10.953   0.709  0.00  0.00     0.131 A 
HETATM   27  C   UNK N   1      20.400  13.118   1.660  0.00  0.00     0.142 A 
HETATM   28  N   UNK N   1      21.670  10.737   1.479  0.00  0.00    -0.337 N 
HETATM   29  C   UNK N   1      22.136  11.707   2.333  0.00  0.00     0.183 A 
ATOM     30  HN  UNK N   1      22.158   9.843   1.420  1.00  0.00     0.168 HD
HETATM   31  N   UNK N   1      21.501  12.916   2.425  0.00  0.00    -0.336 N 
ATOM     32  HN  UNK N   1      21.844  13.644   3.052  1.00  0.00     0.168 HD
BRANCH  26  33
HETATM   33  N   UNK N   1      20.095   9.960  -0.174  0.00  0.00    -0.383 N 
HETATM   34  H   UNK N   1      19.128   9.847  -0.321  0.00  0.00     0.157 HD
HETATM   35  H   UNK N   1      20.735   9.378  -0.646  0.00  0.00     0.157 HD
ENDBRANCH  26  33
ENDBRANCH  10  21
ENDBRANCH   6   7
ENDBRANCH   5   6
ENDBRANCH   2   5
BRANCH   2  36
HETATM   36  O   UNK N   1      22.242  14.734   7.114  0.00  0.00    -0.195 OA
BRANCH  36  37
HETATM   37  P   UNK N   1      22.106  13.208   6.174  0.00  0.00     0.401 P 
HETATM   38  O   UNK N   1      22.922  12.705   7.398  0.00  0.00    -0.631 OA
BRANCH  37  39
HETATM   39  O   UNK N   1      22.776  14.313   5.015  0.00  0.00    -0.307 OA
HETATM   40  H   UNK N   1      23.674  14.642   4.855  0.00  0.00     0.222 HD
ENDBRANCH  37  39
BRANCH  37  41
HETATM   41  O   UNK N   1      23.601  12.622   5.500  0.00  0.00    -0.296 OA
BRANCH  41  42
HETATM   42  C   UNK N   1      24.199  13.682   4.822  0.00  0.00     0.192 C 
BRANCH  42  43
HETATM   43  C   UNK N   1      25.715  13.766   5.069  0.00  0.00     0.008 C 
HETATM   44  C   UNK N   1      26.376  12.392   5.163  0.00  0.00     0.020 C 
HETATM   45  C   UNK N   1      26.311  14.403   3.839  0.00  0.00     0.020 C 
BRANCH  43  46
HETATM   46  C   UNK N   1      26.059  14.620   6.316  0.00  0.00     0.202 C 
BRANCH  46  47
HETATM   47  C   UNK N   1      25.758  16.100   6.113  0.00  0.00     0.141 C 
BRANCH  47  48
HETATM   48  N   UNK N   1      26.681  16.996   6.020  0.00  0.00    -0.372 N 
ATOM     49  HN  UNK N   1      26.519  17.799   5.412  1.00  0.00     0.161 HD
BRANCH  48  50
HETATM   50  C   UNK N   1      27.935  16.919   6.732  0.00  0.00     0.129 C 
BRANCH  50  51
HETATM   51  C   UNK N   1      29.027  17.782   6.077  0.00  0.00     0.103 C 
BRANCH  51  52
HETATM   52  C   UNK N   1      28.717  18.269   4.676  0.00  0.00     0.112 C 
BRANCH  52  53
HETATM   53  N   UNK N   1      28.512  19.516   4.424  0.00  0.00    -0.374 N 
ATOM     54  HN  UNK N   1      28.869  19.908   3.552  1.00  0.00     0.161 HD
BRANCH  53  55
HETATM   55  C   UNK N   1      27.796  20.377   5.332  0.00  0.00     0.123 C 
BRANCH  55  56
HETATM   56  C   UNK N   1      26.350  20.500   4.877  0.00  0.00     0.046 C 
BRANCH  56  57
HETATM   57  C   UNK N   1      26.230  20.534   3.354  0.00  0.00     0.203 C 
BRANCH  57  58
HETATM   58  N   UNK N   1      24.906  20.161   2.926  0.00  0.00    -0.156 N 
HETATM   59  O   UNK N   1      24.368  20.797   2.070  0.00  0.00    -0.537 OA
HETATM   60  O   UNK N   1      24.293  19.330   3.521  0.00  0.00    -0.537 OA
ENDBRANCH  57  58
ENDBRANCH  56  57
ENDBRANCH  55  56
ENDBRANCH  53  55
ENDBRANCH  52  53
BRANCH  52  61
HETATM   61  O   UNK N   1      28.733  17.394   3.654  0.00  0.00    -0.350 OA
HETATM   62  H   UNK N   1      29.331  16.868   3.163  0.00  0.00     0.219 HD
ENDBRANCH  52  61
ENDBRANCH  51  52
ENDBRANCH  50  51
ENDBRANCH  48  50
ENDBRANCH  47  48
BRANCH  47  63
HETATM   63  O   UNK N   1      24.470  16.489   6.012  0.00  0.00    -0.348 OA
HETATM   64  H   UNK N   1      23.591  16.420   6.328  0.00  0.00     0.219 HD
ENDBRANCH  47  63
ENDBRANCH  46  47
BRANCH  46  65
HETATM   65  O   UNK N   1      25.347  14.179   7.435  0.00  0.00    -0.387 OA
HETATM   66  H   UNK N   1      24.499  14.508   7.772  0.00  0.00     0.210 HD
ENDBRANCH  46  65
ENDBRANCH  43  46
ENDBRANCH  42  43
ENDBRANCH  41  42
ENDBRANCH  37  41
ENDBRANCH  36  37
ENDBRANCH   2  36
TORSDOF 31
ENDMDL
MODEL 8
REMARK VINA RESULT:      -5.3      4.160      8.289
REMARK  31 active torsions:
REMARK  status: ('A' for Active; 'I' for Inactive)
REMARK    1  A    between atoms: C_5  and  C_3 
REMARK    2  A    between atoms: C_7  and  C_3 
REMARK    3  A    between atoms: C_6  and  C_4 
REMARK    4  A    between atoms: C_13  and  C_4 
REMARK    5  A    between atoms: N_24  and  C_5 
REMARK    6  A    between atoms: N_26  and  C_6 
REMARK    7  A    between atoms: N_35  and  C_7 
REMARK    8  A    between atoms: C_12  and  C_8 
REMARK    9  A    between atoms: O_49  and  C_8 
REMARK   10  A    between atoms: C_22  and  C_9 
REMARK   11  A    between atoms: O_50  and  C_9 
REMARK   12  A    between atoms: N_24  and  C_13 
REMARK   13  A    between atoms: O_36  and  C_13 
REMARK   14  A    between atoms: C_15  and  O_37 
REMARK   15  A    between atoms: C_16  and  O_52 
REMARK   16  A    between atoms: C_20  and  C_17 
REMARK   17  A    between atoms: C_22  and  C_17 
REMARK   18  A    between atoms: C_17  and  O_38 
REMARK   19  A    between atoms: N_23  and  C_18 
REMARK   20  A    between atoms: N_26  and  C_20 
REMARK   21  A    between atoms: O_39  and  C_20 
REMARK   22  A    between atoms: C_21  and  N_34 
REMARK   23  A    between atoms: P_54  and  O_42 
REMARK   24  A    between atoms: P_54  and  O_43 
REMARK   25  A    between atoms: P_55  and  O_45 
REMARK   26  A    between atoms: P_56  and  O_47 
REMARK   27  A    between atoms: P_55  and  O_49 
REMARK   28  A    between atoms: P_56  and  O_50 
REMARK   29  A    between atoms: P_54  and  O_52 
REMARK   30  A    between atoms: P_55  and  O_53 
REMARK   31  A    between atoms: P_56  and  O_53 
ROOT
HETATM    1  O   UNK N   1      25.273  13.959   7.066  0.00  0.00    -0.631 OA
HETATM    2  P   UNK N   1      23.893  14.254   6.436  0.00  0.00     0.401 P 
ENDROOT
BRANCH   2   3
HETATM    3  O   UNK N   1      23.937  15.033   4.882  0.00  0.00    -0.307 OA
HETATM    4  H   UNK N   1      23.208  14.944   4.247  0.00  0.00     0.222 HD
ENDBRANCH   2   3
BRANCH   2   5
HETATM    5  O   UNK N   1      24.761  15.763   6.296  0.00  0.00    -0.294 OA
BRANCH   5   6
HETATM    6  C   UNK N   1      26.020  15.492   5.737  0.00  0.00     0.215 C 
BRANCH   6   7
HETATM    7  C   UNK N   1      26.979  16.647   5.986  0.00  0.00     0.180 C 
HETATM    8  C   UNK N   1      27.563  17.216   4.686  0.00  0.00     0.197 C 
HETATM    9  C   UNK N   1      28.770  17.881   5.277  0.00  0.00     0.199 C 
HETATM   10  C   UNK N   1      29.234  16.707   6.139  0.00  0.00     0.262 C 
HETATM   11  O   UNK N   1      28.074  16.230   6.795  0.00  0.00    -0.353 OA
BRANCH   8  12
HETATM   12  O   UNK N   1      26.715  18.112   3.990  0.00  0.00    -0.286 OA
BRANCH  12  13
HETATM   13  P   UNK N   1      26.350  19.473   5.043  0.00  0.00     0.391 P 
HETATM   14  O   UNK N   1      25.391  20.492   4.376  0.00  0.00    -0.632 OA
BRANCH  13  15
HETATM   15  O   UNK N   1      24.867  18.600   4.798  0.00  0.00    -0.307 OA
HETATM   16  H   UNK N   1      24.401  17.881   4.342  0.00  0.00     0.222 HD
ENDBRANCH  13  15
BRANCH  13  17
HETATM   17  O   UNK N   1      27.230  20.054   3.667  0.00  0.00    -0.307 OA
HETATM   18  H   UNK N   1      27.616  20.784   3.158  0.00  0.00     0.222 HD
ENDBRANCH  13  17
ENDBRANCH  12  13
ENDBRANCH   8  12
BRANCH   9  19
HETATM   19  O   UNK N   1      29.704  18.251   4.308  0.00  0.00    -0.388 OA
HETATM   20  H   UNK N   1      30.347  18.862   3.915  0.00  0.00     0.210 HD
ENDBRANCH   9  19
BRANCH  10  21
HETATM   21  N   UNK N   1      30.311  16.984   7.094  0.00  0.00    -0.297 N 
HETATM   22  C   UNK N   1      30.119  17.092   8.436  0.00  0.00     0.188 A 
HETATM   23  N   UNK N   1      31.291  17.300   9.097  0.00  0.00    -0.346 N 
HETATM   24  C   UNK N   1      32.219  17.319   8.125  0.00  0.00     0.122 A 
ATOM     25  HN  UNK N   1      31.432  17.415  10.100  1.00  0.00     0.167 HD
HETATM   26  C   UNK N   1      33.590  17.481   8.216  0.00  0.00     0.131 A 
HETATM   27  C   UNK N   1      31.634  17.135   6.924  0.00  0.00     0.142 A 
HETATM   28  N   UNK N   1      34.316  17.456   7.059  0.00  0.00    -0.337 N 
HETATM   29  C   UNK N   1      33.701  17.272   5.845  0.00  0.00     0.183 A 
ATOM     30  HN  UNK N   1      35.329  17.576   7.098  1.00  0.00     0.168 HD
HETATM   31  N   UNK N   1      32.345  17.104   5.770  0.00  0.00    -0.336 N 
ATOM     32  HN  UNK N   1      31.882  16.960   4.873  1.00  0.00     0.168 HD
BRANCH  26  33
HETATM   33  N   UNK N   1      34.225  17.659   9.462  0.00  0.00    -0.383 N 
HETATM   34  H   UNK N   1      34.792  18.448   9.617  0.00  0.00     0.157 HD
HETATM   35  H   UNK N   1      34.103  16.993  10.177  0.00  0.00     0.157 HD
ENDBRANCH  26  33
ENDBRANCH  10  21
ENDBRANCH   6   7
ENDBRANCH   5   6
ENDBRANCH   2   5
BRANCH   2  36
HETATM   36  O   UNK N   1      24.188  13.008   5.156  0.00  0.00    -0.195 OA
BRANCH  36  37
HETATM   37  P   UNK N   1      22.885  12.228   4.194  0.00  0.00     0.401 P 
HETATM   38  O   UNK N   1      23.663  12.956   3.063  0.00  0.00    -0.631 OA
BRANCH  37  39
HETATM   39  O   UNK N   1      21.998  13.099   5.407  0.00  0.00    -0.307 OA
HETATM   40  H   UNK N   1      22.021  14.019   5.712  0.00  0.00     0.222 HD
ENDBRANCH  37  39
BRANCH  37  41
HETATM   41  O   UNK N   1      21.728  13.326   3.496  0.00  0.00    -0.296 OA
BRANCH  41  42
HETATM   42  C   UNK N   1      21.270  12.755   2.309  0.00  0.00     0.192 C 
BRANCH  42  43
HETATM   43  C   UNK N   1      20.293  13.668   1.550  0.00  0.00     0.008 C 
HETATM   44  C   UNK N   1      19.482  12.919   0.494  0.00  0.00     0.020 C 
HETATM   45  C   UNK N   1      19.279  14.138   2.562  0.00  0.00     0.020 C 
BRANCH  43  46
HETATM   46  C   UNK N   1      21.005  14.892   0.919  0.00  0.00     0.202 C 
BRANCH  46  47
HETATM   47  C   UNK N   1      20.151  16.155   0.968  0.00  0.00     0.141 C 
BRANCH  47  48
HETATM   48  N   UNK N   1      20.499  17.209   1.624  0.00  0.00    -0.372 N 
ATOM     49  HN  UNK N   1      21.443  17.574   1.492  1.00  0.00     0.161 HD
BRANCH  48  50
HETATM   50  C   UNK N   1      19.621  17.901   2.538  0.00  0.00     0.129 C 
BRANCH  50  51
HETATM   51  C   UNK N   1      20.262  18.096   3.922  0.00  0.00     0.103 C 
BRANCH  51  52
HETATM   52  C   UNK N   1      21.283  17.050   4.319  0.00  0.00     0.112 C 
BRANCH  52  53
HETATM   53  N   UNK N   1      20.946  15.988   4.968  0.00  0.00    -0.374 N 
ATOM     54  HN  UNK N   1      21.327  15.089   4.675  1.00  0.00     0.161 HD
BRANCH  53  55
HETATM   55  C   UNK N   1      20.047  16.029   6.096  0.00  0.00     0.123 C 
BRANCH  55  56
HETATM   56  C   UNK N   1      20.831  16.365   7.354  0.00  0.00     0.046 C 
BRANCH  56  57
HETATM   57  C   UNK N   1      19.935  16.929   8.455  0.00  0.00     0.203 C 
BRANCH  57  58
HETATM   58  N   UNK N   1      20.074  18.358   8.562  0.00  0.00    -0.156 N 
HETATM   59  O   UNK N   1      20.663  18.953   7.710  0.00  0.00    -0.537 OA
HETATM   60  O   UNK N   1      19.745  18.922   9.559  0.00  0.00    -0.537 OA
ENDBRANCH  57  58
ENDBRANCH  56  57
ENDBRANCH  55  56
ENDBRANCH  53  55
ENDBRANCH  52  53
BRANCH  52  61
HETATM   61  O   UNK N   1      22.560  17.188   3.920  0.00  0.00    -0.350 OA
HETATM   62  H   UNK N   1      23.412  16.836   4.087  0.00  0.00     0.219 HD
ENDBRANCH  52  61
ENDBRANCH  51  52
ENDBRANCH  50  51
ENDBRANCH  48  50
ENDBRANCH  47  48
BRANCH  47  63
HETATM   63  O   UNK N   1      18.989  16.175   0.283  0.00  0.00    -0.348 OA
HETATM   64  H   UNK N   1      18.077  16.387   0.270  0.00  0.00     0.219 HD
ENDBRANCH  47  63
ENDBRANCH  46  47
BRANCH  46  65
HETATM   65  O   UNK N   1      22.213  15.158   1.569  0.00  0.00    -0.387 OA
HETATM   66  H   UNK N   1      22.535  14.790   2.407  0.00  0.00     0.210 HD
ENDBRANCH  46  65
ENDBRANCH  43  46
ENDBRANCH  42  43
ENDBRANCH  41  42
ENDBRANCH  37  41
ENDBRANCH  36  37
ENDBRANCH   2  36
TORSDOF 31
ENDMDL
MODEL 9
REMARK VINA RESULT:      -5.3      4.427      8.311
REMARK  31 active torsions:
REMARK  status: ('A' for Active; 'I' for Inactive)
REMARK    1  A    between atoms: C_5  and  C_3 
REMARK    2  A    between atoms: C_7  and  C_3 
REMARK    3  A    between atoms: C_6  and  C_4 
REMARK    4  A    between atoms: C_13  and  C_4 
REMARK    5  A    between atoms: N_24  and  C_5 
REMARK    6  A    between atoms: N_26  and  C_6 
REMARK    7  A    between atoms: N_35  and  C_7 
REMARK    8  A    between atoms: C_12  and  C_8 
REMARK    9  A    between atoms: O_49  and  C_8 
REMARK   10  A    between atoms: C_22  and  C_9 
REMARK   11  A    between atoms: O_50  and  C_9 
REMARK   12  A    between atoms: N_24  and  C_13 
REMARK   13  A    between atoms: O_36  and  C_13 
REMARK   14  A    between atoms: C_15  and  O_37 
REMARK   15  A    between atoms: C_16  and  O_52 
REMARK   16  A    between atoms: C_20  and  C_17 
REMARK   17  A    between atoms: C_22  and  C_17 
REMARK   18  A    between atoms: C_17  and  O_38 
REMARK   19  A    between atoms: N_23  and  C_18 
REMARK   20  A    between atoms: N_26  and  C_20 
REMARK   21  A    between atoms: O_39  and  C_20 
REMARK   22  A    between atoms: C_21  and  N_34 
REMARK   23  A    between atoms: P_54  and  O_42 
REMARK   24  A    between atoms: P_54  and  O_43 
REMARK   25  A    between atoms: P_55  and  O_45 
REMARK   26  A    between atoms: P_56  and  O_47 
REMARK   27  A    between atoms: P_55  and  O_49 
REMARK   28  A    between atoms: P_56  and  O_50 
REMARK   29  A    between atoms: P_54  and  O_52 
REMARK   30  A    between atoms: P_55  and  O_53 
REMARK   31  A    between atoms: P_56  and  O_53 
ROOT
HETATM    1  O   UNK N   1      27.341  13.927   2.364  0.00  0.00    -0.631 OA
HETATM    2  P   UNK N   1      25.932  14.095   2.974  0.00  0.00     0.401 P 
ENDROOT
BRANCH   2   3
HETATM    3  O   UNK N   1      24.973  15.375   2.291  0.00  0.00    -0.307 OA
HETATM    4  H   UNK N   1      24.405  15.229   1.518  0.00  0.00     0.222 HD
ENDBRANCH   2   3
BRANCH   2   5
HETATM    5  O   UNK N   1      26.595  15.710   2.975  0.00  0.00    -0.294 OA
BRANCH   5   6
HETATM    6  C   UNK N   1      27.906  15.643   3.476  0.00  0.00     0.215 C 
BRANCH   6   7
HETATM    7  C   UNK N   1      27.977  16.234   4.877  0.00  0.00     0.180 C 
HETATM    8  C   UNK N   1      27.608  17.722   4.905  0.00  0.00     0.197 C 
HETATM    9  C   UNK N   1      28.271  18.073   6.204  0.00  0.00     0.199 C 
HETATM   10  C   UNK N   1      29.611  17.391   5.926  0.00  0.00     0.262 C 
HETATM   11  O   UNK N   1      29.290  16.112   5.411  0.00  0.00    -0.353 OA
BRANCH   8  12
HETATM   12  O   UNK N   1      26.218  17.996   4.895  0.00  0.00    -0.286 OA
BRANCH  12  13
HETATM   13  P   UNK N   1      25.949  19.509   4.038  0.00  0.00     0.391 P 
HETATM   14  O   UNK N   1      24.443  19.858   3.919  0.00  0.00    -0.632 OA
BRANCH  13  15
HETATM   15  O   UNK N   1      25.412  19.742   5.674  0.00  0.00    -0.307 OA
HETATM   16  H   UNK N   1      24.799  20.183   6.284  0.00  0.00     0.222 HD
ENDBRANCH  13  15
BRANCH  13  17
HETATM   17  O   UNK N   1      25.280  18.211   3.101  0.00  0.00    -0.307 OA
HETATM   18  H   UNK N   1      24.564  17.584   2.919  0.00  0.00     0.222 HD
ENDBRANCH  13  17
ENDBRANCH  12  13
ENDBRANCH   8  12
BRANCH   9  19
HETATM   19  O   UNK N   1      28.388  19.453   6.388  0.00  0.00    -0.388 OA
HETATM   20  H   UNK N   1      28.026  20.335   6.568  0.00  0.00     0.210 HD
ENDBRANCH   9  19
BRANCH  10  21
HETATM   21  N   UNK N   1      30.539  17.293   7.056  0.00  0.00    -0.297 N 
HETATM   22  C   UNK N   1      30.142  17.175   8.351  0.00  0.00     0.188 A 
HETATM   23  N   UNK N   1      31.203  17.049   9.194  0.00  0.00    -0.346 N 
HETATM   24  C   UNK N   1      32.275  17.095   8.384  0.00  0.00     0.122 A 
ATOM     25  HN  UNK N   1      31.189  16.945  10.208  1.00  0.00     0.167 HD
HETATM   26  C   UNK N   1      33.621  16.999   8.693  0.00  0.00     0.131 A 
HETATM   27  C   UNK N   1      31.880  17.246   7.103  0.00  0.00     0.142 A 
HETATM   28  N   UNK N   1      34.519  17.071   7.667  0.00  0.00    -0.337 N 
HETATM   29  C   UNK N   1      34.098  17.230   6.369  0.00  0.00     0.183 A 
ATOM     30  HN  UNK N   1      35.518  17.006   7.868  1.00  0.00     0.168 HD
HETATM   31  N   UNK N   1      32.763  17.314   6.077  0.00  0.00    -0.336 N 
ATOM     32  HN  UNK N   1      32.442  17.424   5.116  1.00  0.00     0.168 HD
BRANCH  26  33
HETATM   33  N   UNK N   1      34.056  16.825  10.022  0.00  0.00    -0.383 N 
HETATM   34  H   UNK N   1      33.682  17.384  10.740  0.00  0.00     0.157 HD
HETATM   35  H   UNK N   1      34.736  16.143  10.233  0.00  0.00     0.157 HD
ENDBRANCH  26  33
ENDBRANCH  10  21
ENDBRANCH   6   7
ENDBRANCH   5   6
ENDBRANCH   2   5
BRANCH   2  36
HETATM   36  O   UNK N   1      25.174  13.513   1.436  0.00  0.00    -0.195 OA
BRANCH  36  37
HETATM   37  P   UNK N   1      23.519  12.820   1.331  0.00  0.00     0.401 P 
HETATM   38  O   UNK N   1      23.390  13.993   0.320  0.00  0.00    -0.631 OA
BRANCH  37  39
HETATM   39  O   UNK N   1      23.713  13.093   3.035  0.00  0.00    -0.307 OA
HETATM   40  H   UNK N   1      23.252  12.753   3.817  0.00  0.00     0.222 HD
ENDBRANCH  37  39
BRANCH  37  41
HETATM   41  O   UNK N   1      22.256  13.829   1.980  0.00  0.00    -0.296 OA
BRANCH  41  42
HETATM   42  C   UNK N   1      21.322  14.037   0.967  0.00  0.00     0.192 C 
BRANCH  42  43
HETATM   43  C   UNK N   1      19.889  14.195   1.503  0.00  0.00     0.008 C 
HETATM   44  C   UNK N   1      18.836  14.159   0.398  0.00  0.00     0.020 C 
HETATM   45  C   UNK N   1      19.615  12.974   2.344  0.00  0.00     0.020 C 
BRANCH  43  46
HETATM   46  C   UNK N   1      19.725  15.470   2.369  0.00  0.00     0.202 C 
BRANCH  46  47
HETATM   47  C   UNK N   1      19.704  15.165   3.862  0.00  0.00     0.141 C 
BRANCH  47  48
HETATM   48  N   UNK N   1      20.779  15.018   4.561  0.00  0.00    -0.372 N 
ATOM     49  HN  UNK N   1      21.595  14.601   4.113  1.00  0.00     0.161 HD
BRANCH  48  50
HETATM   50  C   UNK N   1      20.884  15.411   5.946  0.00  0.00     0.129 C 
BRANCH  50  51
HETATM   51  C   UNK N   1      21.683  16.714   6.119  0.00  0.00     0.103 C 
BRANCH  51  52
HETATM   52  C   UNK N   1      22.582  17.084   4.956  0.00  0.00     0.112 C 
BRANCH  52  53
HETATM   53  N   UNK N   1      22.292  18.056   4.161  0.00  0.00    -0.374 N 
ATOM     54  HN  UNK N   1      22.934  18.280   3.401  1.00  0.00     0.161 HD
BRANCH  53  55
HETATM   55  C   UNK N   1      21.088  18.839   4.309  0.00  0.00     0.123 C 
BRANCH  55  56
HETATM   56  C   UNK N   1      21.181  20.077   3.431  0.00  0.00     0.046 C 
BRANCH  56  57
HETATM   57  C   UNK N   1      20.122  20.079   2.330  0.00  0.00     0.203 C 
BRANCH  57  58
HETATM   58  N   UNK N   1      20.709  19.832   1.039  0.00  0.00    -0.156 N 
HETATM   59  O   UNK N   1      20.664  18.732   0.577  0.00  0.00    -0.537 OA
HETATM   60  O   UNK N   1      21.368  20.671   0.507  0.00  0.00    -0.537 OA
ENDBRANCH  57  58
ENDBRANCH  56  57
ENDBRANCH  55  56
ENDBRANCH  53  55
ENDBRANCH  52  53
BRANCH  52  61
HETATM   61  O   UNK N   1      23.749  16.437   4.792  0.00  0.00    -0.350 OA
HETATM   62  H   UNK N   1      24.083  15.574   4.648  0.00  0.00     0.219 HD
ENDBRANCH  52  61
ENDBRANCH  51  52
ENDBRANCH  50  51
ENDBRANCH  48  50
ENDBRANCH  47  48
BRANCH  47  63
HETATM   63  O   UNK N   1      18.512  15.062   4.484  0.00  0.00    -0.348 OA
HETATM   64  H   UNK N   1      17.714  14.585   4.600  0.00  0.00     0.219 HD
ENDBRANCH  47  63
ENDBRANCH  46  47
BRANCH  46  65
HETATM   65  O   UNK N   1      20.759  16.378   2.123  0.00  0.00    -0.387 OA
HETATM   66  H   UNK N   1      21.062  17.105   2.688  0.00  0.00     0.210 HD
ENDBRANCH  46  65
ENDBRANCH  43  46
ENDBRANCH  42  43
ENDBRANCH  41  42
ENDBRANCH  37  41
ENDBRANCH  36  37
ENDBRANCH   2  36
TORSDOF 31
ENDMDL
