MODEL 1
REMARK VINA RESULT:      -6.4      0.000      0.000
REMARK  11 active torsions:
REMARK  status: ('A' for Active; 'I' for Inactive)
REMARK    1  A    between atoms: C_5  and  C_1 
REMARK    2  A    between atoms: O_25  and  C_1 
REMARK    3  A    between atoms: C_6  and  C_2 
REMARK    4  A    between atoms: O_26  and  C_2 
REMARK    5  A    between atoms: C_12  and  C_5 
REMARK    6  A    between atoms: C_5  and  N_14 
REMARK    7  A    between atoms: C_7  and  N_22 
REMARK    8  A    between atoms: C_9  and  O_27 
REMARK    9  A    between atoms: N_15  and  C_10 
REMARK   10  A    between atoms: C_12  and  O_28 
REMARK   11  A    between atoms: C_13  and  N_24 
ROOT
HETATM    1  C   UNK N   1      36.803  14.954  10.250  0.00  0.00     0.173 C 
HETATM    2  C   UNK N   1      35.768  14.429  11.248  0.00  0.00     0.147 C 
HETATM    3  C   UNK N   1      34.657  15.452  11.085  0.00  0.00     0.192 C 
HETATM    4  C   UNK N   1      35.001  16.125   9.745  0.00  0.00     0.261 C 
HETATM    5  O   UNK N   1      36.025  15.363   9.141  0.00  0.00    -0.354 OA
ENDROOT
BRANCH   4   6
HETATM    6  N   UNK N   1      33.844  16.347   8.873  0.00  0.00    -0.297 N 
HETATM    7  C   UNK N   1      33.086  17.468   8.743  0.00  0.00     0.188 A 
HETATM    8  N   UNK N   1      32.045  17.264   7.882  0.00  0.00    -0.346 N 
HETATM    9  C   UNK N   1      32.185  15.984   7.487  0.00  0.00     0.122 A 
ATOM     10  HN  UNK N   1      31.325  17.930   7.603  1.00  0.00     0.167 HD
HETATM   11  C   UNK N   1      31.405  15.219   6.631  0.00  0.00     0.131 A 
HETATM   12  C   UNK N   1      33.266  15.440   8.076  0.00  0.00     0.142 A 
HETATM   13  N   UNK N   1      31.781  13.924   6.406  0.00  0.00    -0.337 N 
HETATM   14  C   UNK N   1      32.896  13.397   7.012  0.00  0.00     0.183 A 
ATOM     15  HN  UNK N   1      31.226  13.342   5.779  1.00  0.00     0.168 HD
HETATM   16  N   UNK N   1      33.647  14.158   7.865  0.00  0.00    -0.336 N 
ATOM     17  HN  UNK N   1      34.469  13.771   8.330  1.00  0.00     0.168 HD
BRANCH  11  18
HETATM   18  N   UNK N   1      30.247  15.746   6.022  0.00  0.00    -0.383 N 
HETATM   19  H   UNK N   1      29.667  16.400   6.476  0.00  0.00     0.157 HD
HETATM   20  H   UNK N   1      30.012  15.450   5.114  0.00  0.00     0.157 HD
ENDBRANCH  11  18
ENDBRANCH   4   6
BRANCH   3  21
HETATM   21  O   UNK N   1      33.415  14.810  11.089  0.00  0.00    -0.389 OA
HETATM   22  H   UNK N   1      32.863  14.022  11.207  0.00  0.00     0.210 HD
ENDBRANCH   3  21
BRANCH   2  23
HETATM   23  N   UNK N   1      36.132  14.323  12.655  0.00  0.00    -0.363 N 
HETATM   24  C   UNK N   1      35.530  13.640  13.571  0.00  0.00     0.136 C 
ATOM     25  HN  UNK N   1      36.955  14.850  12.949  1.00  0.00     0.162 HD
BRANCH  24  26
HETATM   26  C   UNK N   1      35.995  13.780  15.001  0.00  0.00     0.173 C 
BRANCH  26  27
HETATM   27  C   UNK N   1      35.235  12.883  15.977  0.00  0.00     0.197 C 
BRANCH  27  28
HETATM   28  O   UNK N   1      33.872  13.186  15.974  0.00  0.00    -0.398 OA
HETATM   29  H   UNK N   1      32.966  13.011  15.671  0.00  0.00     0.209 HD
ENDBRANCH  27  28
ENDBRANCH  26  27
BRANCH  26  30
HETATM   30  N   UNK N   1      37.420  13.510  15.101  0.00  0.00    -0.418 N 
HETATM   31  H   UNK N   1      38.181  12.961  14.700  0.00  0.00     0.150 HD
HETATM   32  H   UNK N   1      37.803  14.083  15.854  0.00  0.00     0.150 HD
ENDBRANCH  26  30
ENDBRANCH  24  26
BRANCH  24  33
HETATM   33  O   UNK N   1      34.482  12.847  13.273  0.00  0.00    -0.348 OA
HETATM   34  H   UNK N   1      34.074  12.336  13.945  0.00  0.00     0.219 HD
ENDBRANCH  24  33
ENDBRANCH   2  23
BRANCH   1  35
HETATM   35  C   UNK N   1      37.845  13.926   9.809  0.00  0.00     0.198 C 
BRANCH  35  36
HETATM   36  O   UNK N   1      38.581  13.451  10.898  0.00  0.00    -0.398 OA
HETATM   37  H   UNK N   1      38.846  12.796  11.562  0.00  0.00     0.209 HD
ENDBRANCH  35  36
ENDBRANCH   1  35
TORSDOF 11
ENDMDL
MODEL 2
REMARK VINA RESULT:      -6.2      2.796      7.009
REMARK  11 active torsions:
REMARK  status: ('A' for Active; 'I' for Inactive)
REMARK    1  A    between atoms: C_5  and  C_1 
REMARK    2  A    between atoms: O_25  and  C_1 
REMARK    3  A    between atoms: C_6  and  C_2 
REMARK    4  A    between atoms: O_26  and  C_2 
REMARK    5  A    between atoms: C_12  and  C_5 
REMARK    6  A    between atoms: C_5  and  N_14 
REMARK    7  A    between atoms: C_7  and  N_22 
REMARK    8  A    between atoms: C_9  and  O_27 
REMARK    9  A    between atoms: N_15  and  C_10 
REMARK   10  A    between atoms: C_12  and  O_28 
REMARK   11  A    between atoms: C_13  and  N_24 
ROOT
HETATM    1  C   UNK N   1      34.121  17.092   8.292  0.00  0.00     0.173 C 
HETATM    2  C   UNK N   1      32.883  16.697   9.101  0.00  0.00     0.147 C 
HETATM    3  C   UNK N   1      33.279  15.314   9.589  0.00  0.00     0.192 C 
HETATM    4  C   UNK N   1      34.804  15.301   9.386  0.00  0.00     0.261 C 
HETATM    5  O   UNK N   1      35.200  16.620   9.077  0.00  0.00    -0.354 OA
ENDROOT
BRANCH   4   6
HETATM    6  N   UNK N   1      35.550  14.713  10.503  0.00  0.00    -0.297 N 
HETATM    7  C   UNK N   1      36.137  15.346  11.554  0.00  0.00     0.188 A 
HETATM    8  N   UNK N   1      36.807  14.462  12.351  0.00  0.00    -0.346 N 
HETATM    9  C   UNK N   1      36.616  13.268  11.760  0.00  0.00     0.122 A 
ATOM     10  HN  UNK N   1      37.333  14.663  13.202  1.00  0.00     0.167 HD
HETATM   11  C   UNK N   1      37.082  12.008  12.111  0.00  0.00     0.131 A 
HETATM   12  C   UNK N   1      35.858  13.420  10.658  0.00  0.00     0.142 A 
HETATM   13  N   UNK N   1      36.733  10.951  11.317  0.00  0.00    -0.337 N 
HETATM   14  C   UNK N   1      35.949  11.133  10.203  0.00  0.00     0.183 A 
ATOM     15  HN  UNK N   1      37.060  10.015  11.555  1.00  0.00     0.168 HD
HETATM   16  N   UNK N   1      35.509  12.382   9.860  0.00  0.00    -0.336 N 
ATOM     17  HN  UNK N   1      34.938  12.529   9.028  1.00  0.00     0.168 HD
BRANCH  11  18
HETATM   18  N   UNK N   1      37.904  11.817  13.240  0.00  0.00    -0.383 N 
HETATM   19  H   UNK N   1      37.724  11.116  13.908  0.00  0.00     0.157 HD
HETATM   20  H   UNK N   1      38.684  12.405  13.365  0.00  0.00     0.157 HD
ENDBRANCH  11  18
ENDBRANCH   4   6
BRANCH   3  21
HETATM   21  O   UNK N   1      32.887  15.150  10.921  0.00  0.00    -0.389 OA
HETATM   22  H   UNK N   1      32.970  14.722  11.787  0.00  0.00     0.210 HD
ENDBRANCH   3  21
BRANCH   2  23
HETATM   23  N   UNK N   1      31.592  16.625   8.427  0.00  0.00    -0.363 N 
HETATM   24  C   UNK N   1      30.565  17.385   8.620  0.00  0.00     0.136 C 
ATOM     25  HN  UNK N   1      31.489  15.892   7.725  1.00  0.00     0.162 HD
BRANCH  24  26
HETATM   26  C   UNK N   1      29.274  17.049   7.910  0.00  0.00     0.173 C 
BRANCH  26  27
HETATM   27  C   UNK N   1      28.197  18.120   8.074  0.00  0.00     0.197 C 
BRANCH  27  28
HETATM   28  O   UNK N   1      27.607  18.046   9.337  0.00  0.00    -0.398 OA
HETATM   29  H   UNK N   1      26.862  17.807   9.912  0.00  0.00     0.209 HD
ENDBRANCH  27  28
ENDBRANCH  26  27
BRANCH  26  30
HETATM   30  N   UNK N   1      29.517  16.815   6.496  0.00  0.00    -0.418 N 
HETATM   31  H   UNK N   1      29.883  16.135   5.829  0.00  0.00     0.150 HD
HETATM   32  H   UNK N   1      29.206  17.637   5.977  0.00  0.00     0.150 HD
ENDBRANCH  26  30
ENDBRANCH  24  26
BRANCH  24  33
HETATM   33  O   UNK N   1      30.621  18.433   9.466  0.00  0.00    -0.348 OA
HETATM   34  H   UNK N   1      30.538  19.306   9.137  0.00  0.00     0.219 HD
ENDBRANCH  24  33
ENDBRANCH   2  23
BRANCH   1  35
HETATM   35  C   UNK N   1      34.270  18.592   8.044  0.00  0.00     0.198 C 
BRANCH  35  36
HETATM   36  O   UNK N   1      35.418  19.098   8.660  0.00  0.00    -0.398 OA
HETATM   37  H   UNK N   1      36.267  19.036   9.124  0.00  0.00     0.209 HD
ENDBRANCH  35  36
ENDBRANCH   1  35
TORSDOF 11
ENDMDL
MODEL 3
REMARK VINA RESULT:      -6.1      2.781      7.188
REMARK  11 active torsions:
REMARK  status: ('A' for Active; 'I' for Inactive)
REMARK    1  A    between atoms: C_5  and  C_1 
REMARK    2  A    between atoms: O_25  and  C_1 
REMARK    3  A    between atoms: C_6  and  C_2 
REMARK    4  A    between atoms: O_26  and  C_2 
REMARK    5  A    between atoms: C_12  and  C_5 
REMARK    6  A    between atoms: C_5  and  N_14 
REMARK    7  A    between atoms: C_7  and  N_22 
REMARK    8  A    between atoms: C_9  and  O_27 
REMARK    9  A    between atoms: N_15  and  C_10 
REMARK   10  A    between atoms: C_12  and  O_28 
REMARK   11  A    between atoms: C_13  and  N_24 
ROOT
HETATM    1  C   UNK N   1      33.489  15.593   6.946  0.00  0.00     0.173 C 
HETATM    2  C   UNK N   1      32.476  16.108   7.971  0.00  0.00     0.147 C 
HETATM    3  C   UNK N   1      32.278  14.874   8.834  0.00  0.00     0.192 C 
HETATM    4  C   UNK N   1      33.497  14.005   8.479  0.00  0.00     0.261 C 
HETATM    5  O   UNK N   1      34.376  14.803   7.716  0.00  0.00    -0.354 OA
ENDROOT
BRANCH   4   6
HETATM    6  N   UNK N   1      34.137  13.371   9.635  0.00  0.00    -0.297 N 
HETATM    7  C   UNK N   1      34.042  12.080  10.051  0.00  0.00     0.188 A 
HETATM    8  N   UNK N   1      34.725  11.886  11.218  0.00  0.00    -0.346 N 
HETATM    9  C   UNK N   1      35.243  13.094  11.507  0.00  0.00     0.122 A 
ATOM     10  HN  UNK N   1      34.821  11.020  11.750  1.00  0.00     0.167 HD
HETATM   11  C   UNK N   1      36.012  13.507  12.587  0.00  0.00     0.131 A 
HETATM   12  C   UNK N   1      34.895  13.980  10.555  0.00  0.00     0.142 A 
HETATM   13  N   UNK N   1      36.404  14.815  12.633  0.00  0.00    -0.337 N 
HETATM   14  C   UNK N   1      36.043  15.696  11.642  0.00  0.00     0.183 A 
ATOM     15  HN  UNK N   1      36.972  15.142  13.414  1.00  0.00     0.168 HD
HETATM   16  N   UNK N   1      35.272  15.280  10.591  0.00  0.00    -0.336 N 
ATOM     17  HN  UNK N   1      34.988  15.929   9.857  1.00  0.00     0.168 HD
BRANCH  11  18
HETATM   18  N   UNK N   1      36.367  12.614  13.619  0.00  0.00    -0.383 N 
HETATM   19  H   UNK N   1      35.967  11.718  13.699  0.00  0.00     0.157 HD
HETATM   20  H   UNK N   1      37.037  12.897  14.283  0.00  0.00     0.157 HD
ENDBRANCH  11  18
ENDBRANCH   4   6
BRANCH   3  21
HETATM   21  O   UNK N   1      32.222  15.240  10.182  0.00  0.00    -0.389 OA
HETATM   22  H   UNK N   1      32.320  15.037  11.125  0.00  0.00     0.210 HD
ENDBRANCH   3  21
BRANCH   2  23
HETATM   23  N   UNK N   1      31.182  16.590   7.504  0.00  0.00    -0.363 N 
HETATM   24  C   UNK N   1      30.339  17.323   8.154  0.00  0.00     0.136 C 
ATOM     25  HN  UNK N   1      30.912  16.318   6.559  1.00  0.00     0.162 HD
BRANCH  24  26
HETATM   26  C   UNK N   1      28.990  17.596   7.533  0.00  0.00     0.173 C 
BRANCH  26  27
HETATM   27  C   UNK N   1      28.226  18.728   8.216  0.00  0.00     0.197 C 
BRANCH  27  28
HETATM   28  O   UNK N   1      27.531  18.259   9.333  0.00  0.00    -0.398 OA
HETATM   29  H   UNK N   1      27.378  18.246  10.292  0.00  0.00     0.209 HD
ENDBRANCH  27  28
ENDBRANCH  26  27
BRANCH  26  30
HETATM   30  N   UNK N   1      29.132  17.891   6.116  0.00  0.00    -0.418 N 
HETATM   31  H   UNK N   1      29.258  17.463   5.198  0.00  0.00     0.150 HD
HETATM   32  H   UNK N   1      29.093  18.903   5.994  0.00  0.00     0.150 HD
ENDBRANCH  26  30
ENDBRANCH  24  26
BRANCH  24  33
HETATM   33  O   UNK N   1      30.632  17.803   9.379  0.00  0.00    -0.348 OA
HETATM   34  H   UNK N   1      30.161  18.539   9.720  0.00  0.00     0.219 HD
ENDBRANCH  24  33
ENDBRANCH   2  23
BRANCH   1  35
HETATM   35  C   UNK N   1      34.264  16.685   6.209  0.00  0.00     0.198 C 
BRANCH  35  36
HETATM   36  O   UNK N   1      34.149  17.916   6.859  0.00  0.00    -0.398 OA
HETATM   37  H   UNK N   1      34.065  18.881   6.908  0.00  0.00     0.209 HD
ENDBRANCH  35  36
ENDBRANCH   1  35
TORSDOF 11
ENDMDL
MODEL 4
REMARK VINA RESULT:      -5.9      1.975      7.290
REMARK  11 active torsions:
REMARK  status: ('A' for Active; 'I' for Inactive)
REMARK    1  A    between atoms: C_5  and  C_1 
REMARK    2  A    between atoms: O_25  and  C_1 
REMARK    3  A    between atoms: C_6  and  C_2 
REMARK    4  A    between atoms: O_26  and  C_2 
REMARK    5  A    between atoms: C_12  and  C_5 
REMARK    6  A    between atoms: C_5  and  N_14 
REMARK    7  A    between atoms: C_7  and  N_22 
REMARK    8  A    between atoms: C_9  and  O_27 
REMARK    9  A    between atoms: N_15  and  C_10 
REMARK   10  A    between atoms: C_12  and  O_28 
REMARK   11  A    between atoms: C_13  and  N_24 
ROOT
HETATM    1  C   UNK N   1      36.752  13.392   9.996  0.00  0.00     0.173 C 
HETATM    2  C   UNK N   1      35.644  14.444  10.084  0.00  0.00     0.147 C 
HETATM    3  C   UNK N   1      34.645  13.744  10.990  0.00  0.00     0.192 C 
HETATM    4  C   UNK N   1      35.487  12.631  11.637  0.00  0.00     0.261 C 
HETATM    5  O   UNK N   1      36.838  12.882  11.313  0.00  0.00    -0.354 OA
ENDROOT
BRANCH   4   6
HETATM    6  N   UNK N   1      35.252  12.463  13.074  0.00  0.00    -0.297 N 
HETATM    7  C   UNK N   1      34.412  11.595  13.697  0.00  0.00     0.188 A 
HETATM    8  N   UNK N   1      34.412  11.789  15.049  0.00  0.00    -0.346 N 
HETATM    9  C   UNK N   1      35.278  12.803  15.240  0.00  0.00     0.122 A 
ATOM     10  HN  UNK N   1      33.878  11.282  15.754  1.00  0.00     0.167 HD
HETATM   11  C   UNK N   1      35.664  13.445  16.408  0.00  0.00     0.131 A 
HETATM   12  C   UNK N   1      35.784  13.199  14.057  0.00  0.00     0.142 A 
HETATM   13  N   UNK N   1      36.571  14.463  16.310  0.00  0.00    -0.337 N 
HETATM   14  C   UNK N   1      37.080  14.841  15.091  0.00  0.00     0.183 A 
ATOM     15  HN  UNK N   1      36.874  14.949  17.154  1.00  0.00     0.168 HD
HETATM   16  N   UNK N   1      36.679  14.210  13.945  0.00  0.00    -0.336 N 
ATOM     17  HN  UNK N   1      37.041  14.492  13.035  1.00  0.00     0.168 HD
BRANCH  11  18
HETATM   18  N   UNK N   1      35.130  13.077  17.660  0.00  0.00    -0.383 N 
HETATM   19  H   UNK N   1      34.660  13.720  18.239  0.00  0.00     0.157 HD
HETATM   20  H   UNK N   1      35.232  12.147  17.965  0.00  0.00     0.157 HD
ENDBRANCH  11  18
ENDBRANCH   4   6
BRANCH   3  21
HETATM   21  O   UNK N   1      34.115  14.655  11.908  0.00  0.00    -0.389 OA
HETATM   22  H   UNK N   1      33.558  15.417  12.128  0.00  0.00     0.210 HD
ENDBRANCH   3  21
BRANCH   2  23
HETATM   23  N   UNK N   1      34.977  14.873   8.861  0.00  0.00    -0.363 N 
HETATM   24  C   UNK N   1      34.277  15.945   8.685  0.00  0.00     0.136 C 
ATOM     25  HN  UNK N   1      35.073  14.256   8.054  1.00  0.00     0.162 HD
BRANCH  24  26
HETATM   26  C   UNK N   1      33.556  16.129   7.371  0.00  0.00     0.173 C 
BRANCH  26  27
HETATM   27  C   UNK N   1      34.167  17.218   6.491  0.00  0.00     0.197 C 
BRANCH  27  28
HETATM   28  O   UNK N   1      34.564  18.315   7.259  0.00  0.00    -0.398 OA
HETATM   29  H   UNK N   1      34.350  19.101   7.787  0.00  0.00     0.209 HD
ENDBRANCH  27  28
ENDBRANCH  26  27
BRANCH  26  30
HETATM   30  N   UNK N   1      33.512  14.876   6.634  0.00  0.00    -0.418 N 
HETATM   31  H   UNK N   1      33.064  13.960   6.601  0.00  0.00     0.150 HD
HETATM   32  H   UNK N   1      34.177  14.935   5.863  0.00  0.00     0.150 HD
ENDBRANCH  26  30
ENDBRANCH  24  26
BRANCH  24  33
HETATM   33  O   UNK N   1      34.154  16.865   9.661  0.00  0.00    -0.348 OA
HETATM   34  H   UNK N   1      33.320  17.020  10.059  0.00  0.00     0.219 HD
ENDBRANCH  24  33
ENDBRANCH   2  23
BRANCH   1  35
HETATM   35  C   UNK N   1      38.111  13.932   9.552  0.00  0.00     0.198 C 
BRANCH  35  36
HETATM   36  O   UNK N   1      39.066  13.798  10.565  0.00  0.00    -0.398 OA
HETATM   37  H   UNK N   1      39.703  14.119  11.221  0.00  0.00     0.209 HD
ENDBRANCH  35  36
ENDBRANCH   1  35
TORSDOF 11
ENDMDL
MODEL 5
REMARK VINA RESULT:      -5.8      4.405      8.812
REMARK  11 active torsions:
REMARK  status: ('A' for Active; 'I' for Inactive)
REMARK    1  A    between atoms: C_5  and  C_1 
REMARK    2  A    between atoms: O_25  and  C_1 
REMARK    3  A    between atoms: C_6  and  C_2 
REMARK    4  A    between atoms: O_26  and  C_2 
REMARK    5  A    between atoms: C_12  and  C_5 
REMARK    6  A    between atoms: C_5  and  N_14 
REMARK    7  A    between atoms: C_7  and  N_22 
REMARK    8  A    between atoms: C_9  and  O_27 
REMARK    9  A    between atoms: N_15  and  C_10 
REMARK   10  A    between atoms: C_12  and  O_28 
REMARK   11  A    between atoms: C_13  and  N_24 
ROOT
HETATM    1  C   UNK N   1      29.735  17.736   8.665  0.00  0.00     0.173 C 
HETATM    2  C   UNK N   1      29.543  17.326   7.203  0.00  0.00     0.147 C 
HETATM    3  C   UNK N   1      30.985  17.236   6.731  0.00  0.00     0.192 C 
HETATM    4  C   UNK N   1      31.775  17.160   8.049  0.00  0.00     0.261 C 
HETATM    5  O   UNK N   1      30.842  16.963   9.089  0.00  0.00    -0.354 OA
ENDROOT
BRANCH   4   6
HETATM    6  N   UNK N   1      32.858  16.172   8.040  0.00  0.00    -0.297 N 
HETATM    7  C   UNK N   1      32.994  15.074   7.250  0.00  0.00     0.188 A 
HETATM    8  N   UNK N   1      34.104  14.354   7.591  0.00  0.00    -0.346 N 
HETATM    9  C   UNK N   1      34.645  15.041   8.614  0.00  0.00     0.122 A 
ATOM     10  HN  UNK N   1      34.444  13.491   7.167  1.00  0.00     0.167 HD
HETATM   11  C   UNK N   1      35.773  14.772   9.379  0.00  0.00     0.131 A 
HETATM   12  C   UNK N   1      33.902  16.132   8.876  0.00  0.00     0.142 A 
HETATM   13  N   UNK N   1      36.096  15.650  10.375  0.00  0.00    -0.337 N 
HETATM   14  C   UNK N   1      35.326  16.763  10.614  0.00  0.00     0.183 A 
ATOM     15  HN  UNK N   1      36.922  15.477  10.948  1.00  0.00     0.168 HD
HETATM   16  N   UNK N   1      34.208  17.007   9.863  0.00  0.00    -0.336 N 
ATOM     17  HN  UNK N   1      33.623  17.823  10.042  1.00  0.00     0.168 HD
BRANCH  11  18
HETATM   18  N   UNK N   1      36.557  13.622   9.153  0.00  0.00    -0.383 N 
HETATM   19  H   UNK N   1      36.810  13.009   9.881  0.00  0.00     0.157 HD
HETATM   20  H   UNK N   1      36.862  13.427   8.238  0.00  0.00     0.157 HD
ENDBRANCH  11  18
ENDBRANCH   4   6
BRANCH   3  21
HETATM   21  O   UNK N   1      31.148  16.116   5.911  0.00  0.00    -0.389 OA
HETATM   22  H   UNK N   1      30.822  15.290   5.521  0.00  0.00     0.210 HD
ENDBRANCH   3  21
BRANCH   2  23
HETATM   23  N   UNK N   1      28.793  18.204   6.315  0.00  0.00    -0.363 N 
HETATM   24  C   UNK N   1      27.548  18.106   5.984  0.00  0.00     0.136 C 
ATOM     25  HN  UNK N   1      29.309  18.984   5.908  1.00  0.00     0.162 HD
BRANCH  24  26
HETATM   26  C   UNK N   1      27.001  19.047   4.937  0.00  0.00     0.173 C 
BRANCH  26  27
HETATM   27  C   UNK N   1      26.222  20.222   5.525  0.00  0.00     0.197 C 
BRANCH  27  28
HETATM   28  O   UNK N   1      26.390  20.290   6.909  0.00  0.00    -0.398 OA
HETATM   29  H   UNK N   1      26.701  20.755   7.703  0.00  0.00     0.209 HD
ENDBRANCH  27  28
ENDBRANCH  26  27
BRANCH  26  30
HETATM   30  N   UNK N   1      28.073  19.547   4.092  0.00  0.00    -0.418 N 
HETATM   31  H   UNK N   1      28.718  19.286   3.345  0.00  0.00     0.150 HD
HETATM   32  H   UNK N   1      28.247  20.521   4.339  0.00  0.00     0.150 HD
ENDBRANCH  26  30
ENDBRANCH  24  26
BRANCH  24  33
HETATM   33  O   UNK N   1      26.755  17.161   6.527  0.00  0.00    -0.348 OA
HETATM   34  H   UNK N   1      26.510  16.408   6.026  0.00  0.00     0.219 HD
ENDBRANCH  24  33
ENDBRANCH   2  23
BRANCH   1  35
HETATM   35  C   UNK N   1      28.531  17.468   9.567  0.00  0.00     0.198 C 
BRANCH  35  36
HETATM   36  O   UNK N   1      27.479  18.344   9.283  0.00  0.00    -0.398 OA
HETATM   37  H   UNK N   1      26.574  18.684   9.354  0.00  0.00     0.209 HD
ENDBRANCH  35  36
ENDBRANCH   1  35
TORSDOF 11
ENDMDL
MODEL 6
REMARK VINA RESULT:      -5.7      4.200      7.146
REMARK  11 active torsions:
REMARK  status: ('A' for Active; 'I' for Inactive)
REMARK    1  A    between atoms: C_5  and  C_1 
REMARK    2  A    between atoms: O_25  and  C_1 
REMARK    3  A    between atoms: C_6  and  C_2 
REMARK    4  A    between atoms: O_26  and  C_2 
REMARK    5  A    between atoms: C_12  and  C_5 
REMARK    6  A    between atoms: C_5  and  N_14 
REMARK    7  A    between atoms: C_7  and  N_22 
REMARK    8  A    between atoms: C_9  and  O_27 
REMARK    9  A    between atoms: N_15  and  C_10 
REMARK   10  A    between atoms: C_12  and  O_28 
REMARK   11  A    between atoms: C_13  and  N_24 
ROOT
HETATM    1  C   UNK N   1      31.417  15.166   5.590  0.00  0.00     0.173 C 
HETATM    2  C   UNK N   1      31.504  15.880   6.942  0.00  0.00     0.147 C 
HETATM    3  C   UNK N   1      30.548  17.040   6.724  0.00  0.00     0.192 C 
HETATM    4  C   UNK N   1      29.733  16.590   5.500  0.00  0.00     0.261 C 
HETATM    5  O   UNK N   1      30.042  15.233   5.263  0.00  0.00    -0.354 OA
ENDROOT
BRANCH   4   6
HETATM    6  N   UNK N   1      28.294  16.851   5.611  0.00  0.00    -0.297 N 
HETATM    7  C   UNK N   1      27.339  16.085   6.202  0.00  0.00     0.188 A 
HETATM    8  N   UNK N   1      26.097  16.627   6.034  0.00  0.00    -0.346 N 
HETATM    9  C   UNK N   1      26.315  17.748   5.322  0.00  0.00     0.122 A 
ATOM     10  HN  UNK N   1      25.205  16.263   6.371  1.00  0.00     0.167 HD
HETATM   11  C   UNK N   1      25.420  18.692   4.837  0.00  0.00     0.131 A 
HETATM   12  C   UNK N   1      27.632  17.883   5.076  0.00  0.00     0.142 A 
HETATM   13  N   UNK N   1      25.923  19.747   4.129  0.00  0.00    -0.337 N 
HETATM   14  C   UNK N   1      27.273  19.867   3.901  0.00  0.00     0.183 A 
ATOM     15  HN  UNK N   1      25.286  20.456   3.764  1.00  0.00     0.168 HD
HETATM   16  N   UNK N   1      28.142  18.922   4.372  0.00  0.00    -0.336 N 
ATOM     17  HN  UNK N   1      29.144  18.994   4.197  1.00  0.00     0.168 HD
BRANCH  11  18
HETATM   18  N   UNK N   1      24.032  18.565   5.048  0.00  0.00    -0.383 N 
HETATM   19  H   UNK N   1      23.371  18.825   4.365  0.00  0.00     0.157 HD
HETATM   20  H   UNK N   1      23.713  18.206   5.907  0.00  0.00     0.157 HD
ENDBRANCH  11  18
ENDBRANCH   4   6
BRANCH   3  21
HETATM   21  O   UNK N   1      29.776  17.241   7.872  0.00  0.00    -0.389 OA
HETATM   22  H   UNK N   1      28.972  17.095   8.395  0.00  0.00     0.210 HD
ENDBRANCH   3  21
BRANCH   2  23
HETATM   23  N   UNK N   1      32.794  16.388   7.390  0.00  0.00    -0.363 N 
HETATM   24  C   UNK N   1      33.258  16.394   8.596  0.00  0.00     0.136 C 
ATOM     25  HN  UNK N   1      33.399  16.785   6.671  1.00  0.00     0.162 HD
BRANCH  24  26
HETATM   26  C   UNK N   1      34.567  17.097   8.865  0.00  0.00     0.173 C 
BRANCH  26  27
HETATM   27  C   UNK N   1      34.633  18.503   8.272  0.00  0.00     0.197 C 
BRANCH  27  28
HETATM   28  O   UNK N   1      35.605  19.271   8.916  0.00  0.00    -0.398 OA
HETATM   29  H   UNK N   1      35.962  20.134   9.185  0.00  0.00     0.209 HD
ENDBRANCH  27  28
ENDBRANCH  26  27
BRANCH  26  30
HETATM   30  N   UNK N   1      34.828  17.158  10.294  0.00  0.00    -0.418 N 
HETATM   31  H   UNK N   1      34.687  17.727  11.129  0.00  0.00     0.150 HD
HETATM   32  H   UNK N   1      35.345  16.321  10.562  0.00  0.00     0.150 HD
ENDBRANCH  26  30
ENDBRANCH  24  26
BRANCH  24  33
HETATM   33  O   UNK N   1      32.575  15.822   9.608  0.00  0.00    -0.348 OA
HETATM   34  H   UNK N   1      31.931  16.315  10.078  0.00  0.00     0.219 HD
ENDBRANCH  24  33
ENDBRANCH   2  23
BRANCH   1  35
HETATM   35  C   UNK N   1      31.883  13.711   5.605  0.00  0.00     0.198 C 
BRANCH  35  36
HETATM   36  O   UNK N   1      32.282  13.318   6.885  0.00  0.00    -0.398 OA
HETATM   37  H   UNK N   1      32.445  13.443   7.833  0.00  0.00     0.209 HD
ENDBRANCH  35  36
ENDBRANCH   1  35
TORSDOF 11
ENDMDL
MODEL 7
REMARK VINA RESULT:      -5.7     12.614     15.804
REMARK  11 active torsions:
REMARK  status: ('A' for Active; 'I' for Inactive)
REMARK    1  A    between atoms: C_5  and  C_1 
REMARK    2  A    between atoms: O_25  and  C_1 
REMARK    3  A    between atoms: C_6  and  C_2 
REMARK    4  A    between atoms: O_26  and  C_2 
REMARK    5  A    between atoms: C_12  and  C_5 
REMARK    6  A    between atoms: C_5  and  N_14 
REMARK    7  A    between atoms: C_7  and  N_22 
REMARK    8  A    between atoms: C_9  and  O_27 
REMARK    9  A    between atoms: N_15  and  C_10 
REMARK   10  A    between atoms: C_12  and  O_28 
REMARK   11  A    between atoms: C_13  and  N_24 
ROOT
HETATM    1  C   UNK N   1      21.761  16.826   5.785  0.00  0.00     0.173 C 
HETATM    2  C   UNK N   1      20.746  15.910   5.097  0.00  0.00     0.147 C 
HETATM    3  C   UNK N   1      21.003  14.596   5.815  0.00  0.00     0.192 C 
HETATM    4  C   UNK N   1      21.770  15.035   7.073  0.00  0.00     0.261 C 
HETATM    5  O   UNK N   1      21.694  16.442   7.145  0.00  0.00    -0.354 OA
ENDROOT
BRANCH   4   6
HETATM    6  N   UNK N   1      21.337  14.363   8.302  0.00  0.00    -0.297 N 
HETATM    7  C   UNK N   1      20.304  14.687   9.124  0.00  0.00     0.188 A 
HETATM    8  N   UNK N   1      20.263  13.866  10.215  0.00  0.00    -0.346 N 
HETATM    9  C   UNK N   1      21.301  13.026  10.039  0.00  0.00     0.122 A 
ATOM     10  HN  UNK N   1      19.597  13.885  10.987  1.00  0.00     0.167 HD
HETATM   11  C   UNK N   1      21.764  11.992  10.842  0.00  0.00     0.131 A 
HETATM   12  C   UNK N   1      21.937  13.321   8.891  0.00  0.00     0.142 A 
HETATM   13  N   UNK N   1      22.860  11.294  10.418  0.00  0.00    -0.337 N 
HETATM   14  C   UNK N   1      23.485  11.609   9.235  0.00  0.00     0.183 A 
ATOM     15  HN  UNK N   1      23.218  10.527  10.987  1.00  0.00     0.168 HD
HETATM   16  N   UNK N   1      23.027  12.640   8.461  0.00  0.00    -0.336 N 
ATOM     17  HN  UNK N   1      23.492  12.890   7.589  1.00  0.00     0.168 HD
BRANCH  11  18
HETATM   18  N   UNK N   1      21.142  11.677  12.067  0.00  0.00    -0.383 N 
HETATM   19  H   UNK N   1      20.860  12.370  12.706  0.00  0.00     0.157 HD
HETATM   20  H   UNK N   1      20.985  10.731  12.290  0.00  0.00     0.157 HD
ENDBRANCH  11  18
ENDBRANCH   4   6
BRANCH   3  21
HETATM   21  O   UNK N   1      19.789  13.959   6.089  0.00  0.00    -0.389 OA
HETATM   22  H   UNK N   1      18.921  13.625   5.816  0.00  0.00     0.210 HD
ENDBRANCH   3  21
BRANCH   2  23
HETATM   23  N   UNK N   1      20.840  15.707   3.657  0.00  0.00    -0.363 N 
HETATM   24  C   UNK N   1      19.981  15.120   2.891  0.00  0.00     0.136 C 
ATOM     25  HN  UNK N   1      21.679  16.067   3.203  1.00  0.00     0.162 HD
BRANCH  24  26
HETATM   26  C   UNK N   1      20.340  14.893   1.442  0.00  0.00     0.173 C 
BRANCH  26  27
HETATM   27  C   UNK N   1      19.407  13.914   0.732  0.00  0.00     0.197 C 
BRANCH  27  28
HETATM   28  O   UNK N   1      18.093  14.388   0.730  0.00  0.00    -0.398 OA
HETATM   29  H   UNK N   1      17.438  15.067   0.499  0.00  0.00     0.209 HD
ENDBRANCH  27  28
ENDBRANCH  26  27
BRANCH  26  30
HETATM   30  N   UNK N   1      20.361  16.155   0.720  0.00  0.00    -0.418 N 
HETATM   31  H   UNK N   1      19.988  17.105   0.717  0.00  0.00     0.150 HD
HETATM   32  H   UNK N   1      20.981  16.053  -0.085  0.00  0.00     0.150 HD
ENDBRANCH  26  30
ENDBRANCH  24  26
BRANCH  24  33
HETATM   33  O   UNK N   1      18.802  14.678   3.375  0.00  0.00    -0.348 OA
HETATM   34  H   UNK N   1      18.765  13.880   3.864  0.00  0.00     0.219 HD
ENDBRANCH  24  33
ENDBRANCH   2  23
BRANCH   1  35
HETATM   35  C   UNK N   1      21.470  18.320   5.646  0.00  0.00     0.198 C 
BRANCH  35  36
HETATM   36  O   UNK N   1      21.039  18.868   6.858  0.00  0.00    -0.398 OA
HETATM   37  H   UNK N   1      20.397  19.274   7.461  0.00  0.00     0.209 HD
ENDBRANCH  35  36
ENDBRANCH   1  35
TORSDOF 11
ENDMDL
MODEL 8
REMARK VINA RESULT:      -5.6      4.067      8.809
REMARK  11 active torsions:
REMARK  status: ('A' for Active; 'I' for Inactive)
REMARK    1  A    between atoms: C_5  and  C_1 
REMARK    2  A    between atoms: O_25  and  C_1 
REMARK    3  A    between atoms: C_6  and  C_2 
REMARK    4  A    between atoms: O_26  and  C_2 
REMARK    5  A    between atoms: C_12  and  C_5 
REMARK    6  A    between atoms: C_5  and  N_14 
REMARK    7  A    between atoms: C_7  and  N_22 
REMARK    8  A    between atoms: C_9  and  O_27 
REMARK    9  A    between atoms: N_15  and  C_10 
REMARK   10  A    between atoms: C_12  and  O_28 
REMARK   11  A    between atoms: C_13  and  N_24 
ROOT
HETATM    1  C   UNK N   1      34.556  11.761  13.437  0.00  0.00     0.173 C 
HETATM    2  C   UNK N   1      35.919  12.452  13.353  0.00  0.00     0.147 C 
HETATM    3  C   UNK N   1      35.860  13.365  14.566  0.00  0.00     0.192 C 
HETATM    4  C   UNK N   1      34.717  12.760  15.398  0.00  0.00     0.261 C 
HETATM    5  O   UNK N   1      34.387  11.515  14.820  0.00  0.00    -0.354 OA
ENDROOT
BRANCH   4   6
HETATM    6  N   UNK N   1      34.999  12.682  16.835  0.00  0.00    -0.297 N 
HETATM    7  C   UNK N   1      34.966  13.679  17.758  0.00  0.00     0.188 A 
HETATM    8  N   UNK N   1      35.366  13.230  18.985  0.00  0.00    -0.346 N 
HETATM    9  C   UNK N   1      35.646  11.928  18.789  0.00  0.00     0.122 A 
ATOM     10  HN  UNK N   1      35.437  13.762  19.852  1.00  0.00     0.167 HD
HETATM   11  C   UNK N   1      36.117  10.968  19.674  0.00  0.00     0.131 A 
HETATM   12  C   UNK N   1      35.419  11.601  17.503  0.00  0.00     0.142 A 
HETATM   13  N   UNK N   1      36.322   9.703  19.199  0.00  0.00    -0.337 N 
HETATM   14  C   UNK N   1      36.072   9.393  17.883  0.00  0.00     0.183 A 
ATOM     15  HN  UNK N   1      36.665   8.979  19.830  1.00  0.00     0.168 HD
HETATM   16  N   UNK N   1      35.622  10.352  17.018  0.00  0.00    -0.336 N 
ATOM     17  HN  UNK N   1      35.446  10.136  16.037  1.00  0.00     0.168 HD
BRANCH  11  18
HETATM   18  N   UNK N   1      36.397  11.283  21.020  0.00  0.00    -0.383 N 
HETATM   19  H   UNK N   1      36.787  12.147  21.286  0.00  0.00     0.157 HD
HETATM   20  H   UNK N   1      36.196  10.616  21.715  0.00  0.00     0.157 HD
ENDBRANCH  11  18
ENDBRANCH   4   6
BRANCH   3  21
HETATM   21  O   UNK N   1      37.095  13.364  15.222  0.00  0.00    -0.389 OA
HETATM   22  H   UNK N   1      37.679  13.071  15.939  0.00  0.00     0.210 HD
ENDBRANCH   3  21
BRANCH   2  23
HETATM   23  N   UNK N   1      36.242  13.235  12.168  0.00  0.00    -0.363 N 
HETATM   24  C   UNK N   1      36.930  12.856  11.142  0.00  0.00     0.136 C 
ATOM     25  HN  UNK N   1      35.886  14.191  12.146  1.00  0.00     0.162 HD
BRANCH  24  26
HETATM   26  C   UNK N   1      37.265  13.876  10.079  0.00  0.00     0.173 C 
BRANCH  26  27
HETATM   27  C   UNK N   1      36.387  15.124  10.138  0.00  0.00     0.197 C 
BRANCH  27  28
HETATM   28  O   UNK N   1      36.962  16.101  10.953  0.00  0.00    -0.398 OA
HETATM   29  H   UNK N   1      37.644  16.773  11.118  0.00  0.00     0.209 HD
ENDBRANCH  27  28
ENDBRANCH  26  27
BRANCH  26  30
HETATM   30  N   UNK N   1      38.665  14.260  10.166  0.00  0.00    -0.418 N 
HETATM   31  H   UNK N   1      39.601  13.907  10.365  0.00  0.00     0.150 HD
HETATM   32  H   UNK N   1      38.738  15.254   9.948  0.00  0.00     0.150 HD
ENDBRANCH  26  30
ENDBRANCH  24  26
BRANCH  24  33
HETATM   33  O   UNK N   1      37.379  11.590  11.033  0.00  0.00    -0.348 OA
HETATM   34  H   UNK N   1      38.299  11.415  11.045  0.00  0.00     0.219 HD
ENDBRANCH  24  33
ENDBRANCH   2  23
BRANCH   1  35
HETATM   35  C   UNK N   1      34.455  10.451  12.656  0.00  0.00     0.198 C 
BRANCH  35  36
HETATM   36  O   UNK N   1      33.419  10.498  11.718  0.00  0.00    -0.398 OA
HETATM   37  H   UNK N   1      32.503  10.406  11.414  0.00  0.00     0.209 HD
ENDBRANCH  35  36
ENDBRANCH   1  35
TORSDOF 11
ENDMDL
MODEL 9
REMARK VINA RESULT:      -5.5      2.451      7.400
REMARK  11 active torsions:
REMARK  status: ('A' for Active; 'I' for Inactive)
REMARK    1  A    between atoms: C_5  and  C_1 
REMARK    2  A    between atoms: O_25  and  C_1 
REMARK    3  A    between atoms: C_6  and  C_2 
REMARK    4  A    between atoms: O_26  and  C_2 
REMARK    5  A    between atoms: C_12  and  C_5 
REMARK    6  A    between atoms: C_5  and  N_14 
REMARK    7  A    between atoms: C_7  and  N_22 
REMARK    8  A    between atoms: C_9  and  O_27 
REMARK    9  A    between atoms: N_15  and  C_10 
REMARK   10  A    between atoms: C_12  and  O_28 
REMARK   11  A    between atoms: C_13  and  N_24 
ROOT
HETATM    1  C   UNK N   1      35.293  14.311   7.768  0.00  0.00     0.173 C 
HETATM    2  C   UNK N   1      34.529  15.611   8.029  0.00  0.00     0.147 C 
HETATM    3  C   UNK N   1      33.998  15.364   9.431  0.00  0.00     0.192 C 
HETATM    4  C   UNK N   1      34.878  14.206   9.933  0.00  0.00     0.261 C 
HETATM    5  O   UNK N   1      35.927  14.039   9.003  0.00  0.00    -0.354 OA
ENDROOT
BRANCH   4   6
HETATM    6  N   UNK N   1      35.340  14.362  11.315  0.00  0.00    -0.297 N 
HETATM    7  C   UNK N   1      36.089  15.365  11.848  0.00  0.00     0.188 A 
HETATM    8  N   UNK N   1      36.383  15.119  13.159  0.00  0.00    -0.346 N 
HETATM    9  C   UNK N   1      35.794  13.937  13.417  0.00  0.00     0.122 A 
ATOM     10  HN  UNK N   1      36.926  15.700  13.797  1.00  0.00     0.167 HD
HETATM   11  C   UNK N   1      35.773  13.179  14.580  0.00  0.00     0.131 A 
HETATM   12  C   UNK N   1      35.165  13.489  12.314  0.00  0.00     0.142 A 
HETATM   13  N   UNK N   1      35.091  11.995  14.562  0.00  0.00    -0.337 N 
HETATM   14  C   UNK N   1      34.448  11.566  13.425  0.00  0.00     0.183 A 
ATOM     15  HN  UNK N   1      35.058  11.421  15.405  1.00  0.00     0.168 HD
HETATM   16  N   UNK N   1      34.489  12.316  12.281  0.00  0.00    -0.336 N 
ATOM     17  HN  UNK N   1      34.027  12.000  11.429  1.00  0.00     0.168 HD
BRANCH  11  18
HETATM   18  N   UNK N   1      36.448  13.601  15.744  0.00  0.00    -0.383 N 
HETATM   19  H   UNK N   1      36.599  14.553  15.947  0.00  0.00     0.157 HD
HETATM   20  H   UNK N   1      36.781  12.921  16.373  0.00  0.00     0.157 HD
ENDBRANCH  11  18
ENDBRANCH   4   6
BRANCH   3  21
HETATM   21  O   UNK N   1      34.114  16.529  10.195  0.00  0.00    -0.389 OA
HETATM   22  H   UNK N   1      34.591  17.094  10.822  0.00  0.00     0.210 HD
ENDBRANCH   3  21
BRANCH   2  23
HETATM   23  N   UNK N   1      33.427  15.972   7.147  0.00  0.00    -0.363 N 
HETATM   24  C   UNK N   1      33.328  17.028   6.407  0.00  0.00     0.136 C 
ATOM     25  HN  UNK N   1      32.644  15.319   7.110  1.00  0.00     0.162 HD
BRANCH  24  26
HETATM   26  C   UNK N   1      32.033  17.277   5.671  0.00  0.00     0.173 C 
BRANCH  26  27
HETATM   27  C   UNK N   1      32.068  16.822   4.213  0.00  0.00     0.197 C 
BRANCH  27  28
HETATM   28  O   UNK N   1      33.254  16.142   3.930  0.00  0.00    -0.398 OA
HETATM   29  H   UNK N   1      33.884  15.426   4.112  0.00  0.00     0.209 HD
ENDBRANCH  27  28
ENDBRANCH  26  27
BRANCH  26  30
HETATM   30  N   UNK N   1      30.926  16.630   6.356  0.00  0.00    -0.418 N 
HETATM   31  H   UNK N   1      30.497  15.724   6.548  0.00  0.00     0.150 HD
HETATM   32  H   UNK N   1      30.369  17.351   6.817  0.00  0.00     0.150 HD
ENDBRANCH  26  30
ENDBRANCH  24  26
BRANCH  24  33
HETATM   33  O   UNK N   1      34.339  17.915   6.321  0.00  0.00    -0.348 OA
HETATM   34  H   UNK N   1      34.315  18.705   6.824  0.00  0.00     0.219 HD
ENDBRANCH  24  33
ENDBRANCH   2  23
BRANCH   1  35
HETATM   35  C   UNK N   1      36.333  14.394   6.651  0.00  0.00     0.198 C 
BRANCH  35  36
HETATM   36  O   UNK N   1      35.938  15.290   5.654  0.00  0.00    -0.398 OA
HETATM   37  H   UNK N   1      35.479  16.068   5.303  0.00  0.00     0.209 HD
ENDBRANCH  35  36
ENDBRANCH   1  35
TORSDOF 11
ENDMDL
