MODEL 1
REMARK VINA RESULT:      -5.8      0.000      0.000
REMARK  13 active torsions:
REMARK  status: ('A' for Active; 'I' for Inactive)
REMARK    1  A    between atoms: O_1  and  C_2 
REMARK    2  A    between atoms: C_2  and  C_3 
REMARK    3  A    between atoms: C_3  and  C_5 
REMARK    4  A    between atoms: C_5  and  O_6 
REMARK    5  A    between atoms: C_5  and  C_7 
REMARK    6  A    between atoms: C_7  and  O_8 
REMARK    7  A    between atoms: C_7  and  C_9 
REMARK    8  A    between atoms: C_9  and  O_10 
REMARK    9  A    between atoms: C_9  and  C_11 
REMARK   10  A    between atoms: C_11  and  O_12 
REMARK   11  A    between atoms: O_12  and  P_13 
REMARK   12  A    between atoms: P_13  and  O_14 
REMARK   13  A    between atoms: P_13  and  O_15 
ROOT
HETATM    1  C   UNK N   1      35.194  14.803  11.815  0.00  0.00     0.185 C 
ENDROOT
BRANCH   1   2
HETATM    2  C   UNK N   1      35.898  13.582  12.435  0.00  0.00     0.221 C 
BRANCH   2   3
HETATM    3  C   UNK N   1      35.621  13.375  13.910  0.00  0.00     0.181 C 
HETATM    4  O   UNK N   1      34.495  13.103  14.297  0.00  0.00    -0.293 OA
BRANCH   3   5
HETATM    5  C   UNK N   1      36.721  13.487  14.927  0.00  0.00     0.245 C 
BRANCH   5   6
HETATM    6  O   UNK N   1      37.194  14.797  15.039  0.00  0.00    -0.393 OA
HETATM    7  H   UNK N   1      37.034  15.355  15.816  0.00  0.00     0.209 HD
ENDBRANCH   5   6
ENDBRANCH   3   5
ENDBRANCH   2   3
BRANCH   2   8
HETATM    8  O   UNK N   1      37.277  13.709  12.246  0.00  0.00    -0.385 OA
HETATM    9  H   UNK N   1      38.036  13.225  12.606  0.00  0.00     0.210 HD
ENDBRANCH   2   8
ENDBRANCH   1   2
BRANCH   1  10
HETATM   10  O   UNK N   1      33.866  14.504  11.506  0.00  0.00    -0.390 OA
HETATM   11  H   UNK N   1      33.157  14.224  12.106  0.00  0.00     0.210 HD
ENDBRANCH   1  10
BRANCH   1  12
HETATM   12  C   UNK N   1      35.863  15.336  10.536  0.00  0.00     0.174 C 
BRANCH  12  13
HETATM   13  O   UNK N   1      36.916  16.219  10.787  0.00  0.00    -0.391 OA
HETATM   14  H   UNK N   1      37.420  16.654  10.082  0.00  0.00     0.210 HD
ENDBRANCH  12  13
BRANCH  12  15
HETATM   15  C   UNK N   1      34.870  15.981   9.572  0.00  0.00     0.215 C 
BRANCH  15  16
HETATM   16  O   UNK N   1      34.939  17.385   9.581  0.00  0.00    -0.294 OA
BRANCH  16  17
HETATM   17  P   UNK N   1      33.932  17.955   8.275  0.00  0.00     0.390 P 
HETATM   18  O   UNK N   1      35.036  19.044   8.371  0.00  0.00    -0.632 OA
BRANCH  17  19
HETATM   19  O   UNK N   1      34.546  18.053   6.655  0.00  0.00    -0.307 OA
HETATM   20  H   UNK N   1      35.235  17.456   6.323  0.00  0.00     0.222 HD
ENDBRANCH  17  19
BRANCH  17  21
HETATM   21  O   UNK N   1      34.639  16.444   7.787  0.00  0.00    -0.307 OA
HETATM   22  H   UNK N   1      34.302  15.560   7.573  0.00  0.00     0.222 HD
ENDBRANCH  17  21
ENDBRANCH  16  17
ENDBRANCH  15  16
ENDBRANCH  12  15
ENDBRANCH   1  12
TORSDOF 13
ENDMDL
MODEL 2
REMARK VINA RESULT:      -5.5      1.458      2.103
REMARK  13 active torsions:
REMARK  status: ('A' for Active; 'I' for Inactive)
REMARK    1  A    between atoms: O_1  and  C_2 
REMARK    2  A    between atoms: C_2  and  C_3 
REMARK    3  A    between atoms: C_3  and  C_5 
REMARK    4  A    between atoms: C_5  and  O_6 
REMARK    5  A    between atoms: C_5  and  C_7 
REMARK    6  A    between atoms: C_7  and  O_8 
REMARK    7  A    between atoms: C_7  and  C_9 
REMARK    8  A    between atoms: C_9  and  O_10 
REMARK    9  A    between atoms: C_9  and  C_11 
REMARK   10  A    between atoms: C_11  and  O_12 
REMARK   11  A    between atoms: O_12  and  P_13 
REMARK   12  A    between atoms: P_13  and  O_14 
REMARK   13  A    between atoms: P_13  and  O_15 
ROOT
HETATM    1  C   UNK N   1      35.307  14.720  11.950  0.00  0.00     0.185 C 
ENDROOT
BRANCH   1   2
HETATM    2  C   UNK N   1      35.999  13.474  12.533  0.00  0.00     0.221 C 
BRANCH   2   3
HETATM    3  C   UNK N   1      35.737  13.236  14.006  0.00  0.00     0.181 C 
HETATM    4  O   UNK N   1      34.594  13.234  14.439  0.00  0.00    -0.293 OA
BRANCH   3   5
HETATM    5  C   UNK N   1      36.866  12.985  14.963  0.00  0.00     0.245 C 
BRANCH   5   6
HETATM    6  O   UNK N   1      37.553  14.161  15.275  0.00  0.00    -0.393 OA
HETATM    7  H   UNK N   1      37.909  14.763  14.604  0.00  0.00     0.209 HD
ENDBRANCH   5   6
ENDBRANCH   3   5
ENDBRANCH   2   3
BRANCH   2   8
HETATM    8  O   UNK N   1      37.378  13.585  12.330  0.00  0.00    -0.385 OA
HETATM    9  H   UNK N   1      37.989  13.145  11.718  0.00  0.00     0.210 HD
ENDBRANCH   2   8
ENDBRANCH   1   2
BRANCH   1  10
HETATM   10  O   UNK N   1      33.966  14.454  11.668  0.00  0.00    -0.390 OA
HETATM   11  H   UNK N   1      33.342  14.989  11.152  0.00  0.00     0.210 HD
ENDBRANCH   1  10
BRANCH   1  12
HETATM   12  C   UNK N   1      35.957  15.261  10.665  0.00  0.00     0.174 C 
BRANCH  12  13
HETATM   13  O   UNK N   1      37.087  16.047  10.903  0.00  0.00    -0.391 OA
HETATM   14  H   UNK N   1      37.709  16.303  10.205  0.00  0.00     0.210 HD
ENDBRANCH  12  13
BRANCH  12  15
HETATM   15  C   UNK N   1      34.975  16.027   9.781  0.00  0.00     0.215 C 
BRANCH  15  16
HETATM   16  O   UNK N   1      34.597  15.304   8.636  0.00  0.00    -0.294 OA
BRANCH  16  17
HETATM   17  P   UNK N   1      32.880  15.531   8.431  0.00  0.00     0.390 P 
HETATM   18  O   UNK N   1      32.977  14.105   9.038  0.00  0.00    -0.632 OA
BRANCH  17  19
HETATM   19  O   UNK N   1      31.821  15.603   9.804  0.00  0.00    -0.307 OA
HETATM   20  H   UNK N   1      31.072  14.996   9.916  0.00  0.00     0.222 HD
ENDBRANCH  17  19
BRANCH  17  21
HETATM   21  O   UNK N   1      33.441  16.701   9.588  0.00  0.00    -0.307 OA
HETATM   22  H   UNK N   1      34.249  16.825  10.110  0.00  0.00     0.222 HD
ENDBRANCH  17  21
ENDBRANCH  16  17
ENDBRANCH  15  16
ENDBRANCH  12  15
ENDBRANCH   1  12
TORSDOF 13
ENDMDL
MODEL 3
REMARK VINA RESULT:      -5.4      2.460      6.234
REMARK  13 active torsions:
REMARK  status: ('A' for Active; 'I' for Inactive)
REMARK    1  A    between atoms: O_1  and  C_2 
REMARK    2  A    between atoms: C_2  and  C_3 
REMARK    3  A    between atoms: C_3  and  C_5 
REMARK    4  A    between atoms: C_5  and  O_6 
REMARK    5  A    between atoms: C_5  and  C_7 
REMARK    6  A    between atoms: C_7  and  O_8 
REMARK    7  A    between atoms: C_7  and  C_9 
REMARK    8  A    between atoms: C_9  and  O_10 
REMARK    9  A    between atoms: C_9  and  C_11 
REMARK   10  A    between atoms: C_11  and  O_12 
REMARK   11  A    between atoms: O_12  and  P_13 
REMARK   12  A    between atoms: P_13  and  O_14 
REMARK   13  A    between atoms: P_13  and  O_15 
ROOT
HETATM    1  C   UNK N   1      35.080  16.256  10.156  0.00  0.00     0.185 C 
ENDROOT
BRANCH   1   2
HETATM    2  C   UNK N   1      34.925  16.619   8.667  0.00  0.00     0.221 C 
BRANCH   2   3
HETATM    3  C   UNK N   1      34.310  17.980   8.410  0.00  0.00     0.181 C 
HETATM    4  O   UNK N   1      35.007  18.983   8.397  0.00  0.00    -0.293 OA
BRANCH   3   5
HETATM    5  C   UNK N   1      32.837  18.127   8.154  0.00  0.00     0.245 C 
BRANCH   5   6
HETATM    6  O   UNK N   1      32.074  17.418   9.085  0.00  0.00    -0.393 OA
HETATM    7  H   UNK N   1      31.804  16.495   8.958  0.00  0.00     0.209 HD
ENDBRANCH   5   6
ENDBRANCH   3   5
ENDBRANCH   2   3
BRANCH   2   8
HETATM    8  O   UNK N   1      34.145  15.643   8.041  0.00  0.00    -0.385 OA
HETATM    9  H   UNK N   1      33.918  14.731   8.280  0.00  0.00     0.210 HD
ENDBRANCH   2   8
ENDBRANCH   1   2
BRANCH   1  10
HETATM   10  O   UNK N   1      36.428  16.121  10.494  0.00  0.00    -0.390 OA
HETATM   11  H   UNK N   1      36.850  16.265  11.356  0.00  0.00     0.210 HD
ENDBRANCH   1  10
BRANCH   1  12
HETATM   12  C   UNK N   1      34.363  14.958  10.566  0.00  0.00     0.174 C 
BRANCH  12  13
HETATM   13  O   UNK N   1      33.049  15.163  10.996  0.00  0.00    -0.391 OA
HETATM   14  H   UNK N   1      32.294  15.197  10.388  0.00  0.00     0.210 HD
ENDBRANCH  12  13
BRANCH  12  15
HETATM   15  C   UNK N   1      35.130  14.165  11.622  0.00  0.00     0.215 C 
BRANCH  15  16
HETATM   16  O   UNK N   1      35.484  14.945  12.736  0.00  0.00    -0.294 OA
BRANCH  16  17
HETATM   17  P   UNK N   1      36.223  13.873  13.897  0.00  0.00     0.390 P 
HETATM   18  O   UNK N   1      34.819  13.245  13.681  0.00  0.00    -0.632 OA
BRANCH  17  19
HETATM   19  O   UNK N   1      36.576  12.224  13.488  0.00  0.00    -0.307 OA
HETATM   20  H   UNK N   1      36.888  11.961  12.607  0.00  0.00     0.222 HD
ENDBRANCH  17  19
BRANCH  17  21
HETATM   21  O   UNK N   1      37.141  13.781  12.424  0.00  0.00    -0.307 OA
HETATM   22  H   UNK N   1      38.067  13.929  12.176  0.00  0.00     0.222 HD
ENDBRANCH  17  21
ENDBRANCH  16  17
ENDBRANCH  15  16
ENDBRANCH  12  15
ENDBRANCH   1  12
TORSDOF 13
ENDMDL
MODEL 4
REMARK VINA RESULT:      -5.4      2.495      6.218
REMARK  13 active torsions:
REMARK  status: ('A' for Active; 'I' for Inactive)
REMARK    1  A    between atoms: O_1  and  C_2 
REMARK    2  A    between atoms: C_2  and  C_3 
REMARK    3  A    between atoms: C_3  and  C_5 
REMARK    4  A    between atoms: C_5  and  O_6 
REMARK    5  A    between atoms: C_5  and  C_7 
REMARK    6  A    between atoms: C_7  and  O_8 
REMARK    7  A    between atoms: C_7  and  C_9 
REMARK    8  A    between atoms: C_9  and  O_10 
REMARK    9  A    between atoms: C_9  and  C_11 
REMARK   10  A    between atoms: C_11  and  O_12 
REMARK   11  A    between atoms: O_12  and  P_13 
REMARK   12  A    between atoms: P_13  and  O_14 
REMARK   13  A    between atoms: P_13  and  O_15 
ROOT
HETATM    1  C   UNK N   1      34.508  15.141  10.546  0.00  0.00     0.185 C 
ENDROOT
BRANCH   1   2
HETATM    2  C   UNK N   1      34.175  16.201   9.479  0.00  0.00     0.221 C 
BRANCH   2   3
HETATM    3  C   UNK N   1      34.761  15.924   8.110  0.00  0.00     0.181 C 
HETATM    4  O   UNK N   1      35.578  15.028   7.955  0.00  0.00    -0.293 OA
BRANCH   3   5
HETATM    5  C   UNK N   1      34.346  16.730   6.912  0.00  0.00     0.245 C 
BRANCH   5   6
HETATM    6  O   UNK N   1      34.579  18.094   7.098  0.00  0.00    -0.393 OA
HETATM    7  H   UNK N   1      34.620  18.731   6.368  0.00  0.00     0.209 HD
ENDBRANCH   5   6
ENDBRANCH   3   5
ENDBRANCH   2   3
BRANCH   2   8
HETATM    8  O   UNK N   1      34.627  17.447   9.921  0.00  0.00    -0.385 OA
HETATM    9  H   UNK N   1      35.515  17.810  10.065  0.00  0.00     0.210 HD
ENDBRANCH   2   8
ENDBRANCH   1   2
BRANCH   1  10
HETATM   10  O   UNK N   1      33.386  14.857  11.327  0.00  0.00    -0.390 OA
HETATM   11  H   UNK N   1      32.573  14.395  11.066  0.00  0.00     0.210 HD
ENDBRANCH   1  10
BRANCH   1  12
HETATM   12  C   UNK N   1      35.650  15.540  11.496  0.00  0.00     0.174 C 
BRANCH  12  13
HETATM   13  O   UNK N   1      36.779  16.026  10.833  0.00  0.00    -0.391 OA
HETATM   14  H   UNK N   1      37.156  15.598  10.049  0.00  0.00     0.210 HD
ENDBRANCH  12  13
BRANCH  12  15
HETATM   15  C   UNK N   1      36.056  14.411  12.441  0.00  0.00     0.215 C 
BRANCH  15  16
HETATM   16  O   UNK N   1      35.034  14.062  13.341  0.00  0.00    -0.294 OA
BRANCH  16  17
HETATM   17  P   UNK N   1      35.373  12.443  13.897  0.00  0.00     0.390 P 
HETATM   18  O   UNK N   1      34.538  13.047  15.059  0.00  0.00    -0.632 OA
BRANCH  17  19
HETATM   19  O   UNK N   1      34.094  11.291  14.117  0.00  0.00    -0.307 OA
HETATM   20  H   UNK N   1      33.637  11.177  14.966  0.00  0.00     0.222 HD
ENDBRANCH  17  19
BRANCH  17  21
HETATM   21  O   UNK N   1      34.392  12.324  12.467  0.00  0.00    -0.307 OA
HETATM   22  H   UNK N   1      33.505  11.990  12.263  0.00  0.00     0.222 HD
ENDBRANCH  17  21
ENDBRANCH  16  17
ENDBRANCH  15  16
ENDBRANCH  12  15
ENDBRANCH   1  12
TORSDOF 13
ENDMDL
MODEL 5
REMARK VINA RESULT:      -5.2      2.351      5.866
REMARK  13 active torsions:
REMARK  status: ('A' for Active; 'I' for Inactive)
REMARK    1  A    between atoms: O_1  and  C_2 
REMARK    2  A    between atoms: C_2  and  C_3 
REMARK    3  A    between atoms: C_3  and  C_5 
REMARK    4  A    between atoms: C_5  and  O_6 
REMARK    5  A    between atoms: C_5  and  C_7 
REMARK    6  A    between atoms: C_7  and  O_8 
REMARK    7  A    between atoms: C_7  and  C_9 
REMARK    8  A    between atoms: C_9  and  O_10 
REMARK    9  A    between atoms: C_9  and  C_11 
REMARK   10  A    between atoms: C_11  and  O_12 
REMARK   11  A    between atoms: O_12  and  P_13 
REMARK   12  A    between atoms: P_13  and  O_14 
REMARK   13  A    between atoms: P_13  and  O_15 
ROOT
HETATM    1  C   UNK N   1      34.551  15.596  10.429  0.00  0.00     0.185 C 
ENDROOT
BRANCH   1   2
HETATM    2  C   UNK N   1      34.150  16.904   9.722  0.00  0.00     0.221 C 
BRANCH   2   3
HETATM    3  C   UNK N   1      33.491  16.715   8.371  0.00  0.00     0.181 C 
HETATM    4  O   UNK N   1      33.045  15.624   8.046  0.00  0.00    -0.293 OA
BRANCH   3   5
HETATM    5  C   UNK N   1      33.359  17.859   7.407  0.00  0.00     0.245 C 
BRANCH   5   6
HETATM    6  O   UNK N   1      34.486  17.983   6.590  0.00  0.00    -0.393 OA
HETATM    7  H   UNK N   1      35.285  17.444   6.702  0.00  0.00     0.209 HD
ENDBRANCH   5   6
ENDBRANCH   3   5
ENDBRANCH   2   3
BRANCH   2   8
HETATM    8  O   UNK N   1      35.288  17.701   9.564  0.00  0.00    -0.385 OA
HETATM    9  H   UNK N   1      35.611  18.484  10.035  0.00  0.00     0.210 HD
ENDBRANCH   2   8
ENDBRANCH   1   2
BRANCH   1  10
HETATM   10  O   UNK N   1      33.459  15.043  11.101  0.00  0.00    -0.390 OA
HETATM   11  H   UNK N   1      33.286  15.025  12.056  0.00  0.00     0.210 HD
ENDBRANCH   1  10
BRANCH   1  12
HETATM   12  C   UNK N   1      35.695  15.753  11.446  0.00  0.00     0.174 C 
BRANCH  12  13
HETATM   13  O   UNK N   1      36.937  15.991  10.851  0.00  0.00    -0.391 OA
HETATM   14  H   UNK N   1      37.093  16.717  10.228  0.00  0.00     0.210 HD
ENDBRANCH  12  13
BRANCH  12  15
HETATM   15  C   UNK N   1      35.803  14.569  12.404  0.00  0.00     0.215 C 
BRANCH  15  16
HETATM   16  O   UNK N   1      35.454  13.348  11.801  0.00  0.00    -0.294 OA
BRANCH  16  17
HETATM   17  P   UNK N   1      36.914  12.402  11.678  0.00  0.00     0.390 P 
HETATM   18  O   UNK N   1      36.750  12.984  10.248  0.00  0.00    -0.632 OA
BRANCH  17  19
HETATM   19  O   UNK N   1      38.444  13.160  11.373  0.00  0.00    -0.307 OA
HETATM   20  H   UNK N   1      38.728  13.420  10.481  0.00  0.00     0.222 HD
ENDBRANCH  17  19
BRANCH  17  21
HETATM   21  O   UNK N   1      37.204  13.691  12.807  0.00  0.00    -0.307 OA
HETATM   22  H   UNK N   1      36.659  14.362  13.246  0.00  0.00     0.222 HD
ENDBRANCH  17  21
ENDBRANCH  16  17
ENDBRANCH  15  16
ENDBRANCH  12  15
ENDBRANCH   1  12
TORSDOF 13
ENDMDL
MODEL 6
REMARK VINA RESULT:      -4.9      2.768      6.024
REMARK  13 active torsions:
REMARK  status: ('A' for Active; 'I' for Inactive)
REMARK    1  A    between atoms: O_1  and  C_2 
REMARK    2  A    between atoms: C_2  and  C_3 
REMARK    3  A    between atoms: C_3  and  C_5 
REMARK    4  A    between atoms: C_5  and  O_6 
REMARK    5  A    between atoms: C_5  and  C_7 
REMARK    6  A    between atoms: C_7  and  O_8 
REMARK    7  A    between atoms: C_7  and  C_9 
REMARK    8  A    between atoms: C_9  and  O_10 
REMARK    9  A    between atoms: C_9  and  C_11 
REMARK   10  A    between atoms: C_11  and  O_12 
REMARK   11  A    between atoms: O_12  and  P_13 
REMARK   12  A    between atoms: P_13  and  O_14 
REMARK   13  A    between atoms: P_13  and  O_15 
ROOT
HETATM    1  C   UNK N   1      34.586  15.852   9.127  0.00  0.00     0.185 C 
ENDROOT
BRANCH   1   2
HETATM    2  C   UNK N   1      33.067  15.683   8.935  0.00  0.00     0.221 C 
BRANCH   2   3
HETATM    3  C   UNK N   1      32.336  16.949   8.536  0.00  0.00     0.181 C 
HETATM    4  O   UNK N   1      32.960  17.948   8.208  0.00  0.00    -0.293 OA
BRANCH   3   5
HETATM    5  C   UNK N   1      30.835  17.006   8.523  0.00  0.00     0.245 C 
BRANCH   5   6
HETATM    6  O   UNK N   1      30.301  16.916   9.810  0.00  0.00    -0.393 OA
HETATM    7  H   UNK N   1      29.665  17.555  10.167  0.00  0.00     0.209 HD
ENDBRANCH   5   6
ENDBRANCH   3   5
ENDBRANCH   2   3
BRANCH   2   8
HETATM    8  O   UNK N   1      32.511  15.194  10.121  0.00  0.00    -0.385 OA
HETATM    9  H   UNK N   1      31.993  14.400  10.324  0.00  0.00     0.210 HD
ENDBRANCH   2   8
ENDBRANCH   1   2
BRANCH   1  10
HETATM   10  O   UNK N   1      35.243  14.632   8.960  0.00  0.00    -0.390 OA
HETATM   11  H   UNK N   1      35.350  13.913   9.603  0.00  0.00     0.210 HD
ENDBRANCH   1  10
BRANCH   1  12
HETATM   12  C   UNK N   1      34.989  16.417  10.501  0.00  0.00     0.174 C 
BRANCH  12  13
HETATM   13  O   UNK N   1      35.845  17.517  10.418  0.00  0.00    -0.391 OA
HETATM   14  H   UNK N   1      36.186  17.981  11.199  0.00  0.00     0.210 HD
ENDBRANCH  12  13
BRANCH  12  15
HETATM   15  C   UNK N   1      35.598  15.360  11.420  0.00  0.00     0.215 C 
BRANCH  15  16
HETATM   16  O   UNK N   1      34.627  14.561  12.047  0.00  0.00    -0.294 OA
BRANCH  16  17
HETATM   17  P   UNK N   1      35.335  12.984  12.282  0.00  0.00     0.390 P 
HETATM   18  O   UNK N   1      34.594  13.241  13.623  0.00  0.00    -0.632 OA
BRANCH  17  19
HETATM   19  O   UNK N   1      34.336  11.577  12.468  0.00  0.00    -0.307 OA
HETATM   20  H   UNK N   1      33.389  11.580  12.253  0.00  0.00     0.222 HD
ENDBRANCH  17  19
BRANCH  17  21
HETATM   21  O   UNK N   1      34.182  12.866  10.987  0.00  0.00    -0.307 OA
HETATM   22  H   UNK N   1      33.953  13.404  10.213  0.00  0.00     0.222 HD
ENDBRANCH  17  21
ENDBRANCH  16  17
ENDBRANCH  15  16
ENDBRANCH  12  15
ENDBRANCH   1  12
TORSDOF 13
ENDMDL
MODEL 7
REMARK VINA RESULT:      -4.9      4.318      6.573
REMARK  13 active torsions:
REMARK  status: ('A' for Active; 'I' for Inactive)
REMARK    1  A    between atoms: O_1  and  C_2 
REMARK    2  A    between atoms: C_2  and  C_3 
REMARK    3  A    between atoms: C_3  and  C_5 
REMARK    4  A    between atoms: C_5  and  O_6 
REMARK    5  A    between atoms: C_5  and  C_7 
REMARK    6  A    between atoms: C_7  and  O_8 
REMARK    7  A    between atoms: C_7  and  C_9 
REMARK    8  A    between atoms: C_9  and  O_10 
REMARK    9  A    between atoms: C_9  and  C_11 
REMARK   10  A    between atoms: C_11  and  O_12 
REMARK   11  A    between atoms: O_12  and  P_13 
REMARK   12  A    between atoms: P_13  and  O_14 
REMARK   13  A    between atoms: P_13  and  O_15 
ROOT
HETATM    1  C   UNK N   1      32.334  17.958   7.656  0.00  0.00     0.185 C 
ENDROOT
BRANCH   1   2
HETATM    2  C   UNK N   1      33.783  17.463   7.492  0.00  0.00     0.221 C 
BRANCH   2   3
HETATM    3  C   UNK N   1      34.739  17.942   8.565  0.00  0.00     0.181 C 
HETATM    4  O   UNK N   1      35.215  19.067   8.514  0.00  0.00    -0.293 OA
BRANCH   3   5
HETATM    5  C   UNK N   1      35.114  17.057   9.720  0.00  0.00     0.245 C 
BRANCH   5   6
HETATM    6  O   UNK N   1      34.024  16.314  10.179  0.00  0.00    -0.393 OA
HETATM    7  H   UNK N   1      33.102  16.577  10.034  0.00  0.00     0.209 HD
ENDBRANCH   5   6
ENDBRANCH   3   5
ENDBRANCH   2   3
BRANCH   2   8
HETATM    8  O   UNK N   1      34.263  17.870   6.244  0.00  0.00    -0.385 OA
HETATM    9  H   UNK N   1      34.480  17.383   5.434  0.00  0.00     0.210 HD
ENDBRANCH   2   8
ENDBRANCH   1   2
BRANCH   1  10
HETATM   10  O   UNK N   1      31.948  17.921   8.998  0.00  0.00    -0.390 OA
HETATM   11  H   UNK N   1      31.599  18.644   9.544  0.00  0.00     0.210 HD
ENDBRANCH   1  10
BRANCH   1  12
HETATM   12  C   UNK N   1      31.298  17.156   6.850  0.00  0.00     0.174 C 
BRANCH  12  13
HETATM   13  O   UNK N   1      31.419  17.325   5.468  0.00  0.00    -0.391 OA
HETATM   14  H   UNK N   1      31.224  18.162   5.019  0.00  0.00     0.210 HD
ENDBRANCH  12  13
BRANCH  12  15
HETATM   15  C   UNK N   1      29.861  17.446   7.278  0.00  0.00     0.215 C 
BRANCH  15  16
HETATM   16  O   UNK N   1      29.526  16.841   8.502  0.00  0.00    -0.294 OA
BRANCH  16  17
HETATM   17  P   UNK N   1      28.079  17.624   9.081  0.00  0.00     0.390 P 
HETATM   18  O   UNK N   1      29.207  18.590   9.535  0.00  0.00    -0.632 OA
BRANCH  17  19
HETATM   19  O   UNK N   1      27.580  19.158   8.442  0.00  0.00    -0.307 OA
HETATM   20  H   UNK N   1      26.841  19.663   8.819  0.00  0.00     0.222 HD
ENDBRANCH  17  19
BRANCH  17  21
HETATM   21  O   UNK N   1      28.007  17.580   7.345  0.00  0.00    -0.307 OA
HETATM   22  H   UNK N   1      27.587  17.007   6.685  0.00  0.00     0.222 HD
ENDBRANCH  17  21
ENDBRANCH  16  17
ENDBRANCH  15  16
ENDBRANCH  12  15
ENDBRANCH   1  12
TORSDOF 13
ENDMDL
MODEL 8
REMARK VINA RESULT:      -4.9      1.308      2.286
REMARK  13 active torsions:
REMARK  status: ('A' for Active; 'I' for Inactive)
REMARK    1  A    between atoms: O_1  and  C_2 
REMARK    2  A    between atoms: C_2  and  C_3 
REMARK    3  A    between atoms: C_3  and  C_5 
REMARK    4  A    between atoms: C_5  and  O_6 
REMARK    5  A    between atoms: C_5  and  C_7 
REMARK    6  A    between atoms: C_7  and  O_8 
REMARK    7  A    between atoms: C_7  and  C_9 
REMARK    8  A    between atoms: C_9  and  O_10 
REMARK    9  A    between atoms: C_9  and  C_11 
REMARK   10  A    between atoms: C_11  and  O_12 
REMARK   11  A    between atoms: O_12  and  P_13 
REMARK   12  A    between atoms: P_13  and  O_14 
REMARK   13  A    between atoms: P_13  and  O_15 
ROOT
HETATM    1  C   UNK N   1      36.296  14.598  11.029  0.00  0.00     0.185 C 
ENDROOT
BRANCH   1   2
HETATM    2  C   UNK N   1      36.756  13.790  12.256  0.00  0.00     0.221 C 
BRANCH   2   3
HETATM    3  C   UNK N   1      36.380  12.323  12.223  0.00  0.00     0.181 C 
HETATM    4  O   UNK N   1      36.893  11.569  11.410  0.00  0.00    -0.293 OA
BRANCH   3   5
HETATM    5  C   UNK N   1      35.381  11.757  13.193  0.00  0.00     0.245 C 
BRANCH   5   6
HETATM    6  O   UNK N   1      34.229  12.543  13.269  0.00  0.00    -0.393 OA
HETATM    7  H   UNK N   1      33.438  12.280  13.764  0.00  0.00     0.209 HD
ENDBRANCH   5   6
ENDBRANCH   3   5
ENDBRANCH   2   3
BRANCH   2   8
HETATM    8  O   UNK N   1      36.219  14.370  13.409  0.00  0.00    -0.385 OA
HETATM    9  H   UNK N   1      35.973  14.005  14.274  0.00  0.00     0.210 HD
ENDBRANCH   2   8
ENDBRANCH   1   2
BRANCH   1  10
HETATM   10  O   UNK N   1      37.344  15.370  10.524  0.00  0.00    -0.390 OA
HETATM   11  H   UNK N   1      37.415  15.792   9.653  0.00  0.00     0.210 HD
ENDBRANCH   1  10
BRANCH   1  12
HETATM   12  C   UNK N   1      35.111  15.541  11.303  0.00  0.00     0.174 C 
BRANCH  12  13
HETATM   13  O   UNK N   1      33.896  14.871  11.465  0.00  0.00    -0.391 OA
HETATM   14  H   UNK N   1      33.173  15.214  12.013  0.00  0.00     0.210 HD
ENDBRANCH  12  13
BRANCH  12  15
HETATM   15  C   UNK N   1      34.960  16.628  10.241  0.00  0.00     0.215 C 
BRANCH  15  16
HETATM   16  O   UNK N   1      34.990  16.116   8.932  0.00  0.00    -0.294 OA
BRANCH  16  17
HETATM   17  P   UNK N   1      33.881  17.072   7.984  0.00  0.00     0.390 P 
HETATM   18  O   UNK N   1      34.669  18.141   8.788  0.00  0.00    -0.632 OA
BRANCH  17  19
HETATM   19  O   UNK N   1      34.461  18.154   6.757  0.00  0.00    -0.307 OA
HETATM   20  H   UNK N   1      33.875  18.768   6.286  0.00  0.00     0.222 HD
ENDBRANCH  17  19
BRANCH  17  21
HETATM   21  O   UNK N   1      34.952  16.251   6.888  0.00  0.00    -0.307 OA
HETATM   22  H   UNK N   1      35.606  15.539   6.964  0.00  0.00     0.222 HD
ENDBRANCH  17  21
ENDBRANCH  16  17
ENDBRANCH  15  16
ENDBRANCH  12  15
ENDBRANCH   1  12
TORSDOF 13
ENDMDL
MODEL 9
REMARK VINA RESULT:      -4.9     16.092     19.533
REMARK  13 active torsions:
REMARK  status: ('A' for Active; 'I' for Inactive)
REMARK    1  A    between atoms: O_1  and  C_2 
REMARK    2  A    between atoms: C_2  and  C_3 
REMARK    3  A    between atoms: C_3  and  C_5 
REMARK    4  A    between atoms: C_5  and  O_6 
REMARK    5  A    between atoms: C_5  and  C_7 
REMARK    6  A    between atoms: C_7  and  O_8 
REMARK    7  A    between atoms: C_7  and  C_9 
REMARK    8  A    between atoms: C_9  and  O_10 
REMARK    9  A    between atoms: C_9  and  C_11 
REMARK   10  A    between atoms: C_11  and  O_12 
REMARK   11  A    between atoms: O_12  and  P_13 
REMARK   12  A    between atoms: P_13  and  O_14 
REMARK   13  A    between atoms: P_13  and  O_15 
ROOT
HETATM    1  C   UNK N   1      28.230  25.181  -3.931  0.00  0.00     0.185 C 
ENDROOT
BRANCH   1   2
HETATM    2  C   UNK N   1      27.023  25.699  -4.735  0.00  0.00     0.221 C 
BRANCH   2   3
HETATM    3  C   UNK N   1      26.154  26.696  -3.998  0.00  0.00     0.181 C 
HETATM    4  O   UNK N   1      26.148  26.728  -2.776  0.00  0.00    -0.293 OA
BRANCH   3   5
HETATM    5  C   UNK N   1      25.293  27.675  -4.745  0.00  0.00     0.245 C 
BRANCH   5   6
HETATM    6  O   UNK N   1      24.976  27.215  -6.025  0.00  0.00    -0.393 OA
HETATM    7  H   UNK N   1      24.876  26.275  -6.242  0.00  0.00     0.209 HD
ENDBRANCH   5   6
ENDBRANCH   3   5
ENDBRANCH   2   3
BRANCH   2   8
HETATM    8  O   UNK N   1      26.235  24.610  -5.122  0.00  0.00    -0.385 OA
HETATM    9  H   UNK N   1      26.236  23.675  -4.863  0.00  0.00     0.210 HD
ENDBRANCH   2   8
ENDBRANCH   1   2
BRANCH   1  10
HETATM   10  O   UNK N   1      29.354  25.059  -4.750  0.00  0.00    -0.390 OA
HETATM   11  H   UNK N   1      30.231  25.459  -4.632  0.00  0.00     0.210 HD
ENDBRANCH   1  10
BRANCH   1  12
HETATM   12  C   UNK N   1      27.998  23.821  -3.250  0.00  0.00     0.174 C 
BRANCH  12  13
HETATM   13  O   UNK N   1      26.979  23.845  -2.295  0.00  0.00    -0.391 OA
HETATM   14  H   UNK N   1      26.065  24.092  -2.505  0.00  0.00     0.210 HD
ENDBRANCH  12  13
BRANCH  12  15
HETATM   15  C   UNK N   1      29.269  23.244  -2.629  0.00  0.00     0.215 C 
BRANCH  15  16
HETATM   16  O   UNK N   1      29.831  22.213  -3.402  0.00  0.00    -0.294 OA
BRANCH  16  17
HETATM   17  P   UNK N   1      31.562  22.318  -3.213  0.00  0.00     0.390 P 
HETATM   18  O   UNK N   1      31.028  22.814  -1.842  0.00  0.00    -0.632 OA
BRANCH  17  19
HETATM   19  O   UNK N   1      32.396  21.315  -2.068  0.00  0.00    -0.307 OA
HETATM   20  H   UNK N   1      31.988  20.529  -1.670  0.00  0.00     0.222 HD
ENDBRANCH  17  19
BRANCH  17  21
HETATM   21  O   UNK N   1      31.147  20.644  -3.435  0.00  0.00    -0.307 OA
HETATM   22  H   UNK N   1      31.464  19.922  -4.000  0.00  0.00     0.222 HD
ENDBRANCH  17  21
ENDBRANCH  16  17
ENDBRANCH  15  16
ENDBRANCH  12  15
ENDBRANCH   1  12
TORSDOF 13
ENDMDL
