REMARK  2 active torsions:
REMARK  status: ('A' for Active; 'I' for Inactive)
REMARK    1  A    between atoms: N_1  and  C_2 
REMARK    2  A    between atoms: C_4  and  N_5 
ROOT
HETATM    1  C   UNK N   1       0.022  -1.565  -0.000  0.00  0.00     0.028 A 
HETATM    2  C   UNK N   1      -0.034  -0.172  -0.000  0.00  0.00     0.059 A 
HETATM    3  C   UNK N   1       1.139   0.587  -0.000  0.00  0.00     0.044 A 
HETATM    4  C   UNK N   1       2.401  -0.066  -0.000  0.00  0.00     0.075 A 
HETATM    5  C   UNK N   1       3.628   0.632   0.000  0.00  0.00     0.273 A 
HETATM    6  O   UNK N   1       3.664   1.848   0.000  0.00  0.00    -0.266 OA
HETATM    7  N   UNK N   1       4.805  -0.072   0.000  0.00  0.00    -0.263 N 
HETATM    8  N   UNK N   1       4.828  -1.404   0.000  0.00  0.00    -0.263 N 
HETATM    9  C   UNK N   1       3.674  -2.138  -0.000  0.00  0.00     0.271 A 
HETATM   10  O   UNK N   1       3.732  -3.356   0.000  0.00  0.00    -0.266 OA
HETATM   11  C   UNK N   1       2.440  -1.480  -0.000  0.00  0.00     0.053 A 
HETATM   12  C   UNK N   1       1.250  -2.215  -0.000  0.00  0.00     0.047 A 
HETATM   13  H   UNK N   1       5.658   0.421   0.000  0.00  0.00     0.190 HD
HETATM   14  H   UNK N   1       5.695  -1.870   0.000  0.00  0.00     0.190 HD
ENDROOT
BRANCH   1  15
HETATM   15  N   UNK N   1      -1.165  -2.320   0.000  0.00  0.00    -0.399 N 
HETATM   16  H   UNK N   1      -2.038  -1.865   0.000  0.00  0.00     0.156 HD
HETATM   17  H   UNK N   1      -1.123  -3.304   0.000  0.00  0.00     0.156 HD
ENDBRANCH   1  15
BRANCH   3  18
HETATM   18  N   UNK N   1       1.033   1.995   0.000  0.00  0.00    -0.398 N 
HETATM   19  H   UNK N   1       1.846   2.550   0.000  0.00  0.00     0.156 HD
HETATM   20  H   UNK N   1       0.146   2.422   0.000  0.00  0.00     0.156 HD
ENDBRANCH   3  18
TORSDOF 2
