MODEL 1
REMARK VINA RESULT:      -8.9      0.000      0.000
REMARK  11 active torsions:
REMARK  status: ('A' for Active; 'I' for Inactive)
REMARK    1  A    between atoms: C_20  and  C_8 
REMARK    2  A    between atoms: C_22  and  C_11 
REMARK    3  A    between atoms: C_30  and  C_20 
REMARK    4  A    between atoms: C_23  and  C_21 
REMARK    5  A    between atoms: C_30  and  C_21 
REMARK    6  A    between atoms: C_31  and  C_24 
REMARK    7  A    between atoms: C_30  and  C_29 
REMARK    8  A    between atoms: C_30  and  N_39 
REMARK    9  A    between atoms: P_43  and  C_31 
REMARK   10  A    between atoms: P_43  and  O_40 
REMARK   11  A    between atoms: P_43  and  O_41 
ROOT
HETATM    1  C   UNK N   1      26.538  16.722   4.639  0.00  0.00     0.108 C 
ENDROOT
BRANCH   1   2
HETATM    2  C   UNK N   1      26.857  15.724   3.468  0.00  0.00     0.067 C 
BRANCH   2   3
HETATM    3  C   UNK N   1      25.615  15.628   2.572  0.00  0.00    -0.023 C 
HETATM    4  C   UNK N   1      25.337  14.525   1.848  0.00  0.00     0.007 C 
BRANCH   4   5
HETATM    5  C   UNK N   1      23.965  14.221   1.349  0.00  0.00    -0.036 A 
HETATM    6  C   UNK N   1      23.781  13.149   0.461  0.00  0.00     0.011 A 
HETATM    7  C   UNK N   1      22.492  12.728   0.107  0.00  0.00     0.001 A 
HETATM    8  C   UNK N   1      21.374  13.365   0.650  0.00  0.00     0.000 A 
HETATM    9  C   UNK N   1      21.544  14.431   1.538  0.00  0.00     0.001 A 
HETATM   10  C   UNK N   1      22.831  14.850   1.893  0.00  0.00     0.011 A 
ENDBRANCH   4   5
ENDBRANCH   2   3
ENDBRANCH   1   2
BRANCH   1  11
HETATM   11  C   UNK N   1      25.330  16.100   5.356  0.00  0.00     0.078 C 
BRANCH  11  12
HETATM   12  C   UNK N   1      25.085  14.736   5.905  0.00  0.00    -0.055 A 
HETATM   13  C   UNK N   1      25.578  14.419   7.166  0.00  0.00     0.008 A 
HETATM   14  C   UNK N   1      25.024  13.379   7.901  0.00  0.00     0.014 A 
HETATM   15  C   UNK N   1      23.958  12.638   7.383  0.00  0.00     0.025 A 
HETATM   16  C   UNK N   1      23.498  12.905   6.085  0.00  0.00     0.014 A 
HETATM   17  C   UNK N   1      24.045  13.972   5.359  0.00  0.00     0.008 A 
BRANCH  15  18
HETATM   18  C   UNK N   1      23.273  11.645   8.276  0.00  0.00     0.364 C 
HETATM   19  F   UNK N   1      24.065  10.518   8.396  0.00  0.00    -0.187 F 
HETATM   20  F   UNK N   1      22.035  11.279   7.778  0.00  0.00    -0.187 F 
BRANCH  18  21
HETATM   21  P   UNK N   1      23.020  12.429   9.960  0.00  0.00     0.315 P 
HETATM   22  O   UNK N   1      22.270  13.780   9.805  0.00  0.00    -0.649 OA
BRANCH  21  23
HETATM   23  O   UNK N   1      22.024  11.530  11.059  0.00  0.00    -0.325 OA
HETATM   24  H   UNK N   1      21.815  10.595  10.908  0.00  0.00     0.220 HD
ENDBRANCH  21  23
BRANCH  21  25
HETATM   25  O   UNK N   1      24.462  12.866  10.825  0.00  0.00    -0.325 OA
HETATM   26  H   UNK N   1      24.637  13.286  11.681  0.00  0.00     0.220 HD
ENDBRANCH  21  25
ENDBRANCH  18  21
ENDBRANCH  15  18
ENDBRANCH  11  12
ENDBRANCH   1  11
BRANCH   1  27
HETATM   27  C   UNK N   1      27.551  16.882   5.743  0.00  0.00     0.083 A 
HETATM   28  N   UNK N   1      27.289  17.684   6.817  0.00  0.00    -0.351 N 
HETATM   29  C   UNK N   1      28.382  17.842   7.626  0.00  0.00     0.050 A 
ATOM     30  HN  UNK N   1      26.382  18.116   6.995  1.00  0.00     0.166 HD
HETATM   31  C   UNK N   1      28.394  18.629   8.777  0.00  0.00     0.031 A 
HETATM   32  C   UNK N   1      29.534  17.182   7.204  0.00  0.00     0.033 A 
HETATM   33  C   UNK N   1      29.595  18.748   9.494  0.00  0.00     0.002 A 
HETATM   34  C   UNK N   1      30.763  18.090   9.049  0.00  0.00     0.002 A 
HETATM   35  C   UNK N   1      30.739  17.291   7.891  0.00  0.00     0.021 A 
HETATM   36  S   UNK N   1      29.138  16.373   5.812  0.00  0.00    -0.072 SA
ENDBRANCH   1  27
BRANCH   1  37
HETATM   37  N   UNK N   1      26.449  18.066   4.031  0.00  0.00    -0.256 N 
HETATM   38  C   UNK N   1      25.287  18.688   3.742  0.00  0.00     0.078 A 
HETATM   39  C   UNK N   1      23.972  18.226   3.868  0.00  0.00     0.033 A 
HETATM   40  C   UNK N   1      25.576  19.937   3.329  0.00  0.00     0.074 A 
HETATM   41  C   UNK N   1      22.935  19.113   3.536  0.00  0.00     0.002 A 
HETATM   42  C   UNK N   1      23.237  20.426   3.106  0.00  0.00     0.002 A 
HETATM   43  C   UNK N   1      24.580  20.856   3.000  0.00  0.00     0.033 A 
HETATM   44  N   UNK N   1      26.918  20.087   3.347  0.00  0.00    -0.282 N 
HETATM   45  N   UNK N   1      27.430  18.931   3.780  0.00  0.00    -0.018 NA
ATOM     46  HN  UNK N   1      27.441  20.922   3.080  1.00  0.00     0.184 HD
ENDBRANCH   1  37
TORSDOF 11
ENDMDL
MODEL 2
REMARK VINA RESULT:      -8.9      4.266      7.642
REMARK  11 active torsions:
REMARK  status: ('A' for Active; 'I' for Inactive)
REMARK    1  A    between atoms: C_20  and  C_8 
REMARK    2  A    between atoms: C_22  and  C_11 
REMARK    3  A    between atoms: C_30  and  C_20 
REMARK    4  A    between atoms: C_23  and  C_21 
REMARK    5  A    between atoms: C_30  and  C_21 
REMARK    6  A    between atoms: C_31  and  C_24 
REMARK    7  A    between atoms: C_30  and  C_29 
REMARK    8  A    between atoms: C_30  and  N_39 
REMARK    9  A    between atoms: P_43  and  C_31 
REMARK   10  A    between atoms: P_43  and  O_40 
REMARK   11  A    between atoms: P_43  and  O_41 
ROOT
HETATM    1  C   UNK N   1      21.695  15.032   5.115  0.00  0.00     0.108 C 
ENDROOT
BRANCH   1   2
HETATM    2  C   UNK N   1      20.772  14.456   6.248  0.00  0.00     0.067 C 
BRANCH   2   3
HETATM    3  C   UNK N   1      21.592  14.391   7.544  0.00  0.00    -0.023 C 
HETATM    4  C   UNK N   1      21.310  13.512   8.526  0.00  0.00     0.007 C 
BRANCH   4   5
HETATM    5  C   UNK N   1      22.316  13.113   9.554  0.00  0.00    -0.036 A 
HETATM    6  C   UNK N   1      21.875  12.523  10.750  0.00  0.00     0.011 A 
HETATM    7  C   UNK N   1      22.794  11.982  11.660  0.00  0.00     0.001 A 
HETATM    8  C   UNK N   1      24.161  12.011  11.374  0.00  0.00     0.000 A 
HETATM    9  C   UNK N   1      24.611  12.591  10.186  0.00  0.00     0.001 A 
HETATM   10  C   UNK N   1      23.694  13.130   9.277  0.00  0.00     0.011 A 
ENDBRANCH   4   5
ENDBRANCH   2   3
ENDBRANCH   1   2
BRANCH   1  11
HETATM   11  C   UNK N   1      22.763  15.844   5.864  0.00  0.00     0.078 C 
BRANCH  11  12
HETATM   12  C   UNK N   1      24.246  15.911   5.731  0.00  0.00    -0.055 A 
HETATM   13  C   UNK N   1      24.811  16.964   5.020  0.00  0.00     0.008 A 
HETATM   14  C   UNK N   1      26.134  17.331   5.233  0.00  0.00     0.014 A 
HETATM   15  C   UNK N   1      26.915  16.647   6.168  0.00  0.00     0.025 A 
HETATM   16  C   UNK N   1      26.375  15.540   6.841  0.00  0.00     0.014 A 
HETATM   17  C   UNK N   1      25.033  15.191   6.640  0.00  0.00     0.008 A 
BRANCH  15  18
HETATM   18  C   UNK N   1      28.277  17.185   6.497  0.00  0.00     0.364 C 
HETATM   19  F   UNK N   1      28.701  18.010   5.472  0.00  0.00    -0.187 F 
HETATM   20  F   UNK N   1      29.199  16.169   6.672  0.00  0.00    -0.187 F 
BRANCH  18  21
HETATM   21  P   UNK N   1      28.166  18.158   8.096  0.00  0.00     0.315 P 
HETATM   22  O   UNK N   1      29.587  18.597   8.544  0.00  0.00    -0.649 OA
BRANCH  21  23
HETATM   23  O   UNK N   1      27.286  19.649   8.002  0.00  0.00    -0.325 OA
HETATM   24  H   UNK N   1      26.485  19.734   7.462  0.00  0.00     0.220 HD
ENDBRANCH  21  23
BRANCH  21  25
HETATM   25  O   UNK N   1      27.556  17.295   9.476  0.00  0.00    -0.325 OA
HETATM   26  H   UNK N   1      27.785  17.278  10.418  0.00  0.00     0.220 HD
ENDBRANCH  21  25
ENDBRANCH  18  21
ENDBRANCH  15  18
ENDBRANCH  11  12
ENDBRANCH   1  11
BRANCH   1  27
HETATM   27  C   UNK N   1      22.509  14.068   4.292  0.00  0.00     0.083 A 
HETATM   28  N   UNK N   1      22.849  14.368   3.003  0.00  0.00    -0.351 N 
HETATM   29  C   UNK N   1      23.435  13.310   2.360  0.00  0.00     0.050 A 
ATOM     30  HN  UNK N   1      22.685  15.277   2.570  1.00  0.00     0.166 HD
HETATM   31  C   UNK N   1      23.857  13.341   1.032  0.00  0.00     0.031 A 
HETATM   32  C   UNK N   1      23.558  12.149   3.119  0.00  0.00     0.033 A 
HETATM   33  C   UNK N   1      24.398  12.172   0.475  0.00  0.00     0.002 A 
HETATM   34  C   UNK N   1      24.504  10.993   1.246  0.00  0.00     0.002 A 
HETATM   35  C   UNK N   1      24.083  10.975   2.589  0.00  0.00     0.021 A 
HETATM   36  S   UNK N   1      22.944  12.491   4.620  0.00  0.00    -0.072 SA
ENDBRANCH   1  27
BRANCH   1  37
HETATM   37  N   UNK N   1      20.799  15.680   4.135  0.00  0.00    -0.256 N 
HETATM   38  C   UNK N   1      20.716  17.015   3.955  0.00  0.00     0.078 A 
HETATM   39  C   UNK N   1      21.357  18.050   4.648  0.00  0.00     0.033 A 
HETATM   40  C   UNK N   1      19.910  17.243   2.901  0.00  0.00     0.074 A 
HETATM   41  C   UNK N   1      21.124  19.365   4.213  0.00  0.00     0.002 A 
HETATM   42  C   UNK N   1      20.281  19.606   3.104  0.00  0.00     0.002 A 
HETATM   43  C   UNK N   1      19.660  18.530   2.426  0.00  0.00     0.033 A 
HETATM   44  N   UNK N   1      19.479  16.051   2.434  0.00  0.00    -0.282 N 
HETATM   45  N   UNK N   1      20.036  15.111   3.204  0.00  0.00    -0.018 NA
ATOM     46  HN  UNK N   1      18.849  15.898   1.646  1.00  0.00     0.184 HD
ENDBRANCH   1  37
TORSDOF 11
ENDMDL
MODEL 3
REMARK VINA RESULT:      -8.7      4.138      6.537
REMARK  11 active torsions:
REMARK  status: ('A' for Active; 'I' for Inactive)
REMARK    1  A    between atoms: C_20  and  C_8 
REMARK    2  A    between atoms: C_22  and  C_11 
REMARK    3  A    between atoms: C_30  and  C_20 
REMARK    4  A    between atoms: C_23  and  C_21 
REMARK    5  A    between atoms: C_30  and  C_21 
REMARK    6  A    between atoms: C_31  and  C_24 
REMARK    7  A    between atoms: C_30  and  C_29 
REMARK    8  A    between atoms: C_30  and  N_39 
REMARK    9  A    between atoms: P_43  and  C_31 
REMARK   10  A    between atoms: P_43  and  O_40 
REMARK   11  A    between atoms: P_43  and  O_41 
ROOT
HETATM    1  C   UNK N   1      25.928  14.912   5.323  0.00  0.00     0.108 C 
ENDROOT
BRANCH   1   2
HETATM    2  C   UNK N   1      25.609  13.480   5.886  0.00  0.00     0.067 C 
BRANCH   2   3
HETATM    3  C   UNK N   1      25.028  13.640   7.297  0.00  0.00    -0.023 C 
HETATM    4  C   UNK N   1      23.977  12.912   7.726  0.00  0.00     0.007 C 
BRANCH   4   5
HETATM    5  C   UNK N   1      23.684  12.707   9.175  0.00  0.00    -0.036 A 
HETATM    6  C   UNK N   1      22.348  12.627   9.598  0.00  0.00     0.011 A 
HETATM    7  C   UNK N   1      22.037  12.266  10.916  0.00  0.00     0.001 A 
HETATM    8  C   UNK N   1      23.060  11.966  11.819  0.00  0.00     0.000 A 
HETATM    9  C   UNK N   1      24.394  12.039  11.408  0.00  0.00     0.001 A 
HETATM   10  C   UNK N   1      24.704  12.397  10.092  0.00  0.00     0.011 A 
ENDBRANCH   4   5
ENDBRANCH   2   3
ENDBRANCH   1   2
BRANCH   1  11
HETATM   11  C   UNK N   1      24.941  15.839   6.050  0.00  0.00     0.078 C 
BRANCH  11  12
HETATM   12  C   UNK N   1      23.640  16.437   5.636  0.00  0.00    -0.055 A 
HETATM   13  C   UNK N   1      23.569  17.128   4.432  0.00  0.00     0.008 A 
HETATM   14  C   UNK N   1      22.351  17.307   3.790  0.00  0.00     0.014 A 
HETATM   15  C   UNK N   1      21.177  16.791   4.346  0.00  0.00     0.025 A 
HETATM   16  C   UNK N   1      21.227  16.152   5.594  0.00  0.00     0.014 A 
HETATM   17  C   UNK N   1      22.463  15.953   6.224  0.00  0.00     0.008 A 
BRANCH  15  18
HETATM   18  C   UNK N   1      19.914  16.849   3.538  0.00  0.00     0.364 C 
HETATM   19  F   UNK N   1      18.837  16.548   4.352  0.00  0.00    -0.187 F 
HETATM   20  F   UNK N   1      19.943  15.960   2.478  0.00  0.00    -0.187 F 
BRANCH  18  21
HETATM   21  P   UNK N   1      19.725  18.581   2.845  0.00  0.00     0.315 P 
HETATM   22  O   UNK N   1      20.560  18.721   1.543  0.00  0.00    -0.649 OA
BRANCH  21  23
HETATM   23  O   UNK N   1      18.120  19.016   2.353  0.00  0.00    -0.325 OA
HETATM   24  H   UNK N   1      17.491  19.424   2.969  0.00  0.00     0.220 HD
ENDBRANCH  21  23
BRANCH  21  25
HETATM   25  O   UNK N   1      20.316  19.873   3.845  0.00  0.00    -0.325 OA
HETATM   26  H   UNK N   1      20.123  20.821   3.909  0.00  0.00     0.220 HD
ENDBRANCH  21  25
ENDBRANCH  18  21
ENDBRANCH  15  18
ENDBRANCH  11  12
ENDBRANCH   1  11
BRANCH   1  27
HETATM   27  C   UNK N   1      27.269  15.523   5.634  0.00  0.00     0.083 A 
HETATM   28  N   UNK N   1      28.423  14.846   5.357  0.00  0.00    -0.351 N 
HETATM   29  C   UNK N   1      29.529  15.478   5.861  0.00  0.00     0.050 A 
ATOM     30  HN  UNK N   1      28.456  13.971   4.835  1.00  0.00     0.166 HD
HETATM   31  C   UNK N   1      30.828  14.988   5.741  0.00  0.00     0.031 A 
HETATM   32  C   UNK N   1      29.274  16.656   6.558  0.00  0.00     0.033 A 
HETATM   33  C   UNK N   1      31.872  15.706   6.346  0.00  0.00     0.002 A 
HETATM   34  C   UNK N   1      31.603  16.892   7.065  0.00  0.00     0.002 A 
HETATM   35  C   UNK N   1      30.289  17.382   7.174  0.00  0.00     0.021 A 
HETATM   36  S   UNK N   1      27.636  16.902   6.499  0.00  0.00    -0.072 SA
ENDBRANCH   1  27
BRANCH   1  37
HETATM   37  N   UNK N   1      25.914  14.794   3.851  0.00  0.00    -0.256 N 
HETATM   38  C   UNK N   1      24.901  14.247   3.147  0.00  0.00     0.078 A 
HETATM   39  C   UNK N   1      23.728  13.632   3.602  0.00  0.00     0.033 A 
HETATM   40  C   UNK N   1      25.158  14.428   1.837  0.00  0.00     0.074 A 
HETATM   41  C   UNK N   1      22.809  13.188   2.638  0.00  0.00     0.002 A 
HETATM   42  C   UNK N   1      23.077  13.381   1.262  0.00  0.00     0.002 A 
HETATM   43  C   UNK N   1      24.271  14.014   0.845  0.00  0.00     0.033 A 
HETATM   44  N   UNK N   1      26.339  15.074   1.727  0.00  0.00    -0.282 N 
HETATM   45  N   UNK N   1      26.781  15.288   2.970  0.00  0.00    -0.018 NA
ATOM     46  HN  UNK N   1      26.805  15.347   0.860  1.00  0.00     0.184 HD
ENDBRANCH   1  37
TORSDOF 11
ENDMDL
MODEL 4
REMARK VINA RESULT:      -8.7      1.883      2.332
REMARK  11 active torsions:
REMARK  status: ('A' for Active; 'I' for Inactive)
REMARK    1  A    between atoms: C_20  and  C_8 
REMARK    2  A    between atoms: C_22  and  C_11 
REMARK    3  A    between atoms: C_30  and  C_20 
REMARK    4  A    between atoms: C_23  and  C_21 
REMARK    5  A    between atoms: C_30  and  C_21 
REMARK    6  A    between atoms: C_31  and  C_24 
REMARK    7  A    between atoms: C_30  and  C_29 
REMARK    8  A    between atoms: C_30  and  N_39 
REMARK    9  A    between atoms: P_43  and  C_31 
REMARK   10  A    between atoms: P_43  and  O_40 
REMARK   11  A    between atoms: P_43  and  O_41 
ROOT
HETATM    1  C   UNK N   1      26.836  15.635   4.998  0.00  0.00     0.108 C 
ENDROOT
BRANCH   1   2
HETATM    2  C   UNK N   1      27.288  15.584   3.494  0.00  0.00     0.067 C 
BRANCH   2   3
HETATM    3  C   UNK N   1      26.052  15.294   2.634  0.00  0.00    -0.023 C 
HETATM    4  C   UNK N   1      25.910  14.141   1.948  0.00  0.00     0.007 C 
BRANCH   4   5
HETATM    5  C   UNK N   1      24.580  13.641   1.494  0.00  0.00    -0.036 A 
HETATM    6  C   UNK N   1      23.450  14.461   1.647  0.00  0.00     0.011 A 
HETATM    7  C   UNK N   1      22.221  14.097   1.080  0.00  0.00     0.001 A 
HETATM    8  C   UNK N   1      22.114  12.918   0.340  0.00  0.00     0.000 A 
HETATM    9  C   UNK N   1      23.232  12.095   0.178  0.00  0.00     0.001 A 
HETATM   10  C   UNK N   1      24.459  12.459   0.742  0.00  0.00     0.011 A 
ENDBRANCH   4   5
ENDBRANCH   2   3
ENDBRANCH   1   2
BRANCH   1  11
HETATM   11  C   UNK N   1      26.643  14.162   5.392  0.00  0.00     0.078 C 
BRANCH  11  12
HETATM   12  C   UNK N   1      25.492  13.428   5.992  0.00  0.00    -0.055 A 
HETATM   13  C   UNK N   1      25.244  13.562   7.353  0.00  0.00     0.008 A 
HETATM   14  C   UNK N   1      23.984  13.294   7.871  0.00  0.00     0.014 A 
HETATM   15  C   UNK N   1      22.945  12.888   7.028  0.00  0.00     0.025 A 
HETATM   16  C   UNK N   1      23.203  12.684   5.664  0.00  0.00     0.014 A 
HETATM   17  C   UNK N   1      24.470  12.980   5.144  0.00  0.00     0.008 A 
BRANCH  15  18
HETATM   18  C   UNK N   1      21.560  12.781   7.595  0.00  0.00     0.364 C 
HETATM   19  F   UNK N   1      21.638  12.412   8.925  0.00  0.00    -0.187 F 
HETATM   20  F   UNK N   1      20.797  11.853   6.911  0.00  0.00    -0.187 F 
BRANCH  18  21
HETATM   21  P   UNK N   1      20.722  14.452   7.446  0.00  0.00     0.315 P 
HETATM   22  O   UNK N   1      19.714  14.433   6.265  0.00  0.00    -0.649 OA
BRANCH  21  23
HETATM   23  O   UNK N   1      19.753  14.925   8.804  0.00  0.00    -0.325 OA
HETATM   24  H   UNK N   1      19.404  15.826   8.893  0.00  0.00     0.220 HD
ENDBRANCH  21  23
BRANCH  21  25
HETATM   25  O   UNK N   1      21.757  15.796   7.071  0.00  0.00    -0.325 OA
HETATM   26  H   UNK N   1      22.709  15.962   7.156  0.00  0.00     0.220 HD
ENDBRANCH  21  25
ENDBRANCH  18  21
ENDBRANCH  15  18
ENDBRANCH  11  12
ENDBRANCH   1  11
BRANCH   1  27
HETATM   27  C   UNK N   1      27.814  16.142   6.025  0.00  0.00     0.083 A 
HETATM   28  N   UNK N   1      27.371  16.716   7.184  0.00  0.00    -0.351 N 
HETATM   29  C   UNK N   1      28.391  17.270   7.912  0.00  0.00     0.050 A 
ATOM     30  HN  UNK N   1      26.393  16.731   7.472  1.00  0.00     0.166 HD
HETATM   31  C   UNK N   1      28.211  17.938   9.122  0.00  0.00     0.031 A 
HETATM   32  C   UNK N   1      29.656  17.159   7.341  0.00  0.00     0.033 A 
HETATM   33  C   UNK N   1      29.334  18.504   9.746  0.00  0.00     0.002 A 
HETATM   34  C   UNK N   1      30.611  18.402   9.152  0.00  0.00     0.002 A 
HETATM   35  C   UNK N   1      30.783  17.718   7.934  0.00  0.00     0.021 A 
HETATM   36  S   UNK N   1      29.469  16.325   5.920  0.00  0.00    -0.072 SA
ENDBRANCH   1  27
BRANCH   1  37
HETATM   37  N   UNK N   1      25.711  16.591   5.064  0.00  0.00    -0.256 N 
HETATM   38  C   UNK N   1      25.752  17.840   4.555  0.00  0.00     0.078 A 
HETATM   39  C   UNK N   1      26.813  18.521   3.946  0.00  0.00     0.033 A 
HETATM   40  C   UNK N   1      24.522  18.376   4.670  0.00  0.00     0.074 A 
HETATM   41  C   UNK N   1      26.561  19.813   3.456  0.00  0.00     0.002 A 
HETATM   42  C   UNK N   1      25.269  20.376   3.573  0.00  0.00     0.002 A 
HETATM   43  C   UNK N   1      24.222  19.649   4.188  0.00  0.00     0.033 A 
HETATM   44  N   UNK N   1      23.720  17.466   5.264  0.00  0.00    -0.282 N 
HETATM   45  N   UNK N   1      24.469  16.383   5.494  0.00  0.00    -0.018 NA
ATOM     46  HN  UNK N   1      22.732  17.583   5.494  1.00  0.00     0.184 HD
ENDBRANCH   1  37
TORSDOF 11
ENDMDL
MODEL 5
REMARK VINA RESULT:      -8.6      5.316      7.268
REMARK  11 active torsions:
REMARK  status: ('A' for Active; 'I' for Inactive)
REMARK    1  A    between atoms: C_20  and  C_8 
REMARK    2  A    between atoms: C_22  and  C_11 
REMARK    3  A    between atoms: C_30  and  C_20 
REMARK    4  A    between atoms: C_23  and  C_21 
REMARK    5  A    between atoms: C_30  and  C_21 
REMARK    6  A    between atoms: C_31  and  C_24 
REMARK    7  A    between atoms: C_30  and  C_29 
REMARK    8  A    between atoms: C_30  and  N_39 
REMARK    9  A    between atoms: P_43  and  C_31 
REMARK   10  A    between atoms: P_43  and  O_40 
REMARK   11  A    between atoms: P_43  and  O_41 
ROOT
HETATM    1  C   UNK N   1      23.517  14.407   5.742  0.00  0.00     0.108 C 
ENDROOT
BRANCH   1   2
HETATM    2  C   UNK N   1      23.763  13.246   4.712  0.00  0.00     0.067 C 
BRANCH   2   3
HETATM    3  C   UNK N   1      22.426  12.917   4.035  0.00  0.00    -0.023 C 
HETATM    4  C   UNK N   1      22.314  12.777   2.698  0.00  0.00     0.007 C 
BRANCH   4   5
HETATM    5  C   UNK N   1      21.188  12.033   2.064  0.00  0.00    -0.036 A 
HETATM    6  C   UNK N   1      20.489  11.076   2.818  0.00  0.00     0.011 A 
HETATM    7  C   UNK N   1      19.323  10.483   2.314  0.00  0.00     0.001 A 
HETATM    8  C   UNK N   1      18.836  10.854   1.059  0.00  0.00     0.000 A 
HETATM    9  C   UNK N   1      19.520  11.808   0.301  0.00  0.00     0.001 A 
HETATM   10  C   UNK N   1      20.683  12.401   0.804  0.00  0.00     0.011 A 
ENDBRANCH   4   5
ENDBRANCH   2   3
ENDBRANCH   1   2
BRANCH   1  11
HETATM   11  C   UNK N   1      22.264  15.126   5.218  0.00  0.00     0.078 C 
BRANCH  11  12
HETATM   12  C   UNK N   1      22.077  16.426   4.512  0.00  0.00    -0.055 A 
HETATM   13  C   UNK N   1      21.518  16.427   3.240  0.00  0.00     0.008 A 
HETATM   14  C   UNK N   1      20.917  17.571   2.732  0.00  0.00     0.014 A 
HETATM   15  C   UNK N   1      20.863  18.739   3.497  0.00  0.00     0.025 A 
HETATM   16  C   UNK N   1      21.484  18.770   4.755  0.00  0.00     0.014 A 
HETATM   17  C   UNK N   1      22.067  17.604   5.271  0.00  0.00     0.008 A 
BRANCH  15  18
HETATM   18  C   UNK N   1      20.052  19.895   2.989  0.00  0.00     0.364 C 
HETATM   19  F   UNK N   1      20.026  20.891   3.947  0.00  0.00    -0.187 F 
HETATM   20  F   UNK N   1      18.755  19.518   2.692  0.00  0.00    -0.187 F 
BRANCH  18  21
HETATM   21  P   UNK N   1      20.849  20.541   1.419  0.00  0.00     0.315 P 
HETATM   22  O   UNK N   1      22.394  20.537   1.573  0.00  0.00    -0.649 OA
BRANCH  21  23
HETATM   23  O   UNK N   1      20.575  19.587  -0.003  0.00  0.00    -0.325 OA
HETATM   24  H   UNK N   1      21.017  18.733  -0.137  0.00  0.00     0.220 HD
ENDBRANCH  21  23
BRANCH  21  25
HETATM   25  O   UNK N   1      20.489  22.188   1.001  0.00  0.00    -0.325 OA
HETATM   26  H   UNK N   1      20.133  22.623   0.210  0.00  0.00     0.220 HD
ENDBRANCH  21  25
ENDBRANCH  18  21
ENDBRANCH  15  18
ENDBRANCH  11  12
ENDBRANCH   1  11
BRANCH   1  27
HETATM   27  C   UNK N   1      23.143  14.046   7.155  0.00  0.00     0.083 A 
HETATM   28  N   UNK N   1      23.954  13.243   7.906  0.00  0.00    -0.351 N 
HETATM   29  C   UNK N   1      23.375  12.884   9.094  0.00  0.00     0.050 A 
ATOM     30  HN  UNK N   1      24.885  12.945   7.614  1.00  0.00     0.166 HD
HETATM   31  C   UNK N   1      23.978  12.052  10.035  0.00  0.00     0.031 A 
HETATM   32  C   UNK N   1      22.091  13.381   9.302  0.00  0.00     0.033 A 
HETATM   33  C   UNK N   1      23.256  11.719  11.193  0.00  0.00     0.002 A 
HETATM   34  C   UNK N   1      21.948  12.214  11.389  0.00  0.00     0.002 A 
HETATM   35  C   UNK N   1      21.351  13.060  10.436  0.00  0.00     0.021 A 
HETATM   36  S   UNK N   1      21.714  14.304   7.977  0.00  0.00    -0.072 SA
ENDBRANCH   1  27
BRANCH   1  37
HETATM   37  N   UNK N   1      24.802  15.124   5.878  0.00  0.00    -0.256 N 
HETATM   38  C   UNK N   1      25.535  15.562   4.833  0.00  0.00     0.078 A 
HETATM   39  C   UNK N   1      25.319  15.398   3.459  0.00  0.00     0.033 A 
HETATM   40  C   UNK N   1      26.563  16.284   5.320  0.00  0.00     0.074 A 
HETATM   41  C   UNK N   1      26.228  16.009   2.580  0.00  0.00     0.002 A 
HETATM   42  C   UNK N   1      27.305  16.770   3.090  0.00  0.00     0.002 A 
HETATM   43  C   UNK N   1      27.482  16.918   4.486  0.00  0.00     0.033 A 
HETATM   44  N   UNK N   1      26.477  16.282   6.668  0.00  0.00    -0.282 N 
HETATM   45  N   UNK N   1      25.392  15.568   6.985  0.00  0.00    -0.018 NA
ATOM     46  HN  UNK N   1      27.117  16.737   7.320  1.00  0.00     0.184 HD
ENDBRANCH   1  37
TORSDOF 11
ENDMDL
MODEL 6
REMARK VINA RESULT:      -8.6      4.543      7.281
REMARK  11 active torsions:
REMARK  status: ('A' for Active; 'I' for Inactive)
REMARK    1  A    between atoms: C_20  and  C_8 
REMARK    2  A    between atoms: C_22  and  C_11 
REMARK    3  A    between atoms: C_30  and  C_20 
REMARK    4  A    between atoms: C_23  and  C_21 
REMARK    5  A    between atoms: C_30  and  C_21 
REMARK    6  A    between atoms: C_31  and  C_24 
REMARK    7  A    between atoms: C_30  and  C_29 
REMARK    8  A    between atoms: C_30  and  N_39 
REMARK    9  A    between atoms: P_43  and  C_31 
REMARK   10  A    between atoms: P_43  and  O_40 
REMARK   11  A    between atoms: P_43  and  O_41 
ROOT
HETATM    1  C   UNK N   1      24.813  14.840   5.074  0.00  0.00     0.108 C 
ENDROOT
BRANCH   1   2
HETATM    2  C   UNK N   1      25.272  13.651   5.994  0.00  0.00     0.067 C 
BRANCH   2   3
HETATM    3  C   UNK N   1      24.151  13.369   7.004  0.00  0.00    -0.023 C 
HETATM    4  C   UNK N   1      24.304  12.495   8.018  0.00  0.00     0.007 C 
BRANCH   4   5
HETATM    5  C   UNK N   1      23.450  12.532   9.241  0.00  0.00    -0.036 A 
HETATM    6  C   UNK N   1      22.087  12.846   9.115  0.00  0.00     0.011 A 
HETATM    7  C   UNK N   1      21.222  12.724  10.210  0.00  0.00     0.001 A 
HETATM    8  C   UNK N   1      21.708  12.271  11.438  0.00  0.00     0.000 A 
HETATM    9  C   UNK N   1      23.062  11.952  11.576  0.00  0.00     0.001 A 
HETATM   10  C   UNK N   1      23.925  12.072  10.482  0.00  0.00     0.011 A 
ENDBRANCH   4   5
ENDBRANCH   2   3
ENDBRANCH   1   2
BRANCH   1  11
HETATM   11  C   UNK N   1      23.365  15.122   5.504  0.00  0.00     0.078 C 
BRANCH  11  12
HETATM   12  C   UNK N   1      22.231  15.803   4.817  0.00  0.00    -0.055 A 
HETATM   13  C   UNK N   1      21.754  17.003   5.330  0.00  0.00     0.008 A 
HETATM   14  C   UNK N   1      21.045  17.885   4.526  0.00  0.00     0.014 A 
HETATM   15  C   UNK N   1      20.803  17.578   3.183  0.00  0.00     0.025 A 
HETATM   16  C   UNK N   1      21.221  16.339   2.673  0.00  0.00     0.014 A 
HETATM   17  C   UNK N   1      21.957  15.465   3.484  0.00  0.00     0.008 A 
BRANCH  15  18
HETATM   18  C   UNK N   1      20.193  18.630   2.305  0.00  0.00     0.364 C 
HETATM   19  F   UNK N   1      18.828  18.668   2.519  0.00  0.00    -0.187 F 
HETATM   20  F   UNK N   1      20.435  18.380   0.965  0.00  0.00    -0.187 F 
BRANCH  18  21
HETATM   21  P   UNK N   1      20.954  20.288   2.739  0.00  0.00     0.315 P 
HETATM   22  O   UNK N   1      20.196  20.917   3.939  0.00  0.00    -0.649 OA
BRANCH  21  23
HETATM   23  O   UNK N   1      22.602  20.234   3.276  0.00  0.00    -0.325 OA
HETATM   24  H   UNK N   1      23.031  19.399   3.520  0.00  0.00     0.220 HD
ENDBRANCH  21  23
BRANCH  21  25
HETATM   25  O   UNK N   1      20.861  21.516   1.513  0.00  0.00    -0.325 OA
HETATM   26  H   UNK N   1      20.221  21.729   0.815  0.00  0.00     0.220 HD
ENDBRANCH  21  25
ENDBRANCH  18  21
ENDBRANCH  15  18
ENDBRANCH  11  12
ENDBRANCH   1  11
BRANCH   1  27
HETATM   27  C   UNK N   1      25.489  16.176   5.237  0.00  0.00     0.083 A 
HETATM   28  N   UNK N   1      25.109  17.245   4.475  0.00  0.00    -0.351 N 
HETATM   29  C   UNK N   1      25.943  18.320   4.636  0.00  0.00     0.050 A 
ATOM     30  HN  UNK N   1      24.298  17.242   3.857  1.00  0.00     0.166 HD
HETATM   31  C   UNK N   1      25.795  19.529   3.959  0.00  0.00     0.031 A 
HETATM   32  C   UNK N   1      27.005  18.121   5.515  0.00  0.00     0.033 A 
HETATM   33  C   UNK N   1      26.747  20.538   4.176  0.00  0.00     0.002 A 
HETATM   34  C   UNK N   1      27.831  20.322   5.056  0.00  0.00     0.002 A 
HETATM   35  C   UNK N   1      27.966  19.100   5.741  0.00  0.00     0.021 A 
HETATM   36  S   UNK N   1      26.854  16.579   6.106  0.00  0.00    -0.072 SA
ENDBRANCH   1  27
BRANCH   1  37
HETATM   37  N   UNK N   1      25.127  14.440   3.687  0.00  0.00    -0.256 N 
HETATM   38  C   UNK N   1      24.596  13.361   3.074  0.00  0.00     0.078 A 
HETATM   39  C   UNK N   1      23.733  12.381   3.581  0.00  0.00     0.033 A 
HETATM   40  C   UNK N   1      24.993  13.376   1.787  0.00  0.00     0.074 A 
HETATM   41  C   UNK N   1      23.290  11.383   2.697  0.00  0.00     0.002 A 
HETATM   42  C   UNK N   1      23.704  11.401   1.345  0.00  0.00     0.002 A 
HETATM   43  C   UNK N   1      24.570  12.414   0.871  0.00  0.00     0.033 A 
HETATM   44  N   UNK N   1      25.784  14.456   1.604  0.00  0.00    -0.282 N 
HETATM   45  N   UNK N   1      25.850  15.090   2.778  0.00  0.00    -0.018 NA
ATOM     46  HN  UNK N   1      26.243  14.734   0.735  1.00  0.00     0.184 HD
ENDBRANCH   1  37
TORSDOF 11
ENDMDL
MODEL 7
REMARK VINA RESULT:      -8.4      4.108      7.141
REMARK  11 active torsions:
REMARK  status: ('A' for Active; 'I' for Inactive)
REMARK    1  A    between atoms: C_20  and  C_8 
REMARK    2  A    between atoms: C_22  and  C_11 
REMARK    3  A    between atoms: C_30  and  C_20 
REMARK    4  A    between atoms: C_23  and  C_21 
REMARK    5  A    between atoms: C_30  and  C_21 
REMARK    6  A    between atoms: C_31  and  C_24 
REMARK    7  A    between atoms: C_30  and  C_29 
REMARK    8  A    between atoms: C_30  and  N_39 
REMARK    9  A    between atoms: P_43  and  C_31 
REMARK   10  A    between atoms: P_43  and  O_40 
REMARK   11  A    between atoms: P_43  and  O_41 
ROOT
HETATM    1  C   UNK N   1      22.373  15.172   5.553  0.00  0.00     0.108 C 
ENDROOT
BRANCH   1   2
HETATM    2  C   UNK N   1      22.278  16.678   5.991  0.00  0.00     0.067 C 
BRANCH   2   3
HETATM    3  C   UNK N   1      23.034  17.524   4.958  0.00  0.00    -0.023 C 
HETATM    4  C   UNK N   1      23.649  18.678   5.288  0.00  0.00     0.007 C 
BRANCH   4   5
HETATM    5  C   UNK N   1      24.740  19.268   4.459  0.00  0.00    -0.036 A 
HETATM    6  C   UNK N   1      24.416  19.881   3.237  0.00  0.00     0.011 A 
HETATM    7  C   UNK N   1      25.384  20.593   2.517  0.00  0.00     0.001 A 
HETATM    8  C   UNK N   1      26.682  20.713   3.020  0.00  0.00     0.000 A 
HETATM    9  C   UNK N   1      27.015  20.111   4.235  0.00  0.00     0.001 A 
HETATM   10  C   UNK N   1      26.048  19.401   4.956  0.00  0.00     0.011 A 
ENDBRANCH   4   5
ENDBRANCH   2   3
ENDBRANCH   1   2
BRANCH   1  11
HETATM   11  C   UNK N   1      23.743  15.057   4.867  0.00  0.00     0.078 C 
BRANCH  11  12
HETATM   12  C   UNK N   1      25.136  15.186   5.383  0.00  0.00    -0.055 A 
HETATM   13  C   UNK N   1      26.157  15.503   4.495  0.00  0.00     0.008 A 
HETATM   14  C   UNK N   1      27.341  16.066   4.951  0.00  0.00     0.014 A 
HETATM   15  C   UNK N   1      27.522  16.325   6.313  0.00  0.00     0.025 A 
HETATM   16  C   UNK N   1      26.526  15.946   7.225  0.00  0.00     0.014 A 
HETATM   17  C   UNK N   1      25.323  15.402   6.756  0.00  0.00     0.008 A 
BRANCH  15  18
HETATM   18  C   UNK N   1      28.736  17.095   6.742  0.00  0.00     0.364 C 
HETATM   19  F   UNK N   1      29.061  18.018   5.765  0.00  0.00    -0.187 F 
HETATM   20  F   UNK N   1      29.820  16.262   6.958  0.00  0.00    -0.187 F 
BRANCH  18  21
HETATM   21  P   UNK N   1      28.347  17.978   8.350  0.00  0.00     0.315 P 
HETATM   22  O   UNK N   1      29.645  18.596   8.939  0.00  0.00    -0.649 OA
BRANCH  21  23
HETATM   23  O   UNK N   1      27.273  19.333   8.215  0.00  0.00    -0.325 OA
HETATM   24  H   UNK N   1      26.348  19.280   8.503  0.00  0.00     0.220 HD
ENDBRANCH  21  23
BRANCH  21  25
HETATM   25  O   UNK N   1      27.750  16.984   9.644  0.00  0.00    -0.325 OA
HETATM   26  H   UNK N   1      27.345  17.167  10.506  0.00  0.00     0.220 HD
ENDBRANCH  21  25
ENDBRANCH  18  21
ENDBRANCH  15  18
ENDBRANCH  11  12
ENDBRANCH   1  11
BRANCH   1  27
HETATM   27  C   UNK N   1      22.434  14.116   6.625  0.00  0.00     0.083 A 
HETATM   28  N   UNK N   1      22.045  14.399   7.904  0.00  0.00    -0.351 N 
HETATM   29  C   UNK N   1      22.329  13.378   8.772  0.00  0.00     0.050 A 
ATOM     30  HN  UNK N   1      21.593  15.271   8.180  1.00  0.00     0.166 HD
HETATM   31  C   UNK N   1      22.058  13.419  10.138  0.00  0.00     0.031 A 
HETATM   32  C   UNK N   1      22.961  12.275   8.204  0.00  0.00     0.033 A 
HETATM   33  C   UNK N   1      22.444  12.325  10.929  0.00  0.00     0.002 A 
HETATM   34  C   UNK N   1      23.100  11.217  10.349  0.00  0.00     0.002 A 
HETATM   35  C   UNK N   1      23.363  11.183   8.967  0.00  0.00     0.021 A 
HETATM   36  S   UNK N   1      23.125  12.598   6.586  0.00  0.00    -0.072 SA
ENDBRANCH   1  27
BRANCH   1  37
HETATM   37  N   UNK N   1      21.128  14.871   4.816  0.00  0.00    -0.256 N 
HETATM   38  C   UNK N   1      21.054  14.768   3.473  0.00  0.00     0.078 A 
HETATM   39  C   UNK N   1      22.044  14.974   2.505  0.00  0.00     0.033 A 
HETATM   40  C   UNK N   1      19.811  14.354   3.157  0.00  0.00     0.074 A 
HETATM   41  C   UNK N   1      21.700  14.746   1.162  0.00  0.00     0.002 A 
HETATM   42  C   UNK N   1      20.397  14.309   0.830  0.00  0.00     0.002 A 
HETATM   43  C   UNK N   1      19.428  14.103   1.840  0.00  0.00     0.033 A 
HETATM   44  N   UNK N   1      19.109  14.215   4.303  0.00  0.00    -0.282 N 
HETATM   45  N   UNK N   1      19.936  14.536   5.303  0.00  0.00    -0.018 NA
ATOM     46  HN  UNK N   1      18.135  13.922   4.388  1.00  0.00     0.184 HD
ENDBRANCH   1  37
TORSDOF 11
ENDMDL
MODEL 8
REMARK VINA RESULT:      -8.3      4.762      6.689
REMARK  11 active torsions:
REMARK  status: ('A' for Active; 'I' for Inactive)
REMARK    1  A    between atoms: C_20  and  C_8 
REMARK    2  A    between atoms: C_22  and  C_11 
REMARK    3  A    between atoms: C_30  and  C_20 
REMARK    4  A    between atoms: C_23  and  C_21 
REMARK    5  A    between atoms: C_30  and  C_21 
REMARK    6  A    between atoms: C_31  and  C_24 
REMARK    7  A    between atoms: C_30  and  C_29 
REMARK    8  A    between atoms: C_30  and  N_39 
REMARK    9  A    between atoms: P_43  and  C_31 
REMARK   10  A    between atoms: P_43  and  O_40 
REMARK   11  A    between atoms: P_43  and  O_41 
ROOT
HETATM    1  C   UNK N   1      24.768  13.977   6.044  0.00  0.00     0.108 C 
ENDROOT
BRANCH   1   2
HETATM    2  C   UNK N   1      25.498  12.793   5.314  0.00  0.00     0.067 C 
BRANCH   2   3
HETATM    3  C   UNK N   1      24.668  12.407   4.083  0.00  0.00    -0.023 C 
HETATM    4  C   UNK N   1      25.172  12.459   2.833  0.00  0.00     0.007 C 
BRANCH   4   5
HETATM    5  C   UNK N   1      24.583  11.686   1.701  0.00  0.00    -0.036 A 
HETATM    6  C   UNK N   1      23.920  12.375   0.673  0.00  0.00     0.011 A 
HETATM    7  C   UNK N   1      23.506  11.703  -0.485  0.00  0.00     0.001 A 
HETATM    8  C   UNK N   1      23.767  10.339  -0.633  0.00  0.00     0.000 A 
HETATM    9  C   UNK N   1      24.429   9.643   0.381  0.00  0.00     0.001 A 
HETATM   10  C   UNK N   1      24.844  10.314   1.537  0.00  0.00     0.011 A 
ENDBRANCH   4   5
ENDBRANCH   2   3
ENDBRANCH   1   2
BRANCH   1  11
HETATM   11  C   UNK N   1      23.545  14.276   5.164  0.00  0.00     0.078 C 
BRANCH  11  12
HETATM   12  C   UNK N   1      23.108  15.504   4.440  0.00  0.00    -0.055 A 
HETATM   13  C   UNK N   1      22.788  15.412   3.091  0.00  0.00     0.008 A 
HETATM   14  C   UNK N   1      21.973  16.362   2.491  0.00  0.00     0.014 A 
HETATM   15  C   UNK N   1      21.460  17.426   3.239  0.00  0.00     0.025 A 
HETATM   16  C   UNK N   1      21.832  17.566   4.584  0.00  0.00     0.014 A 
HETATM   17  C   UNK N   1      22.634  16.590   5.189  0.00  0.00     0.008 A 
BRANCH  15  18
HETATM   18  C   UNK N   1      20.444  18.328   2.602  0.00  0.00     0.364 C 
HETATM   19  F   UNK N   1      19.234  18.188   3.257  0.00  0.00    -0.187 F 
HETATM   20  F   UNK N   1      20.270  18.036   1.261  0.00  0.00    -0.187 F 
BRANCH  18  21
HETATM   21  P   UNK N   1      21.043  20.099   2.742  0.00  0.00     0.315 P 
HETATM   22  O   UNK N   1      20.276  20.826   3.879  0.00  0.00    -0.649 OA
BRANCH  21  23
HETATM   23  O   UNK N   1      22.709  20.290   3.185  0.00  0.00    -0.325 OA
HETATM   24  H   UNK N   1      23.304  19.528   3.272  0.00  0.00     0.220 HD
ENDBRANCH  21  23
BRANCH  21  25
HETATM   25  O   UNK N   1      20.768  21.112   1.358  0.00  0.00    -0.325 OA
HETATM   26  H   UNK N   1      21.304  21.372   0.592  0.00  0.00     0.220 HD
ENDBRANCH  21  25
ENDBRANCH  18  21
ENDBRANCH  15  18
ENDBRANCH  11  12
ENDBRANCH   1  11
BRANCH   1  27
HETATM   27  C   UNK N   1      24.164  13.721   7.400  0.00  0.00     0.083 A 
HETATM   28  N   UNK N   1      24.901  13.135   8.390  0.00  0.00    -0.351 N 
HETATM   29  C   UNK N   1      24.143  12.826   9.488  0.00  0.00     0.050 A 
ATOM     30  HN  UNK N   1      25.901  12.949   8.319  1.00  0.00     0.166 HD
HETATM   31  C   UNK N   1      24.642  12.201  10.630  0.00  0.00     0.031 A 
HETATM   32  C   UNK N   1      22.791  13.146   9.386  0.00  0.00     0.033 A 
HETATM   33  C   UNK N   1      23.749  11.894  11.669  0.00  0.00     0.002 A 
HETATM   34  C   UNK N   1      22.377  12.206  11.550  0.00  0.00     0.002 A 
HETATM   35  C   UNK N   1      21.884  12.845  10.397  0.00  0.00     0.021 A 
HETATM   36  S   UNK N   1      22.578  13.853   7.901  0.00  0.00    -0.072 SA
ENDBRANCH   1  27
BRANCH   1  37
HETATM   37  N   UNK N   1      25.794  15.011   6.293  0.00  0.00    -0.256 N 
HETATM   38  C   UNK N   1      26.476  15.647   5.317  0.00  0.00     0.078 A 
HETATM   39  C   UNK N   1      26.440  15.452   3.931  0.00  0.00     0.033 A 
HETATM   40  C   UNK N   1      27.222  16.610   5.891  0.00  0.00     0.074 A 
HETATM   41  C   UNK N   1      27.229  16.299   3.134  0.00  0.00     0.002 A 
HETATM   42  C   UNK N   1      28.009  17.313   3.736  0.00  0.00     0.002 A 
HETATM   43  C   UNK N   1      28.010  17.482   5.140  0.00  0.00     0.033 A 
HETATM   44  N   UNK N   1      27.015  16.564   7.225  0.00  0.00    -0.282 N 
HETATM   45  N   UNK N   1      26.139  15.580   7.446  0.00  0.00    -0.018 NA
ATOM     46  HN  UNK N   1      27.446  17.164   7.929  1.00  0.00     0.184 HD
ENDBRANCH   1  37
TORSDOF 11
ENDMDL
MODEL 9
REMARK VINA RESULT:      -8.2      2.407      3.747
REMARK  11 active torsions:
REMARK  status: ('A' for Active; 'I' for Inactive)
REMARK    1  A    between atoms: C_20  and  C_8 
REMARK    2  A    between atoms: C_22  and  C_11 
REMARK    3  A    between atoms: C_30  and  C_20 
REMARK    4  A    between atoms: C_23  and  C_21 
REMARK    5  A    between atoms: C_30  and  C_21 
REMARK    6  A    between atoms: C_31  and  C_24 
REMARK    7  A    between atoms: C_30  and  C_29 
REMARK    8  A    between atoms: C_30  and  N_39 
REMARK    9  A    between atoms: P_43  and  C_31 
REMARK   10  A    between atoms: P_43  and  O_40 
REMARK   11  A    between atoms: P_43  and  O_41 
ROOT
HETATM    1  C   UNK N   1      26.933  16.951   4.544  0.00  0.00     0.108 C 
ENDROOT
BRANCH   1   2
HETATM    2  C   UNK N   1      26.668  15.901   3.405  0.00  0.00     0.067 C 
BRANCH   2   3
HETATM    3  C   UNK N   1      27.796  14.861   3.442  0.00  0.00    -0.023 C 
HETATM    4  C   UNK N   1      28.269  14.277   2.323  0.00  0.00     0.007 C 
BRANCH   4   5
HETATM    5  C   UNK N   1      29.617  13.638   2.263  0.00  0.00    -0.036 A 
HETATM    6  C   UNK N   1      29.852  12.625   1.320  0.00  0.00     0.011 A 
HETATM    7  C   UNK N   1      31.145  12.123   1.119  0.00  0.00     0.001 A 
HETATM    8  C   UNK N   1      32.218  12.642   1.848  0.00  0.00     0.000 A 
HETATM    9  C   UNK N   1      31.997  13.653   2.786  0.00  0.00     0.001 A 
HETATM   10  C   UNK N   1      30.706  14.155   2.986  0.00  0.00     0.011 A 
ENDBRANCH   4   5
ENDBRANCH   2   3
ENDBRANCH   1   2
BRANCH   1  11
HETATM   11  C   UNK N   1      26.241  16.358   5.781  0.00  0.00     0.078 C 
BRANCH  11  12
HETATM   12  C   UNK N   1      25.366  15.165   5.963  0.00  0.00    -0.055 A 
HETATM   13  C   UNK N   1      25.951  13.939   6.256  0.00  0.00     0.008 A 
HETATM   14  C   UNK N   1      25.215  12.931   6.865  0.00  0.00     0.014 A 
HETATM   15  C   UNK N   1      23.873  13.138   7.195  0.00  0.00     0.025 A 
HETATM   16  C   UNK N   1      23.253  14.346   6.842  0.00  0.00     0.014 A 
HETATM   17  C   UNK N   1      24.009  15.368   6.250  0.00  0.00     0.008 A 
BRANCH  15  18
HETATM   18  C   UNK N   1      23.164  12.095   8.009  0.00  0.00     0.364 C 
HETATM   19  F   UNK N   1      23.778  10.871   7.816  0.00  0.00    -0.187 F 
HETATM   20  F   UNK N   1      21.830  11.993   7.660  0.00  0.00    -0.187 F 
BRANCH  18  21
HETATM   21  P   UNK N   1      23.262  12.580   9.817  0.00  0.00     0.315 P 
HETATM   22  O   UNK N   1      22.209  13.679  10.126  0.00  0.00    -0.649 OA
BRANCH  21  23
HETATM   23  O   UNK N   1      22.884  11.320  10.948  0.00  0.00    -0.325 OA
HETATM   24  H   UNK N   1      22.885  11.478  11.905  0.00  0.00     0.220 HD
ENDBRANCH  21  23
BRANCH  21  25
HETATM   25  O   UNK N   1      24.757  13.296  10.338  0.00  0.00    -0.325 OA
HETATM   26  H   UNK N   1      25.411  13.877   9.920  0.00  0.00     0.220 HD
ENDBRANCH  21  25
ENDBRANCH  18  21
ENDBRANCH  15  18
ENDBRANCH  11  12
ENDBRANCH   1  11
BRANCH   1  27
HETATM   27  C   UNK N   1      28.350  17.163   5.009  0.00  0.00     0.083 A 
HETATM   28  N   UNK N   1      29.349  17.407   4.109  0.00  0.00    -0.351 N 
HETATM   29  C   UNK N   1      30.587  17.402   4.694  0.00  0.00     0.050 A 
ATOM     30  HN  UNK N   1      29.189  17.573   3.116  1.00  0.00     0.166 HD
HETATM   31  C   UNK N   1      31.778  17.601   3.998  0.00  0.00     0.031 A 
HETATM   32  C   UNK N   1      30.597  17.141   6.062  0.00  0.00     0.033 A 
HETATM   33  C   UNK N   1      32.988  17.523   4.707  0.00  0.00     0.002 A 
HETATM   34  C   UNK N   1      32.990  17.241   6.091  0.00  0.00     0.002 A 
HETATM   35  C   UNK N   1      31.781  17.050   6.786  0.00  0.00     0.021 A 
HETATM   36  S   UNK N   1      29.016  16.948   6.524  0.00  0.00    -0.072 SA
ENDBRANCH   1  27
BRANCH   1  37
HETATM   37  N   UNK N   1      26.527  18.265   4.003  0.00  0.00    -0.256 N 
HETATM   38  C   UNK N   1      25.246  18.621   3.770  0.00  0.00     0.078 A 
HETATM   39  C   UNK N   1      24.073  17.869   3.902  0.00  0.00     0.033 A 
HETATM   40  C   UNK N   1      25.235  19.920   3.413  0.00  0.00     0.074 A 
HETATM   41  C   UNK N   1      22.853  18.514   3.635  0.00  0.00     0.002 A 
HETATM   42  C   UNK N   1      22.840  19.878   3.263  0.00  0.00     0.002 A 
HETATM   43  C   UNK N   1      24.049  20.604   3.151  0.00  0.00     0.033 A 
HETATM   44  N   UNK N   1      26.510  20.367   3.410  0.00  0.00    -0.282 N 
HETATM   45  N   UNK N   1      27.280  19.338   3.775  0.00  0.00    -0.018 NA
ATOM     46  HN  UNK N   1      26.824  21.308   3.174  1.00  0.00     0.184 HD
ENDBRANCH   1  37
TORSDOF 11
ENDMDL
