REMARK  8 active torsions:
REMARK  status: ('A' for Active; 'I' for Inactive)
REMARK    1  A    between atoms: C_10  and  C_5 
REMARK    2  A    between atoms: O_19  and  C_5 
REMARK    3  A    between atoms: C_9  and  C_7 
REMARK    4  A    between atoms: C_8  and  O_14 
REMARK    5  A    between atoms: O_15  and  C_11 
REMARK    6  A    between atoms: P_21  and  O_16 
REMARK    7  A    between atoms: P_21  and  O_17 
REMARK    8  A    between atoms: P_21  and  O_19 
ROOT
HETATM    1  C   UNK N   1       0.126   2.391  -0.122  0.00  0.00     0.071 C 
HETATM    2  C   UNK N   1      -1.026   3.216   0.336  0.00  0.00     0.152 C 
HETATM    3  C   UNK N   1      -0.559   1.236  -0.860  0.00  0.00     0.159 C 
HETATM    4  C   UNK N   1      -2.019   2.105   0.604  0.00  0.00     0.175 C 
HETATM    5  O   UNK N   1      -1.934   1.230  -0.496  0.00  0.00    -0.371 OA
ENDROOT
BRANCH   3   6
HETATM    6  C   UNK N   1       0.118  -0.065  -0.499  0.00  0.00    -0.013 A 
HETATM    7  C   UNK N   1      -0.622  -1.180  -0.084  0.00  0.00     0.022 A 
HETATM    8  C   UNK N   1       0.033  -2.364   0.264  0.00  0.00    -0.011 A 
HETATM    9  C   UNK N   1      -0.762  -3.555   0.673  0.00  0.00     0.052 C 
HETATM   10  C   UNK N   1       1.434  -2.408   0.220  0.00  0.00     0.145 A 
HETATM   11  N   UNK N   1       2.136  -1.320  -0.188  0.00  0.00    -0.346 N 
HETATM   12  C   UNK N   1       1.514  -0.168  -0.560  0.00  0.00     0.100 A 
ATOM     13  HN  UNK N   1       3.155  -1.367  -0.217  1.00  0.00     0.167 HD
BRANCH  10  14
HETATM   14  O   UNK N   1       2.092  -3.528   0.577  0.00  0.00    -0.346 OA
HETATM   15  H   UNK N   1       1.646  -4.313   0.825  0.00  0.00     0.219 HD
ENDBRANCH  10  14
ENDBRANCH   3   6
BRANCH   2  16
HETATM   16  O   UNK N   1      -1.442   4.035  -0.718  0.00  0.00    -0.393 OA
HETATM   17  H   UNK N   1      -1.094   4.569  -1.449  0.00  0.00     0.210 HD
ENDBRANCH   2  16
BRANCH   4  18
HETATM   18  C   UNK N   1      -3.447   2.582   0.870  0.00  0.00     0.215 C 
BRANCH  18  19
HETATM   19  O   UNK N   1      -3.990   3.264  -0.222  0.00  0.00    -0.294 OA
BRANCH  19  20
HETATM   20  P   UNK N   1      -5.257   4.239   0.463  0.00  0.00     0.390 P 
HETATM   21  O   UNK N   1      -6.030   3.356  -0.553  0.00  0.00    -0.632 OA
BRANCH  20  22
HETATM   22  O   UNK N   1      -6.093   5.409  -0.509  0.00  0.00    -0.307 OA
HETATM   23  H   UNK N   1      -5.760   6.140  -1.053  0.00  0.00     0.222 HD
ENDBRANCH  20  22
BRANCH  20  24
HETATM   24  O   UNK N   1      -4.133   5.262  -0.377  0.00  0.00    -0.307 OA
HETATM   25  H   UNK N   1      -3.324   5.003  -0.846  0.00  0.00     0.222 HD
ENDBRANCH  20  24
ENDBRANCH  19  20
ENDBRANCH  18  19
ENDBRANCH   4  18
TORSDOF 8
