MODEL 1
REMARK VINA RESULT:      -4.3      0.000      0.000
REMARK  3 active torsions:
REMARK  status: ('A' for Active; 'I' for Inactive)
REMARK    1  A    between atoms: C_2  and  C_4 
REMARK    2  A    between atoms: C_4  and  C_6 
REMARK    3  A    between atoms: C_6  and  O_7 
ROOT
HETATM    1  C   UNK N   1      33.844  17.783   7.357  0.00  0.00     0.225 C 
HETATM    2  O   UNK N   1      34.303  17.874   6.229  0.00  0.00    -0.286 OA
ENDROOT
BRANCH   1   3
HETATM    3  C   UNK N   1      32.448  17.204   7.512  0.00  0.00     0.059 C 
HETATM    4  C   UNK N   1      31.758  17.100   6.163  0.00  0.00     0.018 C 
HETATM    5  C   UNK N   1      31.525  17.940   8.470  0.00  0.00     0.018 C 
ENDBRANCH   1   3
BRANCH   1   6
HETATM    6  C   UNK N   1      34.699  18.225   8.495  0.00  0.00     0.213 C 
HETATM    7  O   UNK N   1      35.304  19.282   8.463  0.00  0.00    -0.644 OA
BRANCH   6   8
HETATM    8  O   UNK N   1      34.791  17.449   9.594  0.00  0.00    -0.771 OA
HETATM    9  H   UNK N   1      34.987  16.536   9.519  0.00  0.00     0.167 HD
ENDBRANCH   6   8
ENDBRANCH   1   6
TORSDOF 3
ENDMDL
MODEL 2
REMARK VINA RESULT:      -4.3     12.953     14.360
REMARK  3 active torsions:
REMARK  status: ('A' for Active; 'I' for Inactive)
REMARK    1  A    between atoms: C_2  and  C_4 
REMARK    2  A    between atoms: C_4  and  C_6 
REMARK    3  A    between atoms: C_6  and  O_7 
ROOT
HETATM    1  C   UNK N   1      21.366  20.688   2.366  0.00  0.00     0.225 C 
HETATM    2  O   UNK N   1      22.334  21.288   2.809  0.00  0.00    -0.286 OA
ENDROOT
BRANCH   1   3
HETATM    3  C   UNK N   1      20.713  19.641   3.253  0.00  0.00     0.059 C 
HETATM    4  C   UNK N   1      21.686  18.520   3.565  0.00  0.00     0.018 C 
HETATM    5  C   UNK N   1      19.426  19.030   2.724  0.00  0.00     0.018 C 
ENDBRANCH   1   3
BRANCH   1   6
HETATM    6  C   UNK N   1      20.888  21.046   1.001  0.00  0.00     0.213 C 
HETATM    7  O   UNK N   1      20.959  20.257   0.075  0.00  0.00    -0.644 OA
BRANCH   6   8
HETATM    8  O   UNK N   1      20.347  22.262   0.787  0.00  0.00    -0.771 OA
HETATM    9  H   UNK N   1      20.209  22.577  -0.085  0.00  0.00     0.167 HD
ENDBRANCH   6   8
ENDBRANCH   1   6
TORSDOF 3
ENDMDL
MODEL 3
REMARK VINA RESULT:      -4.2      1.332      2.268
REMARK  3 active torsions:
REMARK  status: ('A' for Active; 'I' for Inactive)
REMARK    1  A    between atoms: C_2  and  C_4 
REMARK    2  A    between atoms: C_4  and  C_6 
REMARK    3  A    between atoms: C_6  and  O_7 
ROOT
HETATM    1  C   UNK N   1      34.556  18.103   8.480  0.00  0.00     0.225 C 
HETATM    2  O   UNK N   1      35.281  19.086   8.499  0.00  0.00    -0.286 OA
ENDROOT
BRANCH   1   3
HETATM    3  C   UNK N   1      33.391  18.099   7.505  0.00  0.00     0.059 C 
HETATM    4  C   UNK N   1      32.149  17.516   8.155  0.00  0.00     0.018 C 
HETATM    5  C   UNK N   1      33.629  17.380   6.187  0.00  0.00     0.018 C 
ENDBRANCH   1   3
BRANCH   1   6
HETATM    6  C   UNK N   1      34.885  16.976   9.398  0.00  0.00     0.213 C 
HETATM    7  O   UNK N   1      35.128  15.860   8.973  0.00  0.00    -0.644 OA
BRANCH   6   8
HETATM    8  O   UNK N   1      34.934  17.198  10.727  0.00  0.00    -0.771 OA
HETATM    9  H   UNK N   1      35.364  17.957  11.069  0.00  0.00     0.167 HD
ENDBRANCH   6   8
ENDBRANCH   1   6
TORSDOF 3
ENDMDL
MODEL 4
REMARK VINA RESULT:      -4.1     11.826     12.833
REMARK  3 active torsions:
REMARK  status: ('A' for Active; 'I' for Inactive)
REMARK    1  A    between atoms: C_2  and  C_4 
REMARK    2  A    between atoms: C_4  and  C_6 
REMARK    3  A    between atoms: C_6  and  O_7 
ROOT
HETATM    1  C   UNK N   1      22.831  11.964  10.892  0.00  0.00     0.225 C 
HETATM    2  O   UNK N   1      22.972  11.076  10.065  0.00  0.00    -0.286 OA
ENDROOT
BRANCH   1   3
HETATM    3  C   UNK N   1      21.595  12.842  10.788  0.00  0.00     0.059 C 
HETATM    4  C   UNK N   1      20.410  12.184  11.470  0.00  0.00     0.018 C 
HETATM    5  C   UNK N   1      21.181  13.242   9.381  0.00  0.00     0.018 C 
ENDBRANCH   1   3
BRANCH   1   6
HETATM    6  C   UNK N   1      23.870  12.102  11.951  0.00  0.00     0.213 C 
HETATM    7  O   UNK N   1      23.595  11.976  13.132  0.00  0.00    -0.644 OA
BRANCH   6   8
HETATM    8  O   UNK N   1      25.147  12.353  11.597  0.00  0.00    -0.771 OA
HETATM    9  H   UNK N   1      25.360  13.103  11.077  0.00  0.00     0.167 HD
ENDBRANCH   6   8
ENDBRANCH   1   6
TORSDOF 3
ENDMDL
MODEL 5
REMARK VINA RESULT:      -3.9     11.259     12.414
REMARK  3 active torsions:
REMARK  status: ('A' for Active; 'I' for Inactive)
REMARK    1  A    between atoms: C_2  and  C_4 
REMARK    2  A    between atoms: C_4  and  C_6 
REMARK    3  A    between atoms: C_6  and  O_7 
ROOT
HETATM    1  C   UNK N   1      30.690  22.790  -2.584  0.00  0.00     0.225 C 
HETATM    2  O   UNK N   1      30.463  23.026  -1.408  0.00  0.00    -0.286 OA
ENDROOT
BRANCH   1   3
HETATM    3  C   UNK N   1      30.096  23.726  -3.624  0.00  0.00     0.059 C 
HETATM    4  C   UNK N   1      30.723  25.105  -3.525  0.00  0.00     0.018 C 
HETATM    5  C   UNK N   1      28.584  23.880  -3.593  0.00  0.00     0.018 C 
ENDBRANCH   1   3
BRANCH   1   6
HETATM    6  C   UNK N   1      31.550  21.617  -2.907  0.00  0.00     0.213 C 
HETATM    7  O   UNK N   1      31.364  20.948  -3.909  0.00  0.00    -0.644 OA
BRANCH   6   8
HETATM    8  O   UNK N   1      32.570  21.298  -2.086  0.00  0.00    -0.771 OA
HETATM    9  H   UNK N   1      32.681  21.741  -1.267  0.00  0.00     0.167 HD
ENDBRANCH   6   8
ENDBRANCH   1   6
TORSDOF 3
ENDMDL
MODEL 6
REMARK VINA RESULT:      -3.9     12.482     13.543
REMARK  3 active torsions:
REMARK  status: ('A' for Active; 'I' for Inactive)
REMARK    1  A    between atoms: C_2  and  C_4 
REMARK    2  A    between atoms: C_4  and  C_6 
REMARK    3  A    between atoms: C_6  and  O_7 
ROOT
HETATM    1  C   UNK N   1      21.491  12.353  10.927  0.00  0.00     0.225 C 
HETATM    2  O   UNK N   1      20.563  12.108  11.682  0.00  0.00    -0.286 OA
ENDROOT
BRANCH   1   3
HETATM    3  C   UNK N   1      22.854  11.771  11.265  0.00  0.00     0.059 C 
HETATM    4  C   UNK N   1      23.136  11.895  12.752  0.00  0.00     0.018 C 
HETATM    5  C   UNK N   1      24.033  12.348  10.500  0.00  0.00     0.018 C 
ENDBRANCH   1   3
BRANCH   1   6
HETATM    6  C   UNK N   1      21.211  13.185   9.723  0.00  0.00     0.213 C 
HETATM    7  O   UNK N   1      21.207  14.402   9.778  0.00  0.00    -0.644 OA
BRANCH   6   8
HETATM    8  O   UNK N   1      20.977  12.580   8.541  0.00  0.00    -0.771 OA
HETATM    9  H   UNK N   1      21.123  11.660   8.438  0.00  0.00     0.167 HD
ENDBRANCH   6   8
ENDBRANCH   1   6
TORSDOF 3
ENDMDL
MODEL 7
REMARK VINA RESULT:      -3.9      1.926      3.036
REMARK  3 active torsions:
REMARK  status: ('A' for Active; 'I' for Inactive)
REMARK    1  A    between atoms: C_2  and  C_4 
REMARK    2  A    between atoms: C_4  and  C_6 
REMARK    3  A    between atoms: C_6  and  O_7 
ROOT
HETATM    1  C   UNK N   1      34.626  17.074   9.092  0.00  0.00     0.225 C 
HETATM    2  O   UNK N   1      34.910  17.245  10.268  0.00  0.00    -0.286 OA
ENDROOT
BRANCH   1   3
HETATM    3  C   UNK N   1      34.136  15.698   8.673  0.00  0.00     0.059 C 
HETATM    4  C   UNK N   1      32.721  15.458   9.168  0.00  0.00     0.018 C 
HETATM    5  C   UNK N   1      35.003  14.525   9.102  0.00  0.00     0.018 C 
ENDBRANCH   1   3
BRANCH   1   6
HETATM    6  C   UNK N   1      34.761  18.233   8.165  0.00  0.00     0.213 C 
HETATM    7  O   UNK N   1      34.336  18.188   7.024  0.00  0.00    -0.644 OA
BRANCH   6   8
HETATM    8  O   UNK N   1      35.348  19.366   8.603  0.00  0.00    -0.771 OA
HETATM    9  H   UNK N   1      36.016  19.784   8.096  0.00  0.00     0.167 HD
ENDBRANCH   6   8
ENDBRANCH   1   6
TORSDOF 3
ENDMDL
MODEL 8
REMARK VINA RESULT:      -3.9      9.273     10.191
REMARK  3 active torsions:
REMARK  status: ('A' for Active; 'I' for Inactive)
REMARK    1  A    between atoms: C_2  and  C_4 
REMARK    2  A    between atoms: C_4  and  C_6 
REMARK    3  A    between atoms: C_6  and  O_7 
ROOT
HETATM    1  C   UNK N   1      35.425  13.123  15.681  0.00  0.00     0.225 C 
HETATM    2  O   UNK N   1      34.567  13.265  14.823  0.00  0.00    -0.286 OA
ENDROOT
BRANCH   1   3
HETATM    3  C   UNK N   1      34.967  12.855  17.105  0.00  0.00     0.059 C 
HETATM    4  C   UNK N   1      35.313  14.025  18.009  0.00  0.00     0.018 C 
HETATM    5  C   UNK N   1      35.491  11.580  17.743  0.00  0.00     0.018 C 
ENDBRANCH   1   3
BRANCH   1   6
HETATM    6  C   UNK N   1      36.852  13.202  15.261  0.00  0.00     0.213 C 
HETATM    7  O   UNK N   1      37.424  12.245  14.769  0.00  0.00    -0.644 OA
BRANCH   6   8
HETATM    8  O   UNK N   1      37.523  14.362  15.408  0.00  0.00    -0.771 OA
HETATM    9  H   UNK N   1      38.437  14.363  15.612  0.00  0.00     0.167 HD
ENDBRANCH   6   8
ENDBRANCH   1   6
TORSDOF 3
ENDMDL
MODEL 9
REMARK VINA RESULT:      -3.8     15.488     16.736
REMARK  3 active torsions:
REMARK  status: ('A' for Active; 'I' for Inactive)
REMARK    1  A    between atoms: C_2  and  C_4 
REMARK    2  A    between atoms: C_4  and  C_6 
REMARK    3  A    between atoms: C_6  and  O_7 
ROOT
HETATM    1  C   UNK N   1      26.149  27.042  -3.585  0.00  0.00     0.225 C 
HETATM    2  O   UNK N   1      25.930  27.508  -2.477  0.00  0.00    -0.286 OA
ENDROOT
BRANCH   1   3
HETATM    3  C   UNK N   1      25.718  27.855  -4.795  0.00  0.00     0.059 C 
HETATM    4  C   UNK N   1      24.784  27.049  -5.678  0.00  0.00     0.018 C 
HETATM    5  C   UNK N   1      26.840  28.410  -5.658  0.00  0.00     0.018 C 
ENDBRANCH   1   3
BRANCH   1   6
HETATM    6  C   UNK N   1      26.841  25.725  -3.664  0.00  0.00     0.213 C 
HETATM    7  O   UNK N   1      28.037  25.648  -3.890  0.00  0.00    -0.644 OA
BRANCH   6   8
HETATM    8  O   UNK N   1      26.136  24.594  -3.463  0.00  0.00    -0.771 OA
HETATM    9  H   UNK N   1      25.484  24.551  -2.791  0.00  0.00     0.167 HD
ENDBRANCH   6   8
ENDBRANCH   1   6
TORSDOF 3
ENDMDL
