MODEL 1
REMARK VINA RESULT:      -8.0      0.000      0.000
REMARK  17 active torsions:
REMARK  status: ('A' for Active; 'I' for Inactive)
REMARK    1  A    between atoms: C_10  and  C_9 
REMARK    2  A    between atoms: C_17  and  C_9 
REMARK    3  A    between atoms: C_19  and  C_10 
REMARK    4  A    between atoms: C_20  and  C_11 
REMARK    5  A    between atoms: N_26  and  C_11 
REMARK    6  A    between atoms: C_18  and  C_12 
REMARK    7  A    between atoms: S_37  and  C_12 
REMARK    8  A    between atoms: C_24  and  C_17 
REMARK    9  A    between atoms: C_17  and  N_25 
REMARK   10  A    between atoms: C_23  and  C_18 
REMARK   11  A    between atoms: C_18  and  N_28 
REMARK   12  A    between atoms: C_19  and  O_30 
REMARK   13  A    between atoms: O_32  and  C_20 
REMARK   14  A    between atoms: C_21  and  O_33 
REMARK   15  A    between atoms: C_22  and  S_37 
REMARK   16  A    between atoms: O_34  and  C_23 
REMARK   17  A    between atoms: O_36  and  C_24 
ROOT
HETATM    1  C   UNK N   1      22.289  17.904   4.887  0.00  0.00     0.167 C 
ENDROOT
BRANCH   1   2
HETATM    2  C   UNK N   1      23.631  17.229   4.612  0.00  0.00     0.108 C 
BRANCH   2   3
HETATM    3  S   UNK N   1      24.870  18.411   3.965  0.00  0.00    -0.154 SA
BRANCH   3   4
HETATM    4  C   UNK N   1      26.265  17.894   5.042  0.00  0.00     0.114 C 
HETATM    5  C   UNK N   1      27.245  16.955   4.359  0.00  0.00    -0.030 A 
HETATM    6  C   UNK N   1      26.947  16.347   3.130  0.00  0.00     0.009 A 
HETATM    7  C   UNK N   1      28.455  16.640   5.015  0.00  0.00    -0.018 A 
HETATM    8  C   UNK N   1      27.830  15.425   2.566  0.00  0.00     0.001 A 
HETATM    9  C   UNK N   1      29.011  15.088   3.234  0.00  0.00     0.001 A 
HETATM   10  C   UNK N   1      29.324  15.696   4.452  0.00  0.00     0.013 A 
HETATM   11  C   UNK N   1      28.794  17.337   6.281  0.00  0.00    -0.017 A 
HETATM   12  C   UNK N   1      29.817  16.865   7.115  0.00  0.00     0.013 A 
HETATM   13  C   UNK N   1      28.065  18.491   6.656  0.00  0.00    -0.017 A 
HETATM   14  C   UNK N   1      30.100  17.514   8.320  0.00  0.00     0.001 A 
HETATM   15  C   UNK N   1      29.363  18.638   8.701  0.00  0.00     0.001 A 
HETATM   16  C   UNK N   1      28.355  19.130   7.870  0.00  0.00     0.011 A 
HETATM   17  C   UNK N   1      27.025  19.055   5.707  0.00  0.00     0.170 C 
BRANCH  17  18
HETATM   18  O   UNK N   1      26.142  19.908   6.379  0.00  0.00    -0.389 OA
HETATM   19  H   UNK N   1      25.903  19.836   7.316  0.00  0.00     0.210 HD
ENDBRANCH  17  18
ENDBRANCH   3   4
ENDBRANCH   2   3
ENDBRANCH   1   2
BRANCH   1  20
HETATM   20  C   UNK N   1      21.469  18.139   3.649  0.00  0.00     0.136 C 
HETATM   21  N   UNK N   1      21.146  19.350   3.362  0.00  0.00    -0.363 N 
ATOM     22  HN  UNK N   1      21.555  20.103   3.916  1.00  0.00     0.161 HD
BRANCH  21  23
HETATM   23  C   UNK N   1      20.240  19.699   2.299  0.00  0.00     0.231 C 
BRANCH  23  24
HETATM   24  C   UNK N   1      21.010  20.360   1.185  0.00  0.00     0.158 C 
HETATM   25  O   UNK N   1      22.156  20.749   1.361  0.00  0.00    -0.649 OA
BRANCH  24  26
HETATM   26  O   UNK N   1      20.431  20.524  -0.017  0.00  0.00    -0.775 OA
HETATM   27  H   UNK N   1      19.516  20.695  -0.120  0.00  0.00     0.167 HD
ENDBRANCH  24  26
ENDBRANCH  23  24
ENDBRANCH  21  23
BRANCH  20  28
HETATM   28  O   UNK N   1      21.019  17.106   2.900  0.00  0.00    -0.348 OA
HETATM   29  H   UNK N   1      21.492  16.298   2.853  0.00  0.00     0.219 HD
ENDBRANCH  20  28
ENDBRANCH   1  20
BRANCH   1  30
HETATM   30  N   UNK N   1      21.477  17.054   5.738  0.00  0.00    -0.362 N 
HETATM   31  C   UNK N   1      20.868  17.442   6.800  0.00  0.00     0.111 C 
ATOM     32  HN  UNK N   1      21.382  16.074   5.473  1.00  0.00     0.162 HD
BRANCH  31  33
HETATM   33  C   UNK N   1      19.915  16.491   7.448  0.00  0.00     0.086 C 
BRANCH  33  34
HETATM   34  C   UNK N   1      19.590  16.761   8.911  0.00  0.00     0.043 C 
BRANCH  34  35
HETATM   35  C   UNK N   1      18.532  17.845   9.160  0.00  0.00     0.173 C 
BRANCH  35  36
HETATM   36  C   UNK N   1      18.993  18.960  10.072  0.00  0.00     0.163 C 
HETATM   37  O   UNK N   1      20.129  19.395   9.979  0.00  0.00    -0.648 OA
BRANCH  36  38
HETATM   38  O   UNK N   1      18.150  19.503  10.973  0.00  0.00    -0.775 OA
HETATM   39  H   UNK N   1      18.387  20.006  11.728  0.00  0.00     0.167 HD
ENDBRANCH  36  38
ENDBRANCH  35  36
BRANCH  35  40
HETATM   40  N   UNK N   1      17.323  17.243   9.695  0.00  0.00    -0.418 N 
HETATM   41  H   UNK N   1      16.647  17.026  10.428  0.00  0.00     0.150 HD
HETATM   42  H   UNK N   1      16.928  16.776   8.879  0.00  0.00     0.150 HD
ENDBRANCH  35  40
ENDBRANCH  34  35
ENDBRANCH  33  34
ENDBRANCH  31  33
BRANCH  31  43
HETATM   43  O   UNK N   1      20.968  18.717   7.231  0.00  0.00    -0.350 OA
HETATM   44  H   UNK N   1      20.687  19.576   7.480  0.00  0.00     0.219 HD
ENDBRANCH  31  43
ENDBRANCH   1  30
TORSDOF 17
ENDMDL
MODEL 2
REMARK VINA RESULT:      -7.8      2.326      5.405
REMARK  17 active torsions:
REMARK  status: ('A' for Active; 'I' for Inactive)
REMARK    1  A    between atoms: C_10  and  C_9 
REMARK    2  A    between atoms: C_17  and  C_9 
REMARK    3  A    between atoms: C_19  and  C_10 
REMARK    4  A    between atoms: C_20  and  C_11 
REMARK    5  A    between atoms: N_26  and  C_11 
REMARK    6  A    between atoms: C_18  and  C_12 
REMARK    7  A    between atoms: S_37  and  C_12 
REMARK    8  A    between atoms: C_24  and  C_17 
REMARK    9  A    between atoms: C_17  and  N_25 
REMARK   10  A    between atoms: C_23  and  C_18 
REMARK   11  A    between atoms: C_18  and  N_28 
REMARK   12  A    between atoms: C_19  and  O_30 
REMARK   13  A    between atoms: O_32  and  C_20 
REMARK   14  A    between atoms: C_21  and  O_33 
REMARK   15  A    between atoms: C_22  and  S_37 
REMARK   16  A    between atoms: O_34  and  C_23 
REMARK   17  A    between atoms: O_36  and  C_24 
ROOT
HETATM    1  C   UNK N   1      21.320  15.878   5.428  0.00  0.00     0.167 C 
ENDROOT
BRANCH   1   2
HETATM    2  C   UNK N   1      22.717  15.272   5.312  0.00  0.00     0.108 C 
BRANCH   2   3
HETATM    3  S   UNK N   1      23.403  15.453   3.625  0.00  0.00    -0.154 SA
BRANCH   3   4
HETATM    4  C   UNK N   1      24.834  16.516   4.071  0.00  0.00     0.114 C 
HETATM    5  C   UNK N   1      26.145  16.058   3.457  0.00  0.00    -0.030 A 
HETATM    6  C   UNK N   1      26.272  14.802   2.844  0.00  0.00     0.009 A 
HETATM    7  C   UNK N   1      27.277  16.896   3.567  0.00  0.00    -0.018 A 
HETATM    8  C   UNK N   1      27.511  14.374   2.362  0.00  0.00     0.001 A 
HETATM    9  C   UNK N   1      28.637  15.190   2.503  0.00  0.00     0.001 A 
HETATM   10  C   UNK N   1      28.520  16.447   3.101  0.00  0.00     0.013 A 
HETATM   11  C   UNK N   1      27.120  18.249   4.156  0.00  0.00    -0.017 A 
HETATM   12  C   UNK N   1      28.236  18.998   4.555  0.00  0.00     0.013 A 
HETATM   13  C   UNK N   1      25.822  18.786   4.326  0.00  0.00    -0.017 A 
HETATM   14  C   UNK N   1      28.068  20.256   5.139  0.00  0.00     0.001 A 
HETATM   15  C   UNK N   1      26.785  20.775   5.328  0.00  0.00     0.001 A 
HETATM   16  C   UNK N   1      25.666  20.048   4.918  0.00  0.00     0.011 A 
HETATM   17  C   UNK N   1      24.623  18.017   3.806  0.00  0.00     0.170 C 
BRANCH  17  18
HETATM   18  O   UNK N   1      23.439  18.467   4.402  0.00  0.00    -0.389 OA
HETATM   19  H   UNK N   1      23.205  19.398   4.541  0.00  0.00     0.210 HD
ENDBRANCH  17  18
ENDBRANCH   3   4
ENDBRANCH   2   3
ENDBRANCH   1   2
BRANCH   1  20
HETATM   20  C   UNK N   1      21.173  16.836   6.576  0.00  0.00     0.136 C 
HETATM   21  N   UNK N   1      20.211  16.638   7.406  0.00  0.00    -0.363 N 
ATOM     22  HN  UNK N   1      19.666  15.780   7.318  1.00  0.00     0.161 HD
BRANCH  21  23
HETATM   23  C   UNK N   1      19.864  17.561   8.454  0.00  0.00     0.231 C 
BRANCH  23  24
HETATM   24  C   UNK N   1      18.514  17.196   9.013  0.00  0.00     0.158 C 
HETATM   25  O   UNK N   1      18.122  16.037   8.998  0.00  0.00    -0.649 OA
BRANCH  24  26
HETATM   26  O   UNK N   1      17.728  18.153   9.535  0.00  0.00    -0.775 OA
HETATM   27  H   UNK N   1      17.340  18.084  10.385  0.00  0.00     0.167 HD
ENDBRANCH  24  26
ENDBRANCH  23  24
ENDBRANCH  21  23
BRANCH  20  28
HETATM   28  O   UNK N   1      21.977  17.918   6.694  0.00  0.00    -0.348 OA
HETATM   29  H   UNK N   1      22.909  17.827   6.735  0.00  0.00     0.219 HD
ENDBRANCH  20  28
ENDBRANCH   1  20
BRANCH   1  30
HETATM   30  N   UNK N   1      21.018  16.648   4.234  0.00  0.00    -0.362 N 
HETATM   31  C   UNK N   1      19.836  16.910   3.807  0.00  0.00     0.111 C 
ATOM     32  HN  UNK N   1      21.804  17.008   3.695  1.00  0.00     0.162 HD
BRANCH  31  33
HETATM   33  C   UNK N   1      19.698  17.881   2.679  0.00  0.00     0.086 C 
BRANCH  33  34
HETATM   34  C   UNK N   1      20.234  19.283   2.933  0.00  0.00     0.043 C 
BRANCH  34  35
HETATM   35  C   UNK N   1      21.129  19.856   1.825  0.00  0.00     0.173 C 
BRANCH  35  36
HETATM   36  C   UNK N   1      22.195  20.806   2.322  0.00  0.00     0.163 C 
HETATM   37  O   UNK N   1      23.374  20.515   2.209  0.00  0.00    -0.648 OA
BRANCH  36  38
HETATM   38  O   UNK N   1      21.856  21.993   2.866  0.00  0.00    -0.775 OA
HETATM   39  H   UNK N   1      21.773  22.185   3.780  0.00  0.00     0.167 HD
ENDBRANCH  36  38
ENDBRANCH  35  36
BRANCH  35  40
HETATM   40  N   UNK N   1      20.313  20.515   0.821  0.00  0.00    -0.418 N 
HETATM   41  H   UNK N   1      19.500  20.613   0.212  0.00  0.00     0.150 HD
HETATM   42  H   UNK N   1      20.859  21.348   0.602  0.00  0.00     0.150 HD
ENDBRANCH  35  40
ENDBRANCH  34  35
ENDBRANCH  33  34
ENDBRANCH  31  33
BRANCH  31  43
HETATM   43  O   UNK N   1      18.745  16.444   4.451  0.00  0.00    -0.350 OA
HETATM   44  H   UNK N   1      17.963  16.468   4.967  0.00  0.00     0.219 HD
ENDBRANCH  31  43
ENDBRANCH   1  30
TORSDOF 17
ENDMDL
MODEL 3
REMARK VINA RESULT:      -7.6      4.067      7.144
REMARK  17 active torsions:
REMARK  status: ('A' for Active; 'I' for Inactive)
REMARK    1  A    between atoms: C_10  and  C_9 
REMARK    2  A    between atoms: C_17  and  C_9 
REMARK    3  A    between atoms: C_19  and  C_10 
REMARK    4  A    between atoms: C_20  and  C_11 
REMARK    5  A    between atoms: N_26  and  C_11 
REMARK    6  A    between atoms: C_18  and  C_12 
REMARK    7  A    between atoms: S_37  and  C_12 
REMARK    8  A    between atoms: C_24  and  C_17 
REMARK    9  A    between atoms: C_17  and  N_25 
REMARK   10  A    between atoms: C_23  and  C_18 
REMARK   11  A    between atoms: C_18  and  N_28 
REMARK   12  A    between atoms: C_19  and  O_30 
REMARK   13  A    between atoms: O_32  and  C_20 
REMARK   14  A    between atoms: C_21  and  O_33 
REMARK   15  A    between atoms: C_22  and  S_37 
REMARK   16  A    between atoms: O_34  and  C_23 
REMARK   17  A    between atoms: O_36  and  C_24 
ROOT
HETATM    1  C   UNK N   1      19.602  15.181   4.461  0.00  0.00     0.167 C 
ENDROOT
BRANCH   1   2
HETATM    2  C   UNK N   1      18.870  15.719   5.689  0.00  0.00     0.108 C 
BRANCH   2   3
HETATM    3  S   UNK N   1      19.980  16.683   6.779  0.00  0.00    -0.154 SA
BRANCH   3   4
HETATM    4  C   UNK N   1      20.903  15.259   7.483  0.00  0.00     0.114 C 
HETATM    5  C   UNK N   1      22.366  15.222   7.075  0.00  0.00    -0.030 A 
HETATM    6  C   UNK N   1      22.866  16.042   6.052  0.00  0.00     0.009 A 
HETATM    7  C   UNK N   1      23.223  14.290   7.702  0.00  0.00    -0.018 A 
HETATM    8  C   UNK N   1      24.196  15.928   5.643  0.00  0.00     0.001 A 
HETATM    9  C   UNK N   1      25.033  14.981   6.240  0.00  0.00     0.001 A 
HETATM   10  C   UNK N   1      24.550  14.168   7.267  0.00  0.00     0.013 A 
HETATM   11  C   UNK N   1      22.705  13.474   8.828  0.00  0.00    -0.017 A 
HETATM   12  C   UNK N   1      23.403  12.348   9.286  0.00  0.00     0.013 A 
HETATM   13  C   UNK N   1      21.481  13.834   9.441  0.00  0.00    -0.017 A 
HETATM   14  C   UNK N   1      22.882  11.571  10.325  0.00  0.00     0.001 A 
HETATM   15  C   UNK N   1      21.663  11.913  10.912  0.00  0.00     0.001 A 
HETATM   16  C   UNK N   1      20.967  13.044  10.479  0.00  0.00     0.011 A 
HETATM   17  C   UNK N   1      20.777  15.106   9.009  0.00  0.00     0.170 C 
BRANCH  17  18
HETATM   18  O   UNK N   1      19.433  15.094   9.398  0.00  0.00    -0.389 OA
HETATM   19  H   UNK N   1      19.041  15.682  10.064  0.00  0.00     0.210 HD
ENDBRANCH  17  18
ENDBRANCH   3   4
ENDBRANCH   2   3
ENDBRANCH   1   2
BRANCH   1  20
HETATM   20  C   UNK N   1      18.969  13.950   3.875  0.00  0.00     0.136 C 
HETATM   21  N   UNK N   1      19.300  13.615   2.678  0.00  0.00    -0.363 N 
ATOM     22  HN  UNK N   1      20.058  14.126   2.226  1.00  0.00     0.161 HD
BRANCH  21  23
HETATM   23  C   UNK N   1      18.660  12.555   1.945  0.00  0.00     0.231 C 
BRANCH  23  24
HETATM   24  C   UNK N   1      17.985  13.129   0.727  0.00  0.00     0.158 C 
HETATM   25  O   UNK N   1      17.442  12.399  -0.091  0.00  0.00    -0.649 OA
BRANCH  24  26
HETATM   26  O   UNK N   1      17.977  14.460   0.535  0.00  0.00    -0.775 OA
HETATM   27  H   UNK N   1      17.203  14.935   0.306  0.00  0.00     0.167 HD
ENDBRANCH  24  26
ENDBRANCH  23  24
ENDBRANCH  21  23
BRANCH  20  28
HETATM   28  O   UNK N   1      18.025  13.256   4.552  0.00  0.00    -0.348 OA
HETATM   29  H   UNK N   1      17.134  13.546   4.576  0.00  0.00     0.219 HD
ENDBRANCH  20  28
ENDBRANCH   1  20
BRANCH   1  30
HETATM   30  N   UNK N   1      19.580  16.174   3.402  0.00  0.00    -0.362 N 
HETATM   31  C   UNK N   1      20.563  16.436   2.619  0.00  0.00     0.111 C 
ATOM     32  HN  UNK N   1      18.719  16.703   3.270  1.00  0.00     0.162 HD
BRANCH  31  33
HETATM   33  C   UNK N   1      20.312  17.341   1.457  0.00  0.00     0.086 C 
BRANCH  33  34
HETATM   34  C   UNK N   1      19.814  18.741   1.794  0.00  0.00     0.043 C 
BRANCH  34  35
HETATM   35  C   UNK N   1      20.836  19.868   1.590  0.00  0.00     0.173 C 
BRANCH  35  36
HETATM   36  C   UNK N   1      21.030  20.752   2.801  0.00  0.00     0.163 C 
HETATM   37  O   UNK N   1      20.319  20.609   3.782  0.00  0.00    -0.648 OA
BRANCH  36  38
HETATM   38  O   UNK N   1      22.006  21.682   2.823  0.00  0.00    -0.775 OA
HETATM   39  H   UNK N   1      21.967  22.541   2.449  0.00  0.00     0.167 HD
ENDBRANCH  36  38
ENDBRANCH  35  36
BRANCH  35  40
HETATM   40  N   UNK N   1      20.456  20.680   0.447  0.00  0.00    -0.418 N 
HETATM   41  H   UNK N   1      20.373  20.891  -0.549  0.00  0.00     0.150 HD
HETATM   42  H   UNK N   1      20.032  21.497   0.885  0.00  0.00     0.150 HD
ENDBRANCH  35  40
ENDBRANCH  34  35
ENDBRANCH  33  34
ENDBRANCH  31  33
BRANCH  31  43
HETATM   43  O   UNK N   1      21.746  15.798   2.750  0.00  0.00    -0.350 OA
HETATM   44  H   UNK N   1      22.602  15.613   3.083  0.00  0.00     0.219 HD
ENDBRANCH  31  43
ENDBRANCH   1  30
TORSDOF 17
ENDMDL
MODEL 4
REMARK VINA RESULT:      -7.6      1.847      2.313
REMARK  17 active torsions:
REMARK  status: ('A' for Active; 'I' for Inactive)
REMARK    1  A    between atoms: C_10  and  C_9 
REMARK    2  A    between atoms: C_17  and  C_9 
REMARK    3  A    between atoms: C_19  and  C_10 
REMARK    4  A    between atoms: C_20  and  C_11 
REMARK    5  A    between atoms: N_26  and  C_11 
REMARK    6  A    between atoms: C_18  and  C_12 
REMARK    7  A    between atoms: S_37  and  C_12 
REMARK    8  A    between atoms: C_24  and  C_17 
REMARK    9  A    between atoms: C_17  and  N_25 
REMARK   10  A    between atoms: C_23  and  C_18 
REMARK   11  A    between atoms: C_18  and  N_28 
REMARK   12  A    between atoms: C_19  and  O_30 
REMARK   13  A    between atoms: O_32  and  C_20 
REMARK   14  A    between atoms: C_21  and  O_33 
REMARK   15  A    between atoms: C_22  and  S_37 
REMARK   16  A    between atoms: O_34  and  C_23 
REMARK   17  A    between atoms: O_36  and  C_24 
ROOT
HETATM    1  C   UNK N   1      22.561  17.881   4.961  0.00  0.00     0.167 C 
ENDROOT
BRANCH   1   2
HETATM    2  C   UNK N   1      23.973  17.303   4.897  0.00  0.00     0.108 C 
BRANCH   2   3
HETATM    3  S   UNK N   1      25.190  18.536   4.307  0.00  0.00    -0.154 SA
BRANCH   3   4
HETATM    4  C   UNK N   1      26.604  17.975   5.337  0.00  0.00     0.114 C 
HETATM    5  C   UNK N   1      27.592  17.098   4.588  0.00  0.00    -0.030 A 
HETATM    6  C   UNK N   1      27.292  16.565   3.325  0.00  0.00     0.009 A 
HETATM    7  C   UNK N   1      28.813  16.763   5.212  0.00  0.00    -0.018 A 
HETATM    8  C   UNK N   1      28.185  15.696   2.696  0.00  0.00     0.001 A 
HETATM    9  C   UNK N   1      29.377  15.337   3.330  0.00  0.00     0.001 A 
HETATM   10  C   UNK N   1      29.692  15.871   4.582  0.00  0.00     0.013 A 
HETATM   11  C   UNK N   1      29.153  17.383   6.517  0.00  0.00    -0.017 A 
HETATM   12  C   UNK N   1      30.191  16.876   7.311  0.00  0.00     0.013 A 
HETATM   13  C   UNK N   1      28.408  18.498   6.971  0.00  0.00    -0.017 A 
HETATM   14  C   UNK N   1      30.475  17.452   8.552  0.00  0.00     0.001 A 
HETATM   15  C   UNK N   1      29.723  18.536   9.010  0.00  0.00     0.001 A 
HETATM   16  C   UNK N   1      28.699  19.063   8.220  0.00  0.00     0.011 A 
HETATM   17  C   UNK N   1      27.350  19.104   6.069  0.00  0.00     0.170 C 
BRANCH  17  18
HETATM   18  O   UNK N   1      26.460  19.897   6.801  0.00  0.00    -0.389 OA
HETATM   19  H   UNK N   1      26.452  19.979   7.768  0.00  0.00     0.210 HD
ENDBRANCH  17  18
ENDBRANCH   3   4
ENDBRANCH   2   3
ENDBRANCH   1   2
BRANCH   1  20
HETATM   20  C   UNK N   1      21.849  17.878   3.638  0.00  0.00     0.136 C 
HETATM   21  N   UNK N   1      21.412  19.000   3.186  0.00  0.00    -0.363 N 
ATOM     22  HN  UNK N   1      21.667  19.853   3.684  1.00  0.00     0.161 HD
BRANCH  21  23
HETATM   23  C   UNK N   1      20.584  19.116   2.015  0.00  0.00     0.231 C 
BRANCH  23  24
HETATM   24  C   UNK N   1      20.924  20.391   1.288  0.00  0.00     0.158 C 
HETATM   25  O   UNK N   1      21.470  21.317   1.871  0.00  0.00    -0.649 OA
BRANCH  24  26
HETATM   26  O   UNK N   1      20.625  20.513  -0.016  0.00  0.00    -0.775 OA
HETATM   27  H   UNK N   1      19.981  21.115  -0.335  0.00  0.00     0.167 HD
ENDBRANCH  24  26
ENDBRANCH  23  24
ENDBRANCH  21  23
BRANCH  20  28
HETATM   28  O   UNK N   1      21.607  16.724   2.974  0.00  0.00    -0.348 OA
HETATM   29  H   UNK N   1      20.753  16.523   2.644  0.00  0.00     0.219 HD
ENDBRANCH  20  28
ENDBRANCH   1  20
BRANCH   1  30
HETATM   30  N   UNK N   1      21.740  17.077   5.848  0.00  0.00    -0.362 N 
HETATM   31  C   UNK N   1      21.014  17.539   6.800  0.00  0.00     0.111 C 
ATOM     32  HN  UNK N   1      21.741  16.067   5.704  1.00  0.00     0.162 HD
BRANCH  31  33
HETATM   33  C   UNK N   1      20.078  16.599   7.488  0.00  0.00     0.086 C 
BRANCH  33  34
HETATM   34  C   UNK N   1      20.622  15.898   8.725  0.00  0.00     0.043 C 
BRANCH  34  35
HETATM   35  C   UNK N   1      20.938  14.405   8.551  0.00  0.00     0.173 C 
BRANCH  35  36
HETATM   36  C   UNK N   1      20.935  13.619   9.842  0.00  0.00     0.163 C 
HETATM   37  O   UNK N   1      19.879  13.263  10.338  0.00  0.00    -0.648 OA
BRANCH  36  38
HETATM   38  O   UNK N   1      22.094  13.278  10.440  0.00  0.00    -0.775 OA
HETATM   39  H   UNK N   1      22.347  13.477  11.321  0.00  0.00     0.167 HD
ENDBRANCH  36  38
ENDBRANCH  35  36
BRANCH  35  40
HETATM   40  N   UNK N   1      22.216  14.245   7.881  0.00  0.00    -0.418 N 
HETATM   41  H   UNK N   1      22.948  14.499   7.217  0.00  0.00     0.150 HD
HETATM   42  H   UNK N   1      22.597  13.410   8.325  0.00  0.00     0.150 HD
ENDBRANCH  35  40
ENDBRANCH  34  35
ENDBRANCH  33  34
ENDBRANCH  31  33
BRANCH  31  43
HETATM   43  O   UNK N   1      20.982  18.861   7.071  0.00  0.00    -0.350 OA
HETATM   44  H   UNK N   1      21.311  19.721   7.243  0.00  0.00     0.219 HD
ENDBRANCH  31  43
ENDBRANCH   1  30
TORSDOF 17
ENDMDL
MODEL 5
REMARK VINA RESULT:      -7.5     11.843     16.433
REMARK  17 active torsions:
REMARK  status: ('A' for Active; 'I' for Inactive)
REMARK    1  A    between atoms: C_10  and  C_9 
REMARK    2  A    between atoms: C_17  and  C_9 
REMARK    3  A    between atoms: C_19  and  C_10 
REMARK    4  A    between atoms: C_20  and  C_11 
REMARK    5  A    between atoms: N_26  and  C_11 
REMARK    6  A    between atoms: C_18  and  C_12 
REMARK    7  A    between atoms: S_37  and  C_12 
REMARK    8  A    between atoms: C_24  and  C_17 
REMARK    9  A    between atoms: C_17  and  N_25 
REMARK   10  A    between atoms: C_23  and  C_18 
REMARK   11  A    between atoms: C_18  and  N_28 
REMARK   12  A    between atoms: C_19  and  O_30 
REMARK   13  A    between atoms: O_32  and  C_20 
REMARK   14  A    between atoms: C_21  and  O_33 
REMARK   15  A    between atoms: C_22  and  S_37 
REMARK   16  A    between atoms: O_34  and  C_23 
REMARK   17  A    between atoms: O_36  and  C_24 
ROOT
HETATM    1  C   UNK N   1      37.245  12.831  11.461  0.00  0.00     0.167 C 
ENDROOT
BRANCH   1   2
HETATM    2  C   UNK N   1      36.921  11.576  12.269  0.00  0.00     0.108 C 
BRANCH   2   3
HETATM    3  S   UNK N   1      35.118  11.293  12.399  0.00  0.00    -0.154 SA
BRANCH   3   4
HETATM    4  C   UNK N   1      35.017  11.295  14.233  0.00  0.00     0.114 C 
HETATM    5  C   UNK N   1      35.431   9.979  14.866  0.00  0.00    -0.030 A 
HETATM    6  C   UNK N   1      35.605   8.816  14.100  0.00  0.00     0.009 A 
HETATM    7  C   UNK N   1      35.580   9.916  16.269  0.00  0.00    -0.018 A 
HETATM    8  C   UNK N   1      35.906   7.601  14.719  0.00  0.00     0.001 A 
HETATM    9  C   UNK N   1      36.018   7.534  16.110  0.00  0.00     0.001 A 
HETATM   10  C   UNK N   1      35.859   8.687  16.883  0.00  0.00     0.013 A 
HETATM   11  C   UNK N   1      35.460  11.162  17.066  0.00  0.00    -0.017 A 
HETATM   12  C   UNK N   1      35.307  11.119  18.459  0.00  0.00     0.013 A 
HETATM   13  C   UNK N   1      35.492  12.414  16.406  0.00  0.00    -0.017 A 
HETATM   14  C   UNK N   1      35.162  12.302  19.189  0.00  0.00     0.001 A 
HETATM   15  C   UNK N   1      35.169  13.535  18.534  0.00  0.00     0.001 A 
HETATM   16  C   UNK N   1      35.340  13.593  17.149  0.00  0.00     0.011 A 
HETATM   17  C   UNK N   1      35.753  12.463  14.913  0.00  0.00     0.170 C 
BRANCH  17  18
HETATM   18  O   UNK N   1      35.351  13.689  14.371  0.00  0.00    -0.389 OA
HETATM   19  H   UNK N   1      34.431  13.958  14.226  0.00  0.00     0.210 HD
ENDBRANCH  17  18
ENDBRANCH   3   4
ENDBRANCH   2   3
ENDBRANCH   1   2
BRANCH   1  20
HETATM   20  C   UNK N   1      37.683  12.544  10.053  0.00  0.00     0.136 C 
HETATM   21  N   UNK N   1      38.764  13.101   9.633  0.00  0.00    -0.363 N 
ATOM     22  HN  UNK N   1      39.334  13.614  10.305  1.00  0.00     0.161 HD
BRANCH  21  23
HETATM   23  C   UNK N   1      39.212  13.036   8.267  0.00  0.00     0.231 C 
BRANCH  23  24
HETATM   24  C   UNK N   1      40.251  11.954   8.134  0.00  0.00     0.158 C 
HETATM   25  O   UNK N   1      41.027  11.715   9.049  0.00  0.00    -0.649 OA
BRANCH  24  26
HETATM   26  O   UNK N   1      40.328  11.241   6.997  0.00  0.00    -0.775 OA
HETATM   27  H   UNK N   1      40.898  11.473   6.290  0.00  0.00     0.167 HD
ENDBRANCH  24  26
ENDBRANCH  23  24
ENDBRANCH  21  23
BRANCH  20  28
HETATM   28  O   UNK N   1      36.929  11.786   9.224  0.00  0.00    -0.348 OA
HETATM   29  H   UNK N   1      36.327  11.151   9.561  0.00  0.00     0.219 HD
ENDBRANCH  20  28
ENDBRANCH   1  20
BRANCH   1  30
HETATM   30  N   UNK N   1      36.057  13.657  11.341  0.00  0.00    -0.362 N 
HETATM   31  C   UNK N   1      36.058  14.915  11.082  0.00  0.00     0.111 C 
ATOM     32  HN  UNK N   1      35.153  13.205  11.472  1.00  0.00     0.162 HD
BRANCH  31  33
HETATM   33  C   UNK N   1      34.747  15.572  10.795  0.00  0.00     0.086 C 
BRANCH  33  34
HETATM   34  C   UNK N   1      34.817  16.946  10.141  0.00  0.00     0.043 C 
BRANCH  34  35
HETATM   35  C   UNK N   1      34.062  17.080   8.811  0.00  0.00     0.173 C 
BRANCH  35  36
HETATM   36  C   UNK N   1      34.576  18.188   7.919  0.00  0.00     0.163 C 
HETATM   37  O   UNK N   1      34.379  18.145   6.716  0.00  0.00    -0.648 OA
BRANCH  36  38
HETATM   38  O   UNK N   1      35.228  19.244   8.444  0.00  0.00    -0.775 OA
HETATM   39  H   UNK N   1      35.383  19.409   9.354  0.00  0.00     0.167 HD
ENDBRANCH  36  38
ENDBRANCH  35  36
BRANCH  35  40
HETATM   40  N   UNK N   1      32.645  17.271   9.063  0.00  0.00    -0.418 N 
HETATM   41  H   UNK N   1      31.649  17.125   8.892  0.00  0.00     0.150 HD
HETATM   42  H   UNK N   1      32.644  17.910   9.858  0.00  0.00     0.150 HD
ENDBRANCH  35  40
ENDBRANCH  34  35
ENDBRANCH  33  34
ENDBRANCH  31  33
BRANCH  31  43
HETATM   43  O   UNK N   1      37.216  15.590  10.924  0.00  0.00    -0.350 OA
HETATM   44  H   UNK N   1      38.132  15.724  10.780  0.00  0.00     0.219 HD
ENDBRANCH  31  43
ENDBRANCH   1  30
TORSDOF 17
ENDMDL
MODEL 6
REMARK VINA RESULT:      -7.4      3.482      6.090
REMARK  17 active torsions:
REMARK  status: ('A' for Active; 'I' for Inactive)
REMARK    1  A    between atoms: C_10  and  C_9 
REMARK    2  A    between atoms: C_17  and  C_9 
REMARK    3  A    between atoms: C_19  and  C_10 
REMARK    4  A    between atoms: C_20  and  C_11 
REMARK    5  A    between atoms: N_26  and  C_11 
REMARK    6  A    between atoms: C_18  and  C_12 
REMARK    7  A    between atoms: S_37  and  C_12 
REMARK    8  A    between atoms: C_24  and  C_17 
REMARK    9  A    between atoms: C_17  and  N_25 
REMARK   10  A    between atoms: C_23  and  C_18 
REMARK   11  A    between atoms: C_18  and  N_28 
REMARK   12  A    between atoms: C_19  and  O_30 
REMARK   13  A    between atoms: O_32  and  C_20 
REMARK   14  A    between atoms: C_21  and  O_33 
REMARK   15  A    between atoms: C_22  and  S_37 
REMARK   16  A    between atoms: O_34  and  C_23 
REMARK   17  A    between atoms: O_36  and  C_24 
ROOT
HETATM    1  C   UNK N   1      25.373  17.095   3.874  0.00  0.00     0.167 C 
ENDROOT
BRANCH   1   2
HETATM    2  C   UNK N   1      26.238  17.182   5.129  0.00  0.00     0.108 C 
BRANCH   2   3
HETATM    3  S   UNK N   1      26.824  18.889   5.437  0.00  0.00    -0.154 SA
BRANCH   3   4
HETATM    4  C   UNK N   1      28.599  18.482   5.680  0.00  0.00     0.114 C 
HETATM    5  C   UNK N   1      28.943  18.089   7.106  0.00  0.00    -0.030 A 
HETATM    6  C   UNK N   1      28.041  18.288   8.162  0.00  0.00     0.009 A 
HETATM    7  C   UNK N   1      30.229  17.571   7.377  0.00  0.00    -0.018 A 
HETATM    8  C   UNK N   1      28.415  17.994   9.474  0.00  0.00     0.001 A 
HETATM    9  C   UNK N   1      29.700  17.515   9.745  0.00  0.00     0.001 A 
HETATM   10  C   UNK N   1      30.602  17.301   8.701  0.00  0.00     0.013 A 
HETATM   11  C   UNK N   1      31.153  17.301   6.248  0.00  0.00    -0.017 A 
HETATM   12  C   UNK N   1      32.518  17.070   6.469  0.00  0.00     0.013 A 
HETATM   13  C   UNK N   1      30.648  17.285   4.926  0.00  0.00    -0.017 A 
HETATM   14  C   UNK N   1      33.379  16.851   5.390  0.00  0.00     0.001 A 
HETATM   15  C   UNK N   1      32.884  16.861   4.085  0.00  0.00     0.001 A 
HETATM   16  C   UNK N   1      31.523  17.069   3.852  0.00  0.00     0.011 A 
HETATM   17  C   UNK N   1      29.156  17.439   4.696  0.00  0.00     0.170 C 
BRANCH  17  18
HETATM   18  O   UNK N   1      28.886  17.807   3.373  0.00  0.00    -0.389 OA
HETATM   19  H   UNK N   1      28.618  17.196   2.669  0.00  0.00     0.210 HD
ENDBRANCH  17  18
ENDBRANCH   3   4
ENDBRANCH   2   3
ENDBRANCH   1   2
BRANCH   1  20
HETATM   20  C   UNK N   1      25.514  15.794   3.134  0.00  0.00     0.136 C 
HETATM   21  N   UNK N   1      26.696  15.308   2.991  0.00  0.00    -0.363 N 
ATOM     22  HN  UNK N   1      27.467  15.762   3.482  1.00  0.00     0.161 HD
BRANCH  21  23
HETATM   23  C   UNK N   1      26.988  14.158   2.177  0.00  0.00     0.231 C 
BRANCH  23  24
HETATM   24  C   UNK N   1      28.447  14.171   1.802  0.00  0.00     0.158 C 
HETATM   25  O   UNK N   1      28.966  13.197   1.272  0.00  0.00    -0.649 OA
BRANCH  24  26
HETATM   26  O   UNK N   1      29.190  15.263   2.053  0.00  0.00    -0.775 OA
HETATM   27  H   UNK N   1      30.012  15.424   1.634  0.00  0.00     0.167 HD
ENDBRANCH  24  26
ENDBRANCH  23  24
ENDBRANCH  21  23
BRANCH  20  28
HETATM   28  O   UNK N   1      24.444  15.188   2.571  0.00  0.00    -0.348 OA
HETATM   29  H   UNK N   1      23.746  14.848   3.096  0.00  0.00     0.219 HD
ENDBRANCH  20  28
ENDBRANCH   1  20
BRANCH   1  30
HETATM   30  N   UNK N   1      23.970  17.188   4.237  0.00  0.00    -0.362 N 
HETATM   31  C   UNK N   1      23.238  18.232   4.087  0.00  0.00     0.111 C 
ATOM     32  HN  UNK N   1      23.533  16.360   4.641  1.00  0.00     0.162 HD
BRANCH  31  33
HETATM   33  C   UNK N   1      21.769  18.098   4.325  0.00  0.00     0.086 C 
BRANCH  33  34
HETATM   34  C   UNK N   1      20.895  19.212   3.765  0.00  0.00     0.043 C 
BRANCH  34  35
HETATM   35  C   UNK N   1      20.453  19.032   2.306  0.00  0.00     0.173 C 
BRANCH  35  36
HETATM   36  C   UNK N   1      20.826  20.184   1.401  0.00  0.00     0.163 C 
HETATM   37  O   UNK N   1      21.327  21.192   1.870  0.00  0.00    -0.648 OA
BRANCH  36  38
HETATM   38  O   UNK N   1      20.639  20.097   0.068  0.00  0.00    -0.775 OA
HETATM   39  H   UNK N   1      21.307  20.031  -0.586  0.00  0.00     0.167 HD
ENDBRANCH  36  38
ENDBRANCH  35  36
BRANCH  35  40
HETATM   40  N   UNK N   1      19.019  18.807   2.248  0.00  0.00    -0.418 N 
HETATM   41  H   UNK N   1      18.159  18.284   2.419  0.00  0.00     0.150 HD
HETATM   42  H   UNK N   1      18.682  19.641   1.768  0.00  0.00     0.150 HD
ENDBRANCH  35  40
ENDBRANCH  34  35
ENDBRANCH  33  34
ENDBRANCH  31  33
BRANCH  31  43
HETATM   43  O   UNK N   1      23.752  19.374   3.584  0.00  0.00    -0.350 OA
HETATM   44  H   UNK N   1      24.396  19.957   3.233  0.00  0.00     0.219 HD
ENDBRANCH  31  43
ENDBRANCH   1  30
TORSDOF 17
ENDMDL
MODEL 7
REMARK VINA RESULT:      -7.4      2.828      4.329
REMARK  17 active torsions:
REMARK  status: ('A' for Active; 'I' for Inactive)
REMARK    1  A    between atoms: C_10  and  C_9 
REMARK    2  A    between atoms: C_17  and  C_9 
REMARK    3  A    between atoms: C_19  and  C_10 
REMARK    4  A    between atoms: C_20  and  C_11 
REMARK    5  A    between atoms: N_26  and  C_11 
REMARK    6  A    between atoms: C_18  and  C_12 
REMARK    7  A    between atoms: S_37  and  C_12 
REMARK    8  A    between atoms: C_24  and  C_17 
REMARK    9  A    between atoms: C_17  and  N_25 
REMARK   10  A    between atoms: C_23  and  C_18 
REMARK   11  A    between atoms: C_18  and  N_28 
REMARK   12  A    between atoms: C_19  and  O_30 
REMARK   13  A    between atoms: O_32  and  C_20 
REMARK   14  A    between atoms: C_21  and  O_33 
REMARK   15  A    between atoms: C_22  and  S_37 
REMARK   16  A    between atoms: O_34  and  C_23 
REMARK   17  A    between atoms: O_36  and  C_24 
ROOT
HETATM    1  C   UNK N   1      21.982  17.639   4.666  0.00  0.00     0.167 C 
ENDROOT
BRANCH   1   2
HETATM    2  C   UNK N   1      23.227  18.201   5.348  0.00  0.00     0.108 C 
BRANCH   2   3
HETATM    3  S   UNK N   1      24.483  18.748   4.134  0.00  0.00    -0.154 SA
BRANCH   3   4
HETATM    4  C   UNK N   1      25.943  18.005   4.965  0.00  0.00     0.114 C 
HETATM    5  C   UNK N   1      26.691  17.005   4.100  0.00  0.00    -0.030 A 
HETATM    6  C   UNK N   1      26.147  16.517   2.902  0.00  0.00     0.009 A 
HETATM    7  C   UNK N   1      27.934  16.512   4.551  0.00  0.00    -0.018 A 
HETATM    8  C   UNK N   1      26.819  15.537   2.170  0.00  0.00     0.001 A 
HETATM    9  C   UNK N   1      28.033  15.024   2.636  0.00  0.00     0.001 A 
HETATM   10  C   UNK N   1      28.590  15.511   3.821  0.00  0.00     0.013 A 
HETATM   11  C   UNK N   1      28.535  17.082   5.783  0.00  0.00    -0.017 A 
HETATM   12  C   UNK N   1      29.601  16.442   6.431  0.00  0.00     0.013 A 
HETATM   13  C   UNK N   1      28.016  18.286   6.316  0.00  0.00    -0.017 A 
HETATM   14  C   UNK N   1      30.132  16.975   7.609  0.00  0.00     0.001 A 
HETATM   15  C   UNK N   1      29.602  18.150   8.147  0.00  0.00     0.001 A 
HETATM   16  C   UNK N   1      28.553  18.808   7.501  0.00  0.00     0.011 A 
HETATM   17  C   UNK N   1      26.928  19.026   5.562  0.00  0.00     0.170 C 
BRANCH  17  18
HETATM   18  O   UNK N   1      26.263  19.930   6.397  0.00  0.00    -0.389 OA
HETATM   19  H   UNK N   1      26.697  20.582   6.971  0.00  0.00     0.210 HD
ENDBRANCH  17  18
ENDBRANCH   3   4
ENDBRANCH   2   3
ENDBRANCH   1   2
BRANCH   1  20
HETATM   20  C   UNK N   1      21.106  18.694   4.049  0.00  0.00     0.136 C 
HETATM   21  N   UNK N   1      20.823  18.587   2.800  0.00  0.00    -0.363 N 
ATOM     22  HN  UNK N   1      21.106  17.737   2.311  1.00  0.00     0.161 HD
BRANCH  21  23
HETATM   23  C   UNK N   1      20.127  19.602   2.053  0.00  0.00     0.231 C 
BRANCH  23  24
HETATM   24  C   UNK N   1      21.108  20.657   1.612  0.00  0.00     0.158 C 
HETATM   25  O   UNK N   1      21.512  20.692   0.458  0.00  0.00    -0.649 OA
BRANCH  24  26
HETATM   26  O   UNK N   1      21.546  21.570   2.496  0.00  0.00    -0.775 OA
HETATM   27  H   UNK N   1      21.945  22.377   2.236  0.00  0.00     0.167 HD
ENDBRANCH  24  26
ENDBRANCH  23  24
ENDBRANCH  21  23
BRANCH  20  28
HETATM   28  O   UNK N   1      20.687  19.763   4.765  0.00  0.00    -0.348 OA
HETATM   29  H   UNK N   1      20.447  20.566   4.343  0.00  0.00     0.219 HD
ENDBRANCH  20  28
ENDBRANCH   1  20
BRANCH   1  30
HETATM   30  N   UNK N   1      22.371  16.767   3.572  0.00  0.00    -0.362 N 
HETATM   31  C   UNK N   1      22.599  15.508   3.680  0.00  0.00     0.111 C 
ATOM     32  HN  UNK N   1      22.472  17.186   2.648  1.00  0.00     0.162 HD
BRANCH  31  33
HETATM   33  C   UNK N   1      22.794  14.722   2.424  0.00  0.00     0.086 C 
BRANCH  33  34
HETATM   34  C   UNK N   1      21.629  13.836   2.001  0.00  0.00     0.043 C 
BRANCH  34  35
HETATM   35  C   UNK N   1      20.804  14.357   0.816  0.00  0.00     0.173 C 
BRANCH  35  36
HETATM   36  C   UNK N   1      20.204  15.727   1.037  0.00  0.00     0.163 C 
HETATM   37  O   UNK N   1      20.348  16.600   0.196  0.00  0.00    -0.648 OA
BRANCH  36  38
HETATM   38  O   UNK N   1      19.483  15.990   2.146  0.00  0.00    -0.775 OA
HETATM   39  H   UNK N   1      18.679  16.470   2.187  0.00  0.00     0.167 HD
ENDBRANCH  36  38
ENDBRANCH  35  36
BRANCH  35  40
HETATM   40  N   UNK N   1      19.754  13.409   0.490  0.00  0.00    -0.418 N 
HETATM   41  H   UNK N   1      19.366  12.581   0.034  0.00  0.00     0.150 HD
HETATM   42  H   UNK N   1      18.954  13.774   1.007  0.00  0.00     0.150 HD
ENDBRANCH  35  40
ENDBRANCH  34  35
ENDBRANCH  33  34
ENDBRANCH  31  33
BRANCH  31  43
HETATM   43  O   UNK N   1      22.514  14.887   4.875  0.00  0.00    -0.350 OA
HETATM   44  H   UNK N   1      22.167  14.663   5.716  0.00  0.00     0.219 HD
ENDBRANCH  31  43
ENDBRANCH   1  30
TORSDOF 17
ENDMDL
MODEL 8
REMARK VINA RESULT:      -7.3     11.742     16.129
REMARK  17 active torsions:
REMARK  status: ('A' for Active; 'I' for Inactive)
REMARK    1  A    between atoms: C_10  and  C_9 
REMARK    2  A    between atoms: C_17  and  C_9 
REMARK    3  A    between atoms: C_19  and  C_10 
REMARK    4  A    between atoms: C_20  and  C_11 
REMARK    5  A    between atoms: N_26  and  C_11 
REMARK    6  A    between atoms: C_18  and  C_12 
REMARK    7  A    between atoms: S_37  and  C_12 
REMARK    8  A    between atoms: C_24  and  C_17 
REMARK    9  A    between atoms: C_17  and  N_25 
REMARK   10  A    between atoms: C_23  and  C_18 
REMARK   11  A    between atoms: C_18  and  N_28 
REMARK   12  A    between atoms: C_19  and  O_30 
REMARK   13  A    between atoms: O_32  and  C_20 
REMARK   14  A    between atoms: C_21  and  O_33 
REMARK   15  A    between atoms: C_22  and  S_37 
REMARK   16  A    between atoms: O_34  and  C_23 
REMARK   17  A    between atoms: O_36  and  C_24 
ROOT
HETATM    1  C   UNK N   1      36.564  13.507  11.879  0.00  0.00     0.167 C 
ENDROOT
BRANCH   1   2
HETATM    2  C   UNK N   1      36.617  13.337  13.395  0.00  0.00     0.108 C 
BRANCH   2   3
HETATM    3  S   UNK N   1      34.972  12.948  14.098  0.00  0.00    -0.154 SA
BRANCH   3   4
HETATM    4  C   UNK N   1      35.515  11.603  15.225  0.00  0.00     0.114 C 
HETATM    5  C   UNK N   1      35.385  11.954  16.697  0.00  0.00    -0.030 A 
HETATM    6  C   UNK N   1      35.133  13.268  17.121  0.00  0.00     0.009 A 
HETATM    7  C   UNK N   1      35.588  10.940  17.658  0.00  0.00    -0.018 A 
HETATM    8  C   UNK N   1      35.100  13.576  18.482  0.00  0.00     0.001 A 
HETATM    9  C   UNK N   1      35.336  12.578  19.432  0.00  0.00     0.001 A 
HETATM   10  C   UNK N   1      35.576  11.264  19.022  0.00  0.00     0.013 A 
HETATM   11  C   UNK N   1      35.787   9.541  17.203  0.00  0.00    -0.017 A 
HETATM   12  C   UNK N   1      36.277   8.559  18.076  0.00  0.00     0.013 A 
HETATM   13  C   UNK N   1      35.486   9.197  15.864  0.00  0.00    -0.017 A 
HETATM   14  C   UNK N   1      36.491   7.255  17.620  0.00  0.00     0.001 A 
HETATM   15  C   UNK N   1      36.216   6.923  16.292  0.00  0.00     0.001 A 
HETATM   16  C   UNK N   1      35.709   7.887  15.418  0.00  0.00     0.011 A 
HETATM   17  C   UNK N   1      34.866  10.236  14.949  0.00  0.00     0.170 C 
BRANCH  17  18
HETATM   18  O   UNK N   1      35.014   9.876  13.605  0.00  0.00    -0.389 OA
HETATM   19  H   UNK N   1      35.818  10.010  13.078  0.00  0.00     0.210 HD
ENDBRANCH  17  18
ENDBRANCH   3   4
ENDBRANCH   2   3
ENDBRANCH   1   2
BRANCH   1  20
HETATM   20  C   UNK N   1      36.076  12.285  11.153  0.00  0.00     0.136 C 
HETATM   21  N   UNK N   1      35.124  12.431  10.301  0.00  0.00    -0.363 N 
ATOM     22  HN  UNK N   1      34.822  13.378  10.071  1.00  0.00     0.161 HD
BRANCH  21  23
HETATM   23  C   UNK N   1      34.462  11.329   9.654  0.00  0.00     0.231 C 
BRANCH  23  24
HETATM   24  C   UNK N   1      33.130  11.790   9.121  0.00  0.00     0.158 C 
HETATM   25  O   UNK N   1      33.066  12.671   8.274  0.00  0.00    -0.649 OA
BRANCH  24  26
HETATM   26  O   UNK N   1      31.999  11.230   9.581  0.00  0.00    -0.775 OA
HETATM   27  H   UNK N   1      31.848  10.305   9.565  0.00  0.00     0.167 HD
ENDBRANCH  24  26
ENDBRANCH  23  24
ENDBRANCH  21  23
BRANCH  20  28
HETATM   28  O   UNK N   1      36.568  11.058  11.437  0.00  0.00    -0.348 OA
HETATM   29  H   UNK N   1      36.966  10.874  12.266  0.00  0.00     0.219 HD
ENDBRANCH  20  28
ENDBRANCH   1  20
BRANCH   1  30
HETATM   30  N   UNK N   1      35.630  14.565  11.536  0.00  0.00    -0.362 N 
HETATM   31  C   UNK N   1      35.952  15.688  11.005  0.00  0.00     0.111 C 
ATOM     32  HN  UNK N   1      34.642  14.402  11.731  1.00  0.00     0.162 HD
BRANCH  31  33
HETATM   33  C   UNK N   1      34.852  16.582  10.533  0.00  0.00     0.086 C 
BRANCH  33  34
HETATM   34  C   UNK N   1      34.028  16.066   9.360  0.00  0.00     0.043 C 
BRANCH  34  35
HETATM   35  C   UNK N   1      34.626  16.329   7.970  0.00  0.00     0.173 C 
BRANCH  35  36
HETATM   36  C   UNK N   1      34.404  17.734   7.459  0.00  0.00     0.163 C 
HETATM   37  O   UNK N   1      34.554  18.687   8.205  0.00  0.00    -0.648 OA
BRANCH  36  38
HETATM   38  O   UNK N   1      34.069  17.950   6.170  0.00  0.00    -0.775 OA
HETATM   39  H   UNK N   1      34.165  18.753   5.696  0.00  0.00     0.167 HD
ENDBRANCH  36  38
ENDBRANCH  35  36
BRANCH  35  40
HETATM   40  N   UNK N   1      34.099  15.370   7.016  0.00  0.00    -0.418 N 
HETATM   41  H   UNK N   1      33.358  14.855   6.539  0.00  0.00     0.150 HD
HETATM   42  H   UNK N   1      34.944  15.009   6.573  0.00  0.00     0.150 HD
ENDBRANCH  35  40
ENDBRANCH  34  35
ENDBRANCH  33  34
ENDBRANCH  31  33
BRANCH  31  43
HETATM   43  O   UNK N   1      37.242  15.988  10.744  0.00  0.00    -0.350 OA
HETATM   44  H   UNK N   1      38.170  15.866  10.689  0.00  0.00     0.219 HD
ENDBRANCH  31  43
ENDBRANCH   1  30
TORSDOF 17
ENDMDL
MODEL 9
REMARK VINA RESULT:      -7.3      8.699     12.474
REMARK  17 active torsions:
REMARK  status: ('A' for Active; 'I' for Inactive)
REMARK    1  A    between atoms: C_10  and  C_9 
REMARK    2  A    between atoms: C_17  and  C_9 
REMARK    3  A    between atoms: C_19  and  C_10 
REMARK    4  A    between atoms: C_20  and  C_11 
REMARK    5  A    between atoms: N_26  and  C_11 
REMARK    6  A    between atoms: C_18  and  C_12 
REMARK    7  A    between atoms: S_37  and  C_12 
REMARK    8  A    between atoms: C_24  and  C_17 
REMARK    9  A    between atoms: C_17  and  N_25 
REMARK   10  A    between atoms: C_23  and  C_18 
REMARK   11  A    between atoms: C_18  and  N_28 
REMARK   12  A    between atoms: C_19  and  O_30 
REMARK   13  A    between atoms: O_32  and  C_20 
REMARK   14  A    between atoms: C_21  and  O_33 
REMARK   15  A    between atoms: C_22  and  S_37 
REMARK   16  A    between atoms: O_34  and  C_23 
REMARK   17  A    between atoms: O_36  and  C_24 
ROOT
HETATM    1  C   UNK N   1      33.649  13.510   8.918  0.00  0.00     0.167 C 
ENDROOT
BRANCH   1   2
HETATM    2  C   UNK N   1      33.674  14.124   7.520  0.00  0.00     0.108 C 
BRANCH   2   3
HETATM    3  S   UNK N   1      34.321  15.836   7.536  0.00  0.00    -0.154 SA
BRANCH   3   4
HETATM    4  C   UNK N   1      32.730  16.686   7.189  0.00  0.00     0.114 C 
HETATM    5  C   UNK N   1      32.327  16.645   5.725  0.00  0.00    -0.030 A 
HETATM    6  C   UNK N   1      33.223  16.236   4.726  0.00  0.00     0.009 A 
HETATM    7  C   UNK N   1      31.038  17.094   5.362  0.00  0.00    -0.018 A 
HETATM    8  C   UNK N   1      32.851  16.287   3.381  0.00  0.00     0.001 A 
HETATM    9  C   UNK N   1      31.588  16.764   3.021  0.00  0.00     0.001 A 
HETATM   10  C   UNK N   1      30.683  17.163   4.008  0.00  0.00     0.013 A 
HETATM   11  C   UNK N   1      30.073  17.462   6.428  0.00  0.00    -0.017 A 
HETATM   12  C   UNK N   1      28.906  18.179   6.132  0.00  0.00     0.013 A 
HETATM   13  C   UNK N   1      30.343  17.090   7.767  0.00  0.00    -0.017 A 
HETATM   14  C   UNK N   1      28.026  18.547   7.154  0.00  0.00     0.001 A 
HETATM   15  C   UNK N   1      28.305  18.200   8.477  0.00  0.00     0.001 A 
HETATM   16  C   UNK N   1      29.455  17.469   8.784  0.00  0.00     0.011 A 
HETATM   17  C   UNK N   1      31.555  16.232   8.073  0.00  0.00     0.170 C 
BRANCH  17  18
HETATM   18  O   UNK N   1      31.895  16.304   9.428  0.00  0.00    -0.389 OA
HETATM   19  H   UNK N   1      31.732  15.605  10.081  0.00  0.00     0.210 HD
ENDBRANCH  17  18
ENDBRANCH   3   4
ENDBRANCH   2   3
ENDBRANCH   1   2
BRANCH   1  20
HETATM   20  C   UNK N   1      33.635  12.007   8.916  0.00  0.00     0.136 C 
HETATM   21  N   UNK N   1      32.695  11.413   9.562  0.00  0.00    -0.363 N 
ATOM     22  HN  UNK N   1      31.940  11.981   9.947  1.00  0.00     0.161 HD
BRANCH  21  23
HETATM   23  C   UNK N   1      32.651   9.990   9.769  0.00  0.00     0.231 C 
BRANCH  23  24
HETATM   24  C   UNK N   1      31.772   9.360   8.720  0.00  0.00     0.158 C 
HETATM   25  O   UNK N   1      32.031   9.482   7.531  0.00  0.00    -0.649 OA
BRANCH  24  26
HETATM   26  O   UNK N   1      30.689   8.657   9.094  0.00  0.00    -0.775 OA
HETATM   27  H   UNK N   1      30.505   8.446   9.987  0.00  0.00     0.167 HD
ENDBRANCH  24  26
ENDBRANCH  23  24
ENDBRANCH  21  23
BRANCH  20  28
HETATM   28  O   UNK N   1      34.619  11.298   8.318  0.00  0.00    -0.348 OA
HETATM   29  H   UNK N   1      34.426  10.541   7.799  0.00  0.00     0.219 HD
ENDBRANCH  20  28
ENDBRANCH   1  20
BRANCH   1  30
HETATM   30  N   UNK N   1      34.850  13.888   9.642  0.00  0.00    -0.362 N 
HETATM   31  C   UNK N   1      34.867  14.452  10.796  0.00  0.00     0.111 C 
ATOM     32  HN  UNK N   1      35.747  13.691   9.201  1.00  0.00     0.162 HD
BRANCH  31  33
HETATM   33  C   UNK N   1      36.184  14.592  11.488  0.00  0.00     0.086 C 
BRANCH  33  34
HETATM   34  C   UNK N   1      36.129  14.867  12.984  0.00  0.00     0.043 C 
BRANCH  34  35
HETATM   35  C   UNK N   1      36.291  13.635  13.886  0.00  0.00     0.173 C 
BRANCH  35  36
HETATM   36  C   UNK N   1      34.983  13.001  14.305  0.00  0.00     0.163 C 
HETATM   37  O   UNK N   1      34.583  13.124  15.450  0.00  0.00    -0.648 OA
BRANCH  36  38
HETATM   38  O   UNK N   1      34.235  12.321  13.413  0.00  0.00    -0.775 OA
HETATM   39  H   UNK N   1      34.472  11.525  12.976  0.00  0.00     0.167 HD
ENDBRANCH  36  38
ENDBRANCH  35  36
BRANCH  35  40
HETATM   40  N   UNK N   1      37.067  13.982  15.063  0.00  0.00    -0.418 N 
HETATM   41  H   UNK N   1      37.197  14.190  16.054  0.00  0.00     0.150 HD
HETATM   42  H   UNK N   1      38.013  14.063  14.691  0.00  0.00     0.150 HD
ENDBRANCH  35  40
ENDBRANCH  34  35
ENDBRANCH  33  34
ENDBRANCH  31  33
BRANCH  31  43
HETATM   43  O   UNK N   1      33.719  14.770  11.431  0.00  0.00    -0.350 OA
HETATM   44  H   UNK N   1      33.124  14.885  12.145  0.00  0.00     0.219 HD
ENDBRANCH  31  43
ENDBRANCH   1  30
TORSDOF 17
ENDMDL
