MODEL 1
REMARK VINA RESULT:      -5.6      0.000      0.000
REMARK  10 active torsions:
REMARK  status: ('A' for Active; 'I' for Inactive)
REMARK    1  A    between atoms: C_3  and  C_2 
REMARK    2  A    between atoms: O_14  and  C_2 
REMARK    3  A    between atoms: C_4  and  O_15 
REMARK    4  A    between atoms: C_5  and  O_16 
REMARK    5  A    between atoms: C_6  and  O_17 
REMARK    6  A    between atoms: C_9  and  C_7 
REMARK    7  A    between atoms: O_18  and  C_7 
REMARK    8  A    between atoms: C_8  and  O_19 
REMARK    9  A    between atoms: O_20  and  C_8 
REMARK   10  A    between atoms: C_9  and  N_12 
ROOT
HETATM    1  C   UNK N   1      34.588  15.493   9.062  0.00  0.00     0.180 C 
HETATM    2  C   UNK N   1      34.635  16.989   9.501  0.00  0.00     0.180 C 
HETATM    3  C   UNK N   1      34.676  17.817   8.232  0.00  0.00     0.183 C 
HETATM    4  C   UNK N   1      33.356  17.620   7.463  0.00  0.00     0.213 C 
HETATM    5  C   UNK N   1      32.767  16.168   7.647  0.00  0.00     0.232 C 
HETATM    6  O   UNK N   1      33.812  15.229   7.882  0.00  0.00    -0.341 OA
ENDROOT
BRANCH   5   7
HETATM    7  C   UNK N   1      32.021  15.763   6.373  0.00  0.00     0.169 C 
HETATM    8  N   UNK N   1      31.933  14.535   6.012  0.00  0.00    -0.379 N 
HETATM    9  H   UNK N   1      31.126  13.984   5.885  0.00  0.00     0.158 HD
ATOM     10  HN  UNK N   1      32.820  14.064   5.831  1.00  0.00     0.158 HD
BRANCH   7  11
HETATM   11  O   UNK N   1      31.440  16.711   5.612  0.00  0.00    -0.346 OA
HETATM   12  H   UNK N   1      31.240  17.626   5.582  0.00  0.00     0.219 HD
ENDBRANCH   7  11
ENDBRANCH   5   7
BRANCH   5  13
HETATM   13  N   UNK N   1      31.850  16.165   8.792  0.00  0.00    -0.309 N 
HETATM   14  C   UNK N   1      30.795  16.911   8.896  0.00  0.00     0.260 C 
ATOM     15  HN  UNK N   1      32.058  15.530   9.563  1.00  0.00     0.167 HD
BRANCH  14  16
HETATM   16  O   UNK N   1      30.025  16.810   9.997  0.00  0.00    -0.327 OA
HETATM   17  H   UNK N   1      29.891  17.141  10.863  0.00  0.00     0.221 HD
ENDBRANCH  14  16
BRANCH  14  18
HETATM   18  O   UNK N   1      30.466  17.782   7.908  0.00  0.00    -0.322 OA
HETATM   19  C   UNK N   1      29.179  18.237   7.740  0.00  0.00     0.213 C 
ENDBRANCH  14  18
ENDBRANCH   5  13
BRANCH   4  20
HETATM   20  O   UNK N   1      33.598  17.955   6.127  0.00  0.00    -0.387 OA
HETATM   21  H   UNK N   1      34.438  18.296   5.781  0.00  0.00     0.210 HD
ENDBRANCH   4  20
BRANCH   3  22
HETATM   22  O   UNK N   1      34.876  19.173   8.503  0.00  0.00    -0.390 OA
HETATM   23  H   UNK N   1      34.393  19.840   9.017  0.00  0.00     0.210 HD
ENDBRANCH   3  22
BRANCH   1  24
HETATM   24  C   UNK N   1      34.138  14.579  10.205  0.00  0.00     0.198 C 
BRANCH  24  25
HETATM   25  O   UNK N   1      33.378  15.273  11.149  0.00  0.00    -0.398 OA
HETATM   26  H   UNK N   1      33.806  15.843  11.807  0.00  0.00     0.209 HD
ENDBRANCH  24  25
ENDBRANCH   1  24
BRANCH   2  27
HETATM   27  O   UNK N   1      35.772  17.226  10.281  0.00  0.00    -0.390 OA
HETATM   28  H   UNK N   1      36.599  16.748  10.106  0.00  0.00     0.210 HD
ENDBRANCH   2  27
TORSDOF 10
ENDMDL
MODEL 2
REMARK VINA RESULT:      -5.4     12.209     13.677
REMARK  10 active torsions:
REMARK  status: ('A' for Active; 'I' for Inactive)
REMARK    1  A    between atoms: C_3  and  C_2 
REMARK    2  A    between atoms: O_14  and  C_2 
REMARK    3  A    between atoms: C_4  and  O_15 
REMARK    4  A    between atoms: C_5  and  O_16 
REMARK    5  A    between atoms: C_6  and  O_17 
REMARK    6  A    between atoms: C_9  and  C_7 
REMARK    7  A    between atoms: O_18  and  C_7 
REMARK    8  A    between atoms: C_8  and  O_19 
REMARK    9  A    between atoms: O_20  and  C_8 
REMARK   10  A    between atoms: C_9  and  N_12 
ROOT
HETATM    1  C   UNK N   1      21.919  18.329   3.596  0.00  0.00     0.180 C 
HETATM    2  C   UNK N   1      20.978  19.488   3.142  0.00  0.00     0.180 C 
HETATM    3  C   UNK N   1      20.782  19.332   1.647  0.00  0.00     0.183 C 
HETATM    4  C   UNK N   1      20.029  18.017   1.375  0.00  0.00     0.213 C 
HETATM    5  C   UNK N   1      20.393  16.892   2.420  0.00  0.00     0.232 C 
HETATM    6  O   UNK N   1      21.715  17.078   2.918  0.00  0.00    -0.341 OA
ENDROOT
BRANCH   5   7
HETATM    7  C   UNK N   1      20.315  15.525   1.736  0.00  0.00     0.169 C 
HETATM    8  N   UNK N   1      21.367  14.817   1.534  0.00  0.00    -0.379 N 
HETATM    9  H   UNK N   1      21.578  13.916   1.870  0.00  0.00     0.158 HD
ATOM     10  HN  UNK N   1      22.081  15.247   0.946  1.00  0.00     0.158 HD
BRANCH   7  11
HETATM   11  O   UNK N   1      19.120  15.048   1.336  0.00  0.00    -0.346 OA
HETATM   12  H   UNK N   1      18.373  14.564   1.629  0.00  0.00     0.219 HD
ENDBRANCH   7  11
ENDBRANCH   5   7
BRANCH   5  13
HETATM   13  N   UNK N   1      19.444  16.953   3.537  0.00  0.00    -0.309 N 
HETATM   14  C   UNK N   1      19.269  16.011   4.411  0.00  0.00     0.260 C 
ATOM     15  HN  UNK N   1      18.882  17.798   3.634  1.00  0.00     0.167 HD
BRANCH  14  16
HETATM   16  O   UNK N   1      18.372  16.191   5.399  0.00  0.00    -0.327 OA
HETATM   17  H   UNK N   1      17.543  16.574   5.613  0.00  0.00     0.221 HD
ENDBRANCH  14  16
BRANCH  14  18
HETATM   18  O   UNK N   1      19.981  14.858   4.334  0.00  0.00    -0.322 OA
HETATM   19  C   UNK N   1      20.865  14.484   5.319  0.00  0.00     0.213 C 
ENDBRANCH  14  18
ENDBRANCH   5  13
BRANCH   4  20
HETATM   20  O   UNK N   1      20.295  17.650   0.051  0.00  0.00    -0.387 OA
HETATM   21  H   UNK N   1      21.134  17.283  -0.267  0.00  0.00     0.210 HD
ENDBRANCH   4  20
BRANCH   3  22
HETATM   22  O   UNK N   1      20.078  20.409   1.101  0.00  0.00    -0.390 OA
HETATM   23  H   UNK N   1      20.336  21.238   0.669  0.00  0.00     0.210 HD
ENDBRANCH   3  22
BRANCH   1  24
HETATM   24  C   UNK N   1      21.874  18.121   5.112  0.00  0.00     0.198 C 
BRANCH  24  25
HETATM   25  O   UNK N   1      20.951  18.974   5.720  0.00  0.00    -0.398 OA
HETATM   26  H   UNK N   1      20.592  18.770   6.598  0.00  0.00     0.209 HD
ENDBRANCH  24  25
ENDBRANCH   1  24
BRANCH   2  27
HETATM   27  O   UNK N   1      21.563  20.724   3.436  0.00  0.00    -0.390 OA
HETATM   28  H   UNK N   1      21.264  21.243   4.200  0.00  0.00     0.210 HD
ENDBRANCH   2  27
TORSDOF 10
ENDMDL
MODEL 3
REMARK VINA RESULT:      -5.3      9.900     12.896
REMARK  10 active torsions:
REMARK  status: ('A' for Active; 'I' for Inactive)
REMARK    1  A    between atoms: C_3  and  C_2 
REMARK    2  A    between atoms: O_14  and  C_2 
REMARK    3  A    between atoms: C_4  and  O_15 
REMARK    4  A    between atoms: C_5  and  O_16 
REMARK    5  A    between atoms: C_6  and  O_17 
REMARK    6  A    between atoms: C_9  and  C_7 
REMARK    7  A    between atoms: O_18  and  C_7 
REMARK    8  A    between atoms: C_8  and  O_19 
REMARK    9  A    between atoms: O_20  and  C_8 
REMARK   10  A    between atoms: C_9  and  N_12 
ROOT
HETATM    1  C   UNK N   1      20.898  19.185   2.745  0.00  0.00     0.180 C 
HETATM    2  C   UNK N   1      19.759  18.192   3.134  0.00  0.00     0.180 C 
HETATM    3  C   UNK N   1      20.332  16.794   2.999  0.00  0.00     0.183 C 
HETATM    4  C   UNK N   1      21.455  16.611   4.036  0.00  0.00     0.213 C 
HETATM    5  C   UNK N   1      22.242  17.951   4.309  0.00  0.00     0.232 C 
HETATM    6  O   UNK N   1      22.217  18.791   3.160  0.00  0.00    -0.341 OA
ENDROOT
BRANCH   5   7
HETATM    7  C   UNK N   1      23.698  17.620   4.643  0.00  0.00     0.169 C 
HETATM    8  N   UNK N   1      24.661  17.990   3.878  0.00  0.00    -0.379 N 
HETATM    9  H   UNK N   1      25.423  18.577   4.085  0.00  0.00     0.158 HD
ATOM     10  HN  UNK N   1      24.630  17.626   2.925  1.00  0.00     0.158 HD
BRANCH   7  11
HETATM   11  O   UNK N   1      23.985  16.928   5.763  0.00  0.00    -0.346 OA
HETATM   12  H   UNK N   1      24.628  16.368   6.151  0.00  0.00     0.219 HD
ENDBRANCH   7  11
ENDBRANCH   5   7
BRANCH   5  13
HETATM   13  N   UNK N   1      21.613  18.653   5.434  0.00  0.00    -0.309 N 
HETATM   14  C   UNK N   1      21.241  18.091   6.541  0.00  0.00     0.260 C 
ATOM     15  HN  UNK N   1      21.457  19.656   5.337  1.00  0.00     0.167 HD
BRANCH  14  16
HETATM   16  O   UNK N   1      20.682  18.848   7.506  0.00  0.00    -0.327 OA
HETATM   17  H   UNK N   1      20.661  19.707   7.880  0.00  0.00     0.221 HD
ENDBRANCH  14  16
BRANCH  14  18
HETATM   18  O   UNK N   1      21.415  16.759   6.731  0.00  0.00    -0.322 OA
HETATM   19  C   UNK N   1      20.974  16.123   7.867  0.00  0.00     0.213 C 
ENDBRANCH  14  18
ENDBRANCH   5  13
BRANCH   4  20
HETATM   20  O   UNK N   1      22.274  15.570   3.584  0.00  0.00    -0.387 OA
HETATM   21  H   UNK N   1      23.155  15.363   3.932  0.00  0.00     0.210 HD
ENDBRANCH   4  20
BRANCH   3  22
HETATM   22  O   UNK N   1      19.352  15.813   3.174  0.00  0.00    -0.390 OA
HETATM   23  H   UNK N   1      18.519  15.600   2.725  0.00  0.00     0.210 HD
ENDBRANCH   3  22
BRANCH   1  24
HETATM   24  C   UNK N   1      20.598  20.608   3.222  0.00  0.00     0.198 C 
BRANCH  24  25
HETATM   25  O   UNK N   1      21.543  21.520   2.747  0.00  0.00    -0.398 OA
HETATM   26  H   UNK N   1      21.923  21.422   1.860  0.00  0.00     0.209 HD
ENDBRANCH  24  25
ENDBRANCH   1  24
BRANCH   2  27
HETATM   27  O   UNK N   1      18.663  18.360   2.282  0.00  0.00    -0.390 OA
HETATM   28  H   UNK N   1      18.317  17.613   1.769  0.00  0.00     0.210 HD
ENDBRANCH   2  27
TORSDOF 10
ENDMDL
MODEL 4
REMARK VINA RESULT:      -5.2      2.101      4.095
REMARK  10 active torsions:
REMARK  status: ('A' for Active; 'I' for Inactive)
REMARK    1  A    between atoms: C_3  and  C_2 
REMARK    2  A    between atoms: O_14  and  C_2 
REMARK    3  A    between atoms: C_4  and  O_15 
REMARK    4  A    between atoms: C_5  and  O_16 
REMARK    5  A    between atoms: C_6  and  O_17 
REMARK    6  A    between atoms: C_9  and  C_7 
REMARK    7  A    between atoms: O_18  and  C_7 
REMARK    8  A    between atoms: C_8  and  O_19 
REMARK    9  A    between atoms: O_20  and  C_8 
REMARK   10  A    between atoms: C_9  and  N_12 
ROOT
HETATM    1  C   UNK N   1      33.702  17.261   8.789  0.00  0.00     0.180 C 
HETATM    2  C   UNK N   1      34.504  16.402   9.815  0.00  0.00     0.180 C 
HETATM    3  C   UNK N   1      33.566  15.318  10.308  0.00  0.00     0.183 C 
HETATM    4  C   UNK N   1      33.212  14.390   9.132  0.00  0.00     0.213 C 
HETATM    5  C   UNK N   1      33.154  15.161   7.756  0.00  0.00     0.232 C 
HETATM    6  O   UNK N   1      32.789  16.523   7.960  0.00  0.00    -0.341 OA
ENDROOT
BRANCH   5   7
HETATM    7  C   UNK N   1      32.108  14.503   6.854  0.00  0.00     0.169 C 
HETATM    8  N   UNK N   1      31.069  15.144   6.456  0.00  0.00    -0.379 N 
HETATM    9  H   UNK N   1      30.788  15.355   5.537  0.00  0.00     0.158 HD
ATOM     10  HN  UNK N   1      30.451  15.481   7.194  1.00  0.00     0.158 HD
BRANCH   7  11
HETATM   11  O   UNK N   1      32.276  13.225   6.462  0.00  0.00    -0.346 OA
HETATM   12  H   UNK N   1      32.506  12.372   6.774  0.00  0.00     0.219 HD
ENDBRANCH   7  11
ENDBRANCH   5   7
BRANCH   5  13
HETATM   13  N   UNK N   1      34.476  15.106   7.122  0.00  0.00    -0.309 N 
HETATM   14  C   UNK N   1      34.708  15.369   5.874  0.00  0.00     0.260 C 
ATOM     15  HN  UNK N   1      35.269  14.842   7.705  1.00  0.00     0.167 HD
BRANCH  14  16
HETATM   16  O   UNK N   1      35.971  15.293   5.411  0.00  0.00    -0.327 OA
HETATM   17  H   UNK N   1      36.851  15.061   5.638  0.00  0.00     0.221 HD
ENDBRANCH  14  16
BRANCH  14  18
HETATM   18  O   UNK N   1      33.695  15.722   5.043  0.00  0.00    -0.322 OA
HETATM   19  C   UNK N   1      33.685  15.362   3.715  0.00  0.00     0.213 C 
ENDBRANCH  14  18
ENDBRANCH   5  13
BRANCH   4  20
HETATM   20  O   UNK N   1      32.014  13.744   9.455  0.00  0.00    -0.387 OA
HETATM   21  H   UNK N   1      31.262  13.631   8.854  0.00  0.00     0.210 HD
ENDBRANCH   4  20
BRANCH   3  22
HETATM   22  O   UNK N   1      34.129  14.578  11.351  0.00  0.00    -0.390 OA
HETATM   23  H   UNK N   1      33.987  14.542  12.310  0.00  0.00     0.210 HD
ENDBRANCH   3  22
BRANCH   1  24
HETATM   24  C   UNK N   1      34.626  18.120   7.922  0.00  0.00     0.198 C 
BRANCH  24  25
HETATM   25  O   UNK N   1      35.267  19.106   8.674  0.00  0.00    -0.398 OA
HETATM   26  H   UNK N   1      36.041  18.891   9.217  0.00  0.00     0.209 HD
ENDBRANCH  24  25
ENDBRANCH   1  24
BRANCH   2  27
HETATM   27  O   UNK N   1      34.934  17.202  10.879  0.00  0.00    -0.390 OA
HETATM   28  H   UNK N   1      34.308  17.497  11.559  0.00  0.00     0.210 HD
ENDBRANCH   2  27
TORSDOF 10
ENDMDL
MODEL 5
REMARK VINA RESULT:      -5.1     11.735     13.618
REMARK  10 active torsions:
REMARK  status: ('A' for Active; 'I' for Inactive)
REMARK    1  A    between atoms: C_3  and  C_2 
REMARK    2  A    between atoms: O_14  and  C_2 
REMARK    3  A    between atoms: C_4  and  O_15 
REMARK    4  A    between atoms: C_5  and  O_16 
REMARK    5  A    between atoms: C_6  and  O_17 
REMARK    6  A    between atoms: C_9  and  C_7 
REMARK    7  A    between atoms: O_18  and  C_7 
REMARK    8  A    between atoms: C_8  and  O_19 
REMARK    9  A    between atoms: O_20  and  C_8 
REMARK   10  A    between atoms: C_9  and  N_12 
ROOT
HETATM    1  C   UNK N   1      19.735  18.010   2.106  0.00  0.00     0.180 C 
HETATM    2  C   UNK N   1      20.729  19.200   1.935  0.00  0.00     0.180 C 
HETATM    3  C   UNK N   1      20.766  19.934   3.261  0.00  0.00     0.183 C 
HETATM    4  C   UNK N   1      21.367  19.003   4.331  0.00  0.00     0.213 C 
HETATM    5  C   UNK N   1      21.004  17.488   4.079  0.00  0.00     0.232 C 
HETATM    6  O   UNK N   1      19.759  17.377   3.396  0.00  0.00    -0.341 OA
ENDROOT
BRANCH   5   7
HETATM    7  C   UNK N   1      20.891  16.767   5.424  0.00  0.00     0.169 C 
HETATM    8  N   UNK N   1      19.779  16.264   5.822  0.00  0.00    -0.379 N 
HETATM    9  H   UNK N   1      19.566  15.326   6.034  0.00  0.00     0.158 HD
ATOM     10  HN  UNK N   1      19.011  16.926   5.934  1.00  0.00     0.158 HD
BRANCH   7  11
HETATM   11  O   UNK N   1      21.979  16.651   6.211  0.00  0.00    -0.346 OA
HETATM   12  H   UNK N   1      22.261  16.680   7.104  0.00  0.00     0.219 HD
ENDBRANCH   7  11
ENDBRANCH   5   7
BRANCH   5  13
HETATM   13  N   UNK N   1      22.057  16.874   3.263  0.00  0.00    -0.309 N 
HETATM   14  C   UNK N   1      22.234  15.598   3.122  0.00  0.00     0.260 C 
ATOM     15  HN  UNK N   1      22.697  17.497   2.770  1.00  0.00     0.167 HD
BRANCH  14  16
HETATM   16  O   UNK N   1      23.234  15.156   2.335  0.00  0.00    -0.327 OA
HETATM   17  H   UNK N   1      23.441  14.833   1.479  0.00  0.00     0.221 HD
ENDBRANCH  14  16
BRANCH  14  18
HETATM   18  O   UNK N   1      21.420  14.715   3.755  0.00  0.00    -0.322 OA
HETATM   19  C   UNK N   1      20.590  13.866   3.062  0.00  0.00     0.213 C 
ENDBRANCH  14  18
ENDBRANCH   5  13
BRANCH   4  20
HETATM   20  O   UNK N   1      20.942  19.474   5.578  0.00  0.00    -0.387 OA
HETATM   21  H   UNK N   1      20.046  19.376   5.935  0.00  0.00     0.210 HD
ENDBRANCH   4  20
BRANCH   3  22
HETATM   22  O   UNK N   1      21.510  21.114   3.181  0.00  0.00    -0.390 OA
HETATM   23  H   UNK N   1      22.431  21.349   3.372  0.00  0.00     0.210 HD
ENDBRANCH   3  22
BRANCH   1  24
HETATM   24  C   UNK N   1      19.907  16.963   1.002  0.00  0.00     0.198 C 
BRANCH  24  25
HETATM   25  O   UNK N   1      20.296  17.548  -0.205  0.00  0.00    -0.398 OA
HETATM   26  H   UNK N   1      20.596  18.470  -0.235  0.00  0.00     0.209 HD
ENDBRANCH  24  25
ENDBRANCH   1  24
BRANCH   2  27
HETATM   27  O   UNK N   1      20.290  20.050   0.914  0.00  0.00    -0.390 OA
HETATM   28  H   UNK N   1      20.923  20.439   0.290  0.00  0.00     0.210 HD
ENDBRANCH   2  27
TORSDOF 10
ENDMDL
MODEL 6
REMARK VINA RESULT:      -5.1      1.889      4.482
REMARK  10 active torsions:
REMARK  status: ('A' for Active; 'I' for Inactive)
REMARK    1  A    between atoms: C_3  and  C_2 
REMARK    2  A    between atoms: O_14  and  C_2 
REMARK    3  A    between atoms: C_4  and  O_15 
REMARK    4  A    between atoms: C_5  and  O_16 
REMARK    5  A    between atoms: C_6  and  O_17 
REMARK    6  A    between atoms: C_9  and  C_7 
REMARK    7  A    between atoms: O_18  and  C_7 
REMARK    8  A    between atoms: C_8  and  O_19 
REMARK    9  A    between atoms: O_20  and  C_8 
REMARK   10  A    between atoms: C_9  and  N_12 
ROOT
HETATM    1  C   UNK N   1      33.096  15.262   6.198  0.00  0.00     0.180 C 
HETATM    2  C   UNK N   1      32.776  16.104   4.924  0.00  0.00     0.180 C 
HETATM    3  C   UNK N   1      31.305  16.463   4.993  0.00  0.00     0.183 C 
HETATM    4  C   UNK N   1      31.071  17.384   6.205  0.00  0.00     0.213 C 
HETATM    5  C   UNK N   1      32.038  17.050   7.406  0.00  0.00     0.232 C 
HETATM    6  O   UNK N   1      32.404  15.674   7.389  0.00  0.00    -0.341 OA
ENDROOT
BRANCH   5   7
HETATM    7  C   UNK N   1      31.323  17.351   8.725  0.00  0.00     0.169 C 
HETATM    8  N   UNK N   1      31.017  16.414   9.549  0.00  0.00    -0.379 N 
HETATM    9  H   UNK N   1      31.308  16.292  10.481  0.00  0.00     0.158 HD
ATOM     10  HN  UNK N   1      30.385  15.700   9.187  1.00  0.00     0.158 HD
BRANCH   7  11
HETATM   11  O   UNK N   1      31.008  18.623   9.038  0.00  0.00    -0.346 OA
HETATM   12  H   UNK N   1      30.922  19.216   9.758  0.00  0.00     0.219 HD
ENDBRANCH   7  11
ENDBRANCH   5   7
BRANCH   5  13
HETATM   13  N   UNK N   1      33.247  17.872   7.288  0.00  0.00    -0.309 N 
HETATM   14  C   UNK N   1      34.124  18.037   8.228  0.00  0.00     0.260 C 
ATOM     15  HN  UNK N   1      33.411  18.348   6.401  1.00  0.00     0.167 HD
BRANCH  14  16
HETATM   16  O   UNK N   1      35.202  18.811   7.993  0.00  0.00    -0.327 OA
HETATM   17  H   UNK N   1      35.689  19.251   7.325  0.00  0.00     0.221 HD
ENDBRANCH  14  16
BRANCH  14  18
HETATM   18  O   UNK N   1      33.963  17.436   9.435  0.00  0.00    -0.322 OA
HETATM   19  C   UNK N   1      34.953  16.670  10.003  0.00  0.00     0.213 C 
ENDBRANCH  14  18
ENDBRANCH   5  13
BRANCH   4  20
HETATM   20  O   UNK N   1      29.716  17.292   6.542  0.00  0.00    -0.387 OA
HETATM   21  H   UNK N   1      29.374  16.972   7.392  0.00  0.00     0.210 HD
ENDBRANCH   4  20
BRANCH   3  22
HETATM   22  O   UNK N   1      30.867  17.088   3.823  0.00  0.00    -0.390 OA
HETATM   23  H   UNK N   1      30.942  17.988   3.467  0.00  0.00     0.210 HD
ENDBRANCH   3  22
BRANCH   1  24
HETATM   24  C   UNK N   1      34.601  15.183   6.463  0.00  0.00     0.198 C 
BRANCH  24  25
HETATM   25  O   UNK N   1      35.311  16.087   5.672  0.00  0.00    -0.398 OA
HETATM   26  H   UNK N   1      35.007  17.003   5.572  0.00  0.00     0.209 HD
ENDBRANCH  24  25
ENDBRANCH   1  24
BRANCH   2  27
HETATM   27  O   UNK N   1      33.047  15.356   3.773  0.00  0.00    -0.390 OA
HETATM   28  H   UNK N   1      32.617  14.498   3.629  0.00  0.00     0.210 HD
ENDBRANCH   2  27
TORSDOF 10
ENDMDL
MODEL 7
REMARK VINA RESULT:      -5.1      2.467      4.818
REMARK  10 active torsions:
REMARK  status: ('A' for Active; 'I' for Inactive)
REMARK    1  A    between atoms: C_3  and  C_2 
REMARK    2  A    between atoms: O_14  and  C_2 
REMARK    3  A    between atoms: C_4  and  O_15 
REMARK    4  A    between atoms: C_5  and  O_16 
REMARK    5  A    between atoms: C_6  and  O_17 
REMARK    6  A    between atoms: C_9  and  C_7 
REMARK    7  A    between atoms: O_18  and  C_7 
REMARK    8  A    between atoms: C_8  and  O_19 
REMARK    9  A    between atoms: O_20  and  C_8 
REMARK   10  A    between atoms: C_9  and  N_12 
ROOT
HETATM    1  C   UNK N   1      35.762  13.374   8.253  0.00  0.00     0.180 C 
HETATM    2  C   UNK N   1      34.241  13.318   7.913  0.00  0.00     0.180 C 
HETATM    3  C   UNK N   1      33.493  13.483   9.222  0.00  0.00     0.183 C 
HETATM    4  C   UNK N   1      33.772  14.890   9.784  0.00  0.00     0.213 C 
HETATM    5  C   UNK N   1      35.224  15.397   9.434  0.00  0.00     0.232 C 
HETATM    6  O   UNK N   1      36.120  14.298   9.294  0.00  0.00    -0.341 OA
ENDROOT
BRANCH   5   7
HETATM    7  C   UNK N   1      35.727  16.299  10.563  0.00  0.00     0.169 C 
HETATM    8  N   UNK N   1      36.270  15.810  11.619  0.00  0.00    -0.379 N 
HETATM    9  H   UNK N   1      37.178  15.955  11.971  0.00  0.00     0.158 HD
ATOM     10  HN  UNK N   1      35.679  15.184  12.168  1.00  0.00     0.158 HD
BRANCH   7  11
HETATM   11  O   UNK N   1      35.604  17.636  10.453  0.00  0.00    -0.346 OA
HETATM   12  H   UNK N   1      35.836  18.444  10.867  0.00  0.00     0.219 HD
ENDBRANCH   7  11
ENDBRANCH   5   7
BRANCH   5  13
HETATM   13  N   UNK N   1      35.178  16.144   8.172  0.00  0.00    -0.309 N 
HETATM   14  C   UNK N   1      34.302  17.056   7.885  0.00  0.00     0.260 C 
ATOM     15  HN  UNK N   1      35.887  15.932   7.471  1.00  0.00     0.167 HD
BRANCH  14  16
HETATM   16  O   UNK N   1      34.371  17.680   6.693  0.00  0.00    -0.327 OA
HETATM   17  H   UNK N   1      34.411  17.545   5.766  0.00  0.00     0.221 HD
ENDBRANCH  14  16
BRANCH  14  18
HETATM   18  O   UNK N   1      33.329  17.382   8.773  0.00  0.00    -0.322 OA
HETATM   19  C   UNK N   1      32.108  17.867   8.367  0.00  0.00     0.213 C 
ENDBRANCH  14  18
ENDBRANCH   5  13
BRANCH   4  20
HETATM   20  O   UNK N   1      33.515  14.848  11.158  0.00  0.00    -0.387 OA
HETATM   21  H   UNK N   1      32.709  14.494  11.564  0.00  0.00     0.210 HD
ENDBRANCH   4  20
BRANCH   3  22
HETATM   22  O   UNK N   1      32.118  13.294   9.062  0.00  0.00    -0.390 OA
HETATM   23  H   UNK N   1      31.461  13.610   8.423  0.00  0.00     0.210 HD
ENDBRANCH   3  22
BRANCH   1  24
HETATM   24  C   UNK N   1      36.613  13.629   7.006  0.00  0.00     0.198 C 
BRANCH  24  25
HETATM   25  O   UNK N   1      35.852  14.161   5.964  0.00  0.00    -0.398 OA
HETATM   26  H   UNK N   1      35.480  13.585   5.278  0.00  0.00     0.209 HD
ENDBRANCH  24  25
ENDBRANCH   1  24
BRANCH   2  27
HETATM   27  O   UNK N   1      33.927  12.092   7.318  0.00  0.00    -0.390 OA
HETATM   28  H   UNK N   1      34.394  11.795   6.521  0.00  0.00     0.210 HD
ENDBRANCH   2  27
TORSDOF 10
ENDMDL
MODEL 8
REMARK VINA RESULT:      -5.0      2.839      4.340
REMARK  10 active torsions:
REMARK  status: ('A' for Active; 'I' for Inactive)
REMARK    1  A    between atoms: C_3  and  C_2 
REMARK    2  A    between atoms: O_14  and  C_2 
REMARK    3  A    between atoms: C_4  and  O_15 
REMARK    4  A    between atoms: C_5  and  O_16 
REMARK    5  A    between atoms: C_6  and  O_17 
REMARK    6  A    between atoms: C_9  and  C_7 
REMARK    7  A    between atoms: O_18  and  C_7 
REMARK    8  A    between atoms: C_8  and  O_19 
REMARK    9  A    between atoms: O_20  and  C_8 
REMARK   10  A    between atoms: C_9  and  N_12 
ROOT
HETATM    1  C   UNK N   1      36.583  13.780   9.442  0.00  0.00     0.180 C 
HETATM    2  C   UNK N   1      36.567  13.783  11.002  0.00  0.00     0.180 C 
HETATM    3  C   UNK N   1      36.297  15.210  11.435  0.00  0.00     0.183 C 
HETATM    4  C   UNK N   1      34.884  15.614  10.975  0.00  0.00     0.213 C 
HETATM    5  C   UNK N   1      34.479  14.929   9.612  0.00  0.00     0.232 C 
HETATM    6  O   UNK N   1      35.634  14.663   8.822  0.00  0.00    -0.341 OA
ENDROOT
BRANCH   5   7
HETATM    7  C   UNK N   1      33.556  15.867   8.832  0.00  0.00     0.169 C 
HETATM    8  N   UNK N   1      33.908  16.365   7.703  0.00  0.00    -0.379 N 
HETATM    9  H   UNK N   1      33.480  16.262   6.822  0.00  0.00     0.158 HD
ATOM     10  HN  UNK N   1      34.746  16.947   7.720  1.00  0.00     0.158 HD
BRANCH   7  11
HETATM   11  O   UNK N   1      32.345  16.179   9.334  0.00  0.00    -0.346 OA
HETATM   12  H   UNK N   1      31.747  16.891   9.455  0.00  0.00     0.219 HD
ENDBRANCH   7  11
ENDBRANCH   5   7
BRANCH   5  13
HETATM   13  N   UNK N   1      33.791  13.665   9.900  0.00  0.00    -0.309 N 
HETATM   14  C   UNK N   1      33.039  13.026   9.059  0.00  0.00     0.260 C 
ATOM     15  HN  UNK N   1      33.913  13.261  10.828  1.00  0.00     0.167 HD
BRANCH  14  16
HETATM   16  O   UNK N   1      32.468  11.866   9.440  0.00  0.00    -0.327 OA
HETATM   17  H   UNK N   1      31.660  11.466   9.699  0.00  0.00     0.221 HD
ENDBRANCH  14  16
BRANCH  14  18
HETATM   18  O   UNK N   1      32.831  13.513   7.810  0.00  0.00    -0.322 OA
HETATM   19  C   UNK N   1      33.255  12.842   6.688  0.00  0.00     0.213 C 
ENDBRANCH  14  18
ENDBRANCH   5  13
BRANCH   4  20
HETATM   20  O   UNK N   1      34.845  17.012  10.925  0.00  0.00    -0.387 OA
HETATM   21  H   UNK N   1      34.046  17.542  10.786  0.00  0.00     0.210 HD
ENDBRANCH   4  20
BRANCH   3  22
HETATM   22  O   UNK N   1      36.412  15.364  12.819  0.00  0.00    -0.390 OA
HETATM   23  H   UNK N   1      37.125  15.213  13.460  0.00  0.00     0.210 HD
ENDBRANCH   3  22
BRANCH   1  24
HETATM   24  C   UNK N   1      36.438  12.366   8.875  0.00  0.00     0.198 C 
BRANCH  24  25
HETATM   25  O   UNK N   1      36.064  11.452   9.862  0.00  0.00    -0.398 OA
HETATM   26  H   UNK N   1      35.128  11.268  10.038  0.00  0.00     0.209 HD
ENDBRANCH  24  25
ENDBRANCH   1  24
BRANCH   2  27
HETATM   27  O   UNK N   1      37.799  13.343  11.496  0.00  0.00    -0.390 OA
HETATM   28  H   UNK N   1      38.020  12.398  11.504  0.00  0.00     0.210 HD
ENDBRANCH   2  27
TORSDOF 10
ENDMDL
MODEL 9
REMARK VINA RESULT:      -5.0      2.099      4.360
REMARK  10 active torsions:
REMARK  status: ('A' for Active; 'I' for Inactive)
REMARK    1  A    between atoms: C_3  and  C_2 
REMARK    2  A    between atoms: O_14  and  C_2 
REMARK    3  A    between atoms: C_4  and  O_15 
REMARK    4  A    between atoms: C_5  and  O_16 
REMARK    5  A    between atoms: C_6  and  O_17 
REMARK    6  A    between atoms: C_9  and  C_7 
REMARK    7  A    between atoms: O_18  and  C_7 
REMARK    8  A    between atoms: C_8  and  O_19 
REMARK    9  A    between atoms: O_20  and  C_8 
REMARK   10  A    between atoms: C_9  and  N_12 
ROOT
HETATM    1  C   UNK N   1      33.171  17.097   7.892  0.00  0.00     0.180 C 
HETATM    2  C   UNK N   1      34.561  17.618   8.370  0.00  0.00     0.180 C 
HETATM    3  C   UNK N   1      34.792  17.043   9.754  0.00  0.00     0.183 C 
HETATM    4  C   UNK N   1      34.905  15.511   9.647  0.00  0.00     0.213 C 
HETATM    5  C   UNK N   1      33.995  14.923   8.500  0.00  0.00     0.232 C 
HETATM    6  O   UNK N   1      32.856  15.751   8.287  0.00  0.00    -0.341 OA
ENDROOT
BRANCH   5   7
HETATM    7  C   UNK N   1      33.517  13.526   8.904  0.00  0.00     0.169 C 
HETATM    8  N   UNK N   1      32.277  13.283   9.129  0.00  0.00    -0.379 N 
HETATM    9  H   UNK N   1      31.678  12.650   8.670  0.00  0.00     0.158 HD
ATOM     10  HN  UNK N   1      31.854  13.819   9.887  1.00  0.00     0.158 HD
BRANCH   7  11
HETATM   11  O   UNK N   1      34.411  12.525   9.024  0.00  0.00    -0.346 OA
HETATM   12  H   UNK N   1      35.019  12.134   9.620  0.00  0.00     0.219 HD
ENDBRANCH   7  11
ENDBRANCH   5   7
BRANCH   5  13
HETATM   13  N   UNK N   1      34.777  14.851   7.260  0.00  0.00    -0.309 N 
HETATM   14  C   UNK N   1      34.446  14.157   6.217  0.00  0.00     0.260 C 
ATOM     15  HN  UNK N   1      35.643  15.387   7.216  1.00  0.00     0.167 HD
BRANCH  14  16
HETATM   16  O   UNK N   1      35.244  14.180   5.132  0.00  0.00    -0.327 OA
HETATM   17  H   UNK N   1      35.498  14.689   4.386  0.00  0.00     0.221 HD
ENDBRANCH  14  16
BRANCH  14  18
HETATM   18  O   UNK N   1      33.308  13.417   6.213  0.00  0.00    -0.322 OA
HETATM   19  C   UNK N   1      32.262  13.698   5.365  0.00  0.00     0.213 C 
ENDBRANCH  14  18
ENDBRANCH   5  13
BRANCH   4  20
HETATM   20  O   UNK N   1      34.615  14.983  10.910  0.00  0.00    -0.387 OA
HETATM   21  H   UNK N   1      34.040  14.219  11.076  0.00  0.00     0.210 HD
ENDBRANCH   4  20
BRANCH   3  22
HETATM   22  O   UNK N   1      35.942  17.568  10.349  0.00  0.00    -0.390 OA
HETATM   23  H   UNK N   1      36.573  17.241  11.009  0.00  0.00     0.210 HD
ENDBRANCH   3  22
BRANCH   1  24
HETATM   24  C   UNK N   1      32.994  17.257   6.380  0.00  0.00     0.198 C 
BRANCH  24  25
HETATM   25  O   UNK N   1      34.180  17.660   5.763  0.00  0.00    -0.398 OA
HETATM   26  H   UNK N   1      34.199  18.441   5.189  0.00  0.00     0.209 HD
ENDBRANCH  24  25
ENDBRANCH   1  24
BRANCH   2  27
HETATM   27  O   UNK N   1      34.562  19.016   8.412  0.00  0.00    -0.390 OA
HETATM   28  H   UNK N   1      35.393  19.507   8.515  0.00  0.00     0.210 HD
ENDBRANCH   2  27
TORSDOF 10
ENDMDL
