REMARK  6 active torsions:
REMARK  status: ('A' for Active; 'I' for Inactive)
REMARK    1  A    between atoms: N_18  and  Cu_13 
REMARK    2  A    between atoms: N_19  and  Cu_13 
REMARK    3  A    between atoms: N_20  and  Cu_13 
REMARK    4  A    between atoms: N_21  and  Cu_13 
REMARK    5  A    between atoms: O_22  and  Cu_13 
REMARK    6  A    between atoms: O_23  and  Cu_13 
ROOT
HETATM    1 Cu   UNK N   1       1.837   3.372  -0.915  0.00  0.00     0.000 Cu
ENDROOT
BRANCH   1   2
HETATM    2  N   UNK N   1      -0.165   3.402  -0.962  0.00  0.00    -0.255 N 
HETATM    3  C   UNK N   1      -0.971   4.048  -1.819  0.00  0.00     0.135 A 
HETATM    4  C   UNK N   1      -2.269   3.916  -1.364  0.00  0.00     0.108 A 
HETATM    5  N   UNK N   1      -2.255   3.202  -0.223  0.00  0.00    -0.359 N 
HETATM    6  C   UNK N   1      -0.963   2.912   0.008  0.00  0.00     0.206 A 
HETATM    7  H   UNK N   1      -3.029   2.946   0.328  0.00  0.00     0.166 HD
ENDBRANCH   1   2
BRANCH   1   8
HETATM    8  N   UNK N   1       1.789   1.769   0.291  0.00  0.00    -0.255 N 
HETATM    9  C   UNK N   1       2.590   1.436   1.317  0.00  0.00     0.135 A 
HETATM   10  C   UNK N   1       2.297   0.134   1.681  0.00  0.00     0.108 A 
HETATM   11  N   UNK N   1       1.329  -0.333   0.870  0.00  0.00    -0.359 N 
HETATM   12  C   UNK N   1       1.046   0.674   0.025  0.00  0.00     0.206 A 
HETATM   13  H   UNK N   1       0.914  -1.225   0.891  0.00  0.00     0.166 HD
ENDBRANCH   1   8
BRANCH   1  14
HETATM   14  N   UNK N   1       1.720   4.798   0.500  0.00  0.00    -0.255 N 
HETATM   15  C   UNK N   1       0.819   4.951   1.485  0.00  0.00     0.135 A 
HETATM   16  C   UNK N   1       0.987   6.211   2.028  0.00  0.00     0.108 A 
HETATM   17  N   UNK N   1       1.979   6.835   1.366  0.00  0.00    -0.359 N 
HETATM   18  C   UNK N   1       2.397   5.963   0.432  0.00  0.00     0.206 A 
HETATM   19  H   UNK N   1       2.326   7.741   1.531  0.00  0.00     0.166 HD
ENDBRANCH   1  14
BRANCH   1  20
HETATM   20  N   UNK N   1       3.841   3.306  -0.751  0.00  0.00    -0.255 N 
HETATM   21  C   UNK N   1       4.672   2.423  -1.333  0.00  0.00     0.135 A 
HETATM   22  C   UNK N   1       5.948   2.661  -0.862  0.00  0.00     0.108 A 
HETATM   23  N   UNK N   1       5.897   3.683   0.013  0.00  0.00    -0.359 N 
HETATM   24  C   UNK N   1       4.605   4.051   0.070  0.00  0.00     0.206 A 
HETATM   25  H   UNK N   1       6.650   4.079   0.509  0.00  0.00     0.166 HD
ENDBRANCH   1  20
BRANCH   1  26
HETATM   26  O   UNK N   1       1.926   4.782  -2.186  0.00  0.00     0.000 OA
HETATM   27  H   UNK N   1       2.571   5.103  -2.835  0.00  0.00     0.000 HD
HETATM   28  H   UNK N   1       1.118   5.319  -2.186  0.00  0.00     0.000 HD
ENDBRANCH   1  26
BRANCH   1  29
HETATM   29  O   UNK N   1       1.909   2.150  -2.367  0.00  0.00     0.000 OA
HETATM   30  H   UNK N   1       1.387   1.806  -3.109  0.00  0.00     0.000 HD
HETATM   31  H   UNK N   1       2.776   1.715  -2.367  0.00  0.00     0.000 HD
ENDBRANCH   1  29
TORSDOF 6
