MODEL 1
REMARK VINA RESULT:      -6.5      0.000      0.000
REMARK  31 active torsions:
REMARK  status: ('A' for Active; 'I' for Inactive)
REMARK    1  A    between atoms: C_4  and  C_3 
REMARK    2  A    between atoms: C_12  and  C_3 
REMARK    3  A    between atoms: N_25  and  C_4 
REMARK    4  A    between atoms: C_6  and  C_5 
REMARK    5  A    between atoms: N_23  and  C_5 
REMARK    6  A    between atoms: S_54  and  C_6 
REMARK    7  A    between atoms: C_11  and  C_7 
REMARK    8  A    between atoms: O_45  and  C_7 
REMARK    9  A    between atoms: C_21  and  C_8 
REMARK   10  A    between atoms: O_46  and  C_8 
REMARK   11  A    between atoms: N_23  and  C_12 
REMARK   12  A    between atoms: O_34  and  C_12 
REMARK   13  A    between atoms: C_14  and  O_35 
REMARK   14  A    between atoms: C_15  and  O_48 
REMARK   15  A    between atoms: C_19  and  C_16 
REMARK   16  A    between atoms: C_21  and  C_16 
REMARK   17  A    between atoms: C_16  and  O_36 
REMARK   18  A    between atoms: N_22  and  C_17 
REMARK   19  A    between atoms: N_25  and  C_19 
REMARK   20  A    between atoms: O_37  and  C_19 
REMARK   21  A    between atoms: C_20  and  N_33 
REMARK   22  A    between atoms: P_50  and  O_38 
REMARK   23  A    between atoms: P_50  and  O_39 
REMARK   24  A    between atoms: P_51  and  O_41 
REMARK   25  A    between atoms: P_52  and  O_43 
REMARK   26  A    between atoms: P_51  and  O_45 
REMARK   27  A    between atoms: P_52  and  O_46 
REMARK   28  A    between atoms: P_50  and  O_48 
REMARK   29  A    between atoms: P_51  and  O_49 
REMARK   30  A    between atoms: P_52  and  O_49 
REMARK   31  A    between atoms: S_54  and  S_53 
ROOT
HETATM    1  O   UNK N   1      34.956  19.066   8.314  0.00  0.00    -0.631 OA
HETATM    2  P   UNK N   1      34.089  17.794   8.115  0.00  0.00     0.401 P 
ENDROOT
BRANCH   2   3
HETATM    3  O   UNK N   1      33.941  17.084   9.692  0.00  0.00    -0.307 OA
HETATM    4  H   UNK N   1      33.301  16.896  10.395  0.00  0.00     0.222 HD
ENDBRANCH   2   3
BRANCH   2   5
HETATM    5  O   UNK N   1      32.491  18.219   7.560  0.00  0.00    -0.294 OA
BRANCH   5   6
HETATM    6  C   UNK N   1      31.547  17.438   8.247  0.00  0.00     0.215 C 
BRANCH   6   7
HETATM    7  C   UNK N   1      30.682  16.654   7.258  0.00  0.00     0.180 C 
HETATM    8  C   UNK N   1      31.290  16.649   5.842  0.00  0.00     0.197 C 
HETATM    9  C   UNK N   1      30.013  16.636   5.041  0.00  0.00     0.199 C 
HETATM   10  C   UNK N   1      29.223  17.648   5.855  0.00  0.00     0.262 C 
HETATM   11  O   UNK N   1      29.391  17.237   7.190  0.00  0.00    -0.353 OA
BRANCH   8  12
HETATM   12  O   UNK N   1      32.081  15.518   5.528  0.00  0.00    -0.286 OA
BRANCH  12  13
HETATM   13  P   UNK N   1      33.130  15.838   4.158  0.00  0.00     0.391 P 
HETATM   14  O   UNK N   1      33.298  17.371   3.988  0.00  0.00    -0.632 OA
BRANCH  13  15
HETATM   15  O   UNK N   1      34.708  15.140   4.357  0.00  0.00    -0.307 OA
HETATM   16  H   UNK N   1      35.195  14.316   4.200  0.00  0.00     0.222 HD
ENDBRANCH  13  15
BRANCH  13  17
HETATM   17  O   UNK N   1      32.408  15.265   2.688  0.00  0.00    -0.307 OA
HETATM   18  H   UNK N   1      32.848  14.582   2.159  0.00  0.00     0.222 HD
ENDBRANCH  13  17
ENDBRANCH  12  13
ENDBRANCH   8  12
BRANCH   9  19
HETATM   19  O   UNK N   1      30.215  17.024   3.714  0.00  0.00    -0.388 OA
HETATM   20  H   UNK N   1      30.637  17.740   3.213  0.00  0.00     0.210 HD
ENDBRANCH   9  19
BRANCH  10  21
HETATM   21  N   UNK N   1      27.794  17.764   5.547  0.00  0.00    -0.297 N 
HETATM   22  C   UNK N   1      26.847  16.942   6.072  0.00  0.00     0.188 A 
HETATM   23  N   UNK N   1      25.598  17.274   5.646  0.00  0.00    -0.346 N 
HETATM   24  C   UNK N   1      25.793  18.336   4.849  0.00  0.00     0.122 A 
ATOM     25  HN  UNK N   1      24.716  16.820   5.881  1.00  0.00     0.167 HD
HETATM   26  C   UNK N   1      24.868  19.105   4.163  0.00  0.00     0.131 A 
HETATM   27  C   UNK N   1      27.108  18.631   4.782  0.00  0.00     0.142 A 
HETATM   28  N   UNK N   1      25.332  20.160   3.431  0.00  0.00    -0.337 N 
HETATM   29  C   UNK N   1      26.675  20.447   3.377  0.00  0.00     0.183 A 
ATOM     30  HN  UNK N   1      24.672  20.746   2.918  1.00  0.00     0.168 HD
HETATM   31  N   UNK N   1      27.579  19.675   4.058  0.00  0.00    -0.336 N 
ATOM     32  HN  UNK N   1      28.577  19.881   4.023  1.00  0.00     0.168 HD
BRANCH  26  33
HETATM   33  N   UNK N   1      23.489  18.821   4.226  0.00  0.00    -0.383 N 
HETATM   34  H   UNK N   1      22.833  19.504   3.958  0.00  0.00     0.157 HD
HETATM   35  H   UNK N   1      23.182  17.938   4.538  0.00  0.00     0.157 HD
ENDBRANCH  26  33
ENDBRANCH  10  21
ENDBRANCH   6   7
ENDBRANCH   5   6
ENDBRANCH   2   5
BRANCH   2  36
HETATM   36  O   UNK N   1      34.936  16.665   7.090  0.00  0.00    -0.195 OA
BRANCH  36  37
HETATM   37  P   UNK N   1      34.950  15.122   7.901  0.00  0.00     0.401 P 
HETATM   38  O   UNK N   1      35.565  14.111   6.896  0.00  0.00    -0.631 OA
BRANCH  37  39
HETATM   39  O   UNK N   1      33.345  14.541   8.210  0.00  0.00    -0.307 OA
HETATM   40  H   UNK N   1      33.200  13.607   8.429  0.00  0.00     0.222 HD
ENDBRANCH  37  39
BRANCH  37  41
HETATM   41  O   UNK N   1      35.949  15.062   9.335  0.00  0.00    -0.296 OA
BRANCH  41  42
HETATM   42  C   UNK N   1      36.438  13.749   9.479  0.00  0.00     0.192 C 
BRANCH  42  43
HETATM   43  C   UNK N   1      35.873  13.021  10.707  0.00  0.00     0.008 C 
HETATM   44  C   UNK N   1      34.844  12.012  10.219  0.00  0.00     0.020 C 
HETATM   45  C   UNK N   1      36.973  12.233  11.423  0.00  0.00     0.020 C 
BRANCH  43  46
HETATM   46  C   UNK N   1      35.214  14.060  11.656  0.00  0.00     0.202 C 
BRANCH  46  47
HETATM   47  C   UNK N   1      35.241  13.621  13.094  0.00  0.00     0.141 C 
BRANCH  47  48
HETATM   48  N   UNK N   1      36.028  14.191  13.944  0.00  0.00    -0.372 N 
ATOM     49  HN  UNK N   1      36.168  15.199  13.880  1.00  0.00     0.161 HD
BRANCH  48  50
HETATM   50  C   UNK N   1      36.721  13.460  14.985  0.00  0.00     0.129 C 
BRANCH  50  51
HETATM   51  C   UNK N   1      36.328  13.908  16.386  0.00  0.00     0.103 C 
BRANCH  51  52
HETATM   52  C   UNK N   1      35.117  13.149  16.828  0.00  0.00     0.112 C 
BRANCH  52  53
HETATM   53  N   UNK N   1      35.211  12.283  17.777  0.00  0.00    -0.374 N 
ATOM     54  HN  UNK N   1      34.944  12.553  18.725  1.00  0.00     0.161 HD
BRANCH  53  55
HETATM   55  C   UNK N   1      35.688  10.942  17.534  0.00  0.00     0.132 C 
BRANCH  55  56
HETATM   56  C   UNK N   1      35.045   9.970  18.513  0.00  0.00     0.105 C 
BRANCH  56  57
HETATM   57  S   UNK N   1      34.994  10.708  20.169  0.00  0.00    -0.099 SA
BRANCH  57  58
HETATM   58  S   UNK N   1      37.025  10.196  20.556  0.00  0.00    -0.111 SA
HETATM   59  H   UNK N   1      37.584   9.117  19.946  0.00  0.00     0.114 HD
ENDBRANCH  57  58
ENDBRANCH  56  57
ENDBRANCH  55  56
ENDBRANCH  53  55
ENDBRANCH  52  53
BRANCH  52  60
HETATM   60  O   UNK N   1      33.928  13.382  16.234  0.00  0.00    -0.350 OA
HETATM   61  H   UNK N   1      33.612  14.232  16.000  0.00  0.00     0.219 HD
ENDBRANCH  52  60
ENDBRANCH  51  52
ENDBRANCH  50  51
ENDBRANCH  48  50
ENDBRANCH  47  48
BRANCH  47  62
HETATM   62  O   UNK N   1      34.376  12.667  13.488  0.00  0.00    -0.348 OA
HETATM   63  H   UNK N   1      34.047  11.978  12.945  0.00  0.00     0.219 HD
ENDBRANCH  47  62
ENDBRANCH  46  47
BRANCH  46  64
HETATM   64  O   UNK N   1      33.904  14.343  11.256  0.00  0.00    -0.387 OA
HETATM   65  H   UNK N   1      33.473  14.151  10.409  0.00  0.00     0.210 HD
ENDBRANCH  46  64
ENDBRANCH  43  46
ENDBRANCH  42  43
ENDBRANCH  41  42
ENDBRANCH  37  41
ENDBRANCH  36  37
ENDBRANCH   2  36
TORSDOF 31
ENDMDL
MODEL 2
REMARK VINA RESULT:      -6.3      2.450      3.038
REMARK  31 active torsions:
REMARK  status: ('A' for Active; 'I' for Inactive)
REMARK    1  A    between atoms: C_4  and  C_3 
REMARK    2  A    between atoms: C_12  and  C_3 
REMARK    3  A    between atoms: N_25  and  C_4 
REMARK    4  A    between atoms: C_6  and  C_5 
REMARK    5  A    between atoms: N_23  and  C_5 
REMARK    6  A    between atoms: S_54  and  C_6 
REMARK    7  A    between atoms: C_11  and  C_7 
REMARK    8  A    between atoms: O_45  and  C_7 
REMARK    9  A    between atoms: C_21  and  C_8 
REMARK   10  A    between atoms: O_46  and  C_8 
REMARK   11  A    between atoms: N_23  and  C_12 
REMARK   12  A    between atoms: O_34  and  C_12 
REMARK   13  A    between atoms: C_14  and  O_35 
REMARK   14  A    between atoms: C_15  and  O_48 
REMARK   15  A    between atoms: C_19  and  C_16 
REMARK   16  A    between atoms: C_21  and  C_16 
REMARK   17  A    between atoms: C_16  and  O_36 
REMARK   18  A    between atoms: N_22  and  C_17 
REMARK   19  A    between atoms: N_25  and  C_19 
REMARK   20  A    between atoms: O_37  and  C_19 
REMARK   21  A    between atoms: C_20  and  N_33 
REMARK   22  A    between atoms: P_50  and  O_38 
REMARK   23  A    between atoms: P_50  and  O_39 
REMARK   24  A    between atoms: P_51  and  O_41 
REMARK   25  A    between atoms: P_52  and  O_43 
REMARK   26  A    between atoms: P_51  and  O_45 
REMARK   27  A    between atoms: P_52  and  O_46 
REMARK   28  A    between atoms: P_50  and  O_48 
REMARK   29  A    between atoms: P_51  and  O_49 
REMARK   30  A    between atoms: P_52  and  O_49 
REMARK   31  A    between atoms: S_54  and  S_53 
ROOT
HETATM    1  O   UNK N   1      30.063  17.822   7.904  0.00  0.00    -0.631 OA
HETATM    2  P   UNK N   1      31.521  17.305   8.025  0.00  0.00     0.401 P 
ENDROOT
BRANCH   2   3
HETATM    3  O   UNK N   1      31.545  16.322   9.455  0.00  0.00    -0.307 OA
HETATM    4  H   UNK N   1      31.046  15.640   9.930  0.00  0.00     0.222 HD
ENDBRANCH   2   3
BRANCH   2   5
HETATM    5  O   UNK N   1      31.930  16.293   6.665  0.00  0.00    -0.294 OA
BRANCH   5   6
HETATM    6  C   UNK N   1      31.120  15.146   6.690  0.00  0.00     0.215 C 
BRANCH   6   7
HETATM    7  C   UNK N   1      30.316  15.032   5.393  0.00  0.00     0.180 C 
HETATM    8  C   UNK N   1      31.132  15.492   4.170  0.00  0.00     0.197 C 
HETATM    9  C   UNK N   1      30.008  16.066   3.345  0.00  0.00     0.199 C 
HETATM   10  C   UNK N   1      29.256  16.786   4.453  0.00  0.00     0.262 C 
HETATM   11  O   UNK N   1      29.151  15.835   5.483  0.00  0.00    -0.353 OA
BRANCH   8  12
HETATM   12  O   UNK N   1      31.788  14.460   3.458  0.00  0.00    -0.286 OA
BRANCH  12  13
HETATM   13  P   UNK N   1      33.457  14.885   3.121  0.00  0.00     0.391 P 
HETATM   14  O   UNK N   1      33.499  16.241   2.367  0.00  0.00    -0.632 OA
BRANCH  13  15
HETATM   15  O   UNK N   1      34.405  15.042   4.568  0.00  0.00    -0.307 OA
HETATM   16  H   UNK N   1      35.325  15.126   4.863  0.00  0.00     0.222 HD
ENDBRANCH  13  15
BRANCH  13  17
HETATM   17  O   UNK N   1      34.183  13.720   2.059  0.00  0.00    -0.307 OA
HETATM   18  H   UNK N   1      33.855  12.808   2.035  0.00  0.00     0.222 HD
ENDBRANCH  13  17
ENDBRANCH  12  13
ENDBRANCH   8  12
BRANCH   9  19
HETATM   19  O   UNK N   1      30.471  16.920   2.340  0.00  0.00    -0.388 OA
HETATM   20  H   UNK N   1      30.143  17.360   1.540  0.00  0.00     0.210 HD
ENDBRANCH   9  19
BRANCH  10  21
HETATM   21  N   UNK N   1      27.925  17.301   4.113  0.00  0.00    -0.297 N 
HETATM   22  C   UNK N   1      26.989  16.572   3.451  0.00  0.00     0.188 A 
HETATM   23  N   UNK N   1      25.833  17.270   3.281  0.00  0.00    -0.346 N 
HETATM   24  C   UNK N   1      26.073  18.453   3.868  0.00  0.00     0.122 A 
ATOM     25  HN  UNK N   1      24.980  16.964   2.815  1.00  0.00     0.167 HD
HETATM   26  C   UNK N   1      25.239  19.547   4.021  0.00  0.00     0.131 A 
HETATM   27  C   UNK N   1      27.328  18.479   4.364  0.00  0.00     0.142 A 
HETATM   28  N   UNK N   1      25.726  20.634   4.688  0.00  0.00    -0.337 N 
HETATM   29  C   UNK N   1      27.006  20.641   5.188  0.00  0.00     0.183 A 
ATOM     30  HN  UNK N   1      25.131  21.453   4.817  1.00  0.00     0.168 HD
HETATM   31  N   UNK N   1      27.822  19.553   5.026  0.00  0.00    -0.336 N 
ATOM     32  HN  UNK N   1      28.773  19.550   5.394  1.00  0.00     0.168 HD
BRANCH  26  33
HETATM   33  N   UNK N   1      23.922  19.539   3.519  0.00  0.00    -0.383 N 
HETATM   34  H   UNK N   1      23.327  18.778   3.709  0.00  0.00     0.157 HD
HETATM   35  H   UNK N   1      23.596  20.295   2.978  0.00  0.00     0.157 HD
ENDBRANCH  26  33
ENDBRANCH  10  21
ENDBRANCH   6   7
ENDBRANCH   5   6
ENDBRANCH   2   5
BRANCH   2  36
HETATM   36  O   UNK N   1      32.600  18.654   8.276  0.00  0.00    -0.195 OA
BRANCH  36  37
HETATM   37  P   UNK N   1      34.232  18.056   8.147  0.00  0.00     0.401 P 
HETATM   38  O   UNK N   1      35.159  19.282   8.365  0.00  0.00    -0.631 OA
BRANCH  37  39
HETATM   39  O   UNK N   1      34.587  17.494   6.544  0.00  0.00    -0.307 OA
HETATM   40  H   UNK N   1      34.097  16.743   6.173  0.00  0.00     0.222 HD
ENDBRANCH  37  39
BRANCH  37  41
HETATM   41  O   UNK N   1      34.675  16.879   9.361  0.00  0.00    -0.296 OA
BRANCH  41  42
HETATM   42  C   UNK N   1      34.999  15.673   8.710  0.00  0.00     0.192 C 
BRANCH  42  43
HETATM   43  C   UNK N   1      34.979  14.453   9.643  0.00  0.00     0.008 C 
HETATM   44  C   UNK N   1      33.961  13.464   9.096  0.00  0.00     0.020 C 
HETATM   45  C   UNK N   1      36.337  13.748   9.642  0.00  0.00     0.020 C 
BRANCH  43  46
HETATM   46  C   UNK N   1      34.583  14.913  11.073  0.00  0.00     0.202 C 
BRANCH  46  47
HETATM   47  C   UNK N   1      35.271  14.112  12.145  0.00  0.00     0.141 C 
BRANCH  47  48
HETATM   48  N   UNK N   1      34.843  12.938  12.468  0.00  0.00    -0.372 N 
ATOM     49  HN  UNK N   1      34.283  12.419  11.792  1.00  0.00     0.161 HD
BRANCH  48  50
HETATM   50  C   UNK N   1      35.126  12.325  13.749  0.00  0.00     0.129 C 
BRANCH  50  51
HETATM   51  C   UNK N   1      35.906  11.023  13.625  0.00  0.00     0.103 C 
BRANCH  51  52
HETATM   52  C   UNK N   1      37.372  11.314  13.687  0.00  0.00     0.112 C 
BRANCH  52  53
HETATM   53  N   UNK N   1      38.112  10.705  14.548  0.00  0.00    -0.374 N 
ATOM     54  HN  UNK N   1      39.000  11.124  14.826  1.00  0.00     0.161 HD
BRANCH  53  55
HETATM   55  C   UNK N   1      37.718   9.441  15.127  0.00  0.00     0.132 C 
BRANCH  55  56
HETATM   56  C   UNK N   1      38.598   8.321  14.590  0.00  0.00     0.105 C 
BRANCH  56  57
HETATM   57  S   UNK N   1      39.557   7.588  15.944  0.00  0.00    -0.099 SA
BRANCH  57  58
HETATM   58  S   UNK N   1      41.372   8.454  15.245  0.00  0.00    -0.111 SA
HETATM   59  H   UNK N   1      42.238   7.716  14.501  0.00  0.00     0.114 HD
ENDBRANCH  57  58
ENDBRANCH  56  57
ENDBRANCH  55  56
ENDBRANCH  53  55
ENDBRANCH  52  53
BRANCH  52  60
HETATM   60  O   UNK N   1      37.913  12.211  12.837  0.00  0.00    -0.350 OA
HETATM   61  H   UNK N   1      38.761  12.594  12.943  0.00  0.00     0.219 HD
ENDBRANCH  52  60
ENDBRANCH  51  52
ENDBRANCH  50  51
ENDBRANCH  48  50
ENDBRANCH  47  48
BRANCH  47  62
HETATM   62  O   UNK N   1      36.382  14.622  12.710  0.00  0.00    -0.348 OA
HETATM   63  H   UNK N   1      36.657  15.516  12.652  0.00  0.00     0.219 HD
ENDBRANCH  47  62
ENDBRANCH  46  47
BRANCH  46  64
HETATM   64  O   UNK N   1      33.195  14.870  11.247  0.00  0.00    -0.387 OA
HETATM   65  H   UNK N   1      32.498  14.916  10.574  0.00  0.00     0.210 HD
ENDBRANCH  46  64
ENDBRANCH  43  46
ENDBRANCH  42  43
ENDBRANCH  41  42
ENDBRANCH  37  41
ENDBRANCH  36  37
ENDBRANCH   2  36
TORSDOF 31
ENDMDL
MODEL 3
REMARK VINA RESULT:      -6.3      2.781      4.801
REMARK  31 active torsions:
REMARK  status: ('A' for Active; 'I' for Inactive)
REMARK    1  A    between atoms: C_4  and  C_3 
REMARK    2  A    between atoms: C_12  and  C_3 
REMARK    3  A    between atoms: N_25  and  C_4 
REMARK    4  A    between atoms: C_6  and  C_5 
REMARK    5  A    between atoms: N_23  and  C_5 
REMARK    6  A    between atoms: S_54  and  C_6 
REMARK    7  A    between atoms: C_11  and  C_7 
REMARK    8  A    between atoms: O_45  and  C_7 
REMARK    9  A    between atoms: C_21  and  C_8 
REMARK   10  A    between atoms: O_46  and  C_8 
REMARK   11  A    between atoms: N_23  and  C_12 
REMARK   12  A    between atoms: O_34  and  C_12 
REMARK   13  A    between atoms: C_14  and  O_35 
REMARK   14  A    between atoms: C_15  and  O_48 
REMARK   15  A    between atoms: C_19  and  C_16 
REMARK   16  A    between atoms: C_21  and  C_16 
REMARK   17  A    between atoms: C_16  and  O_36 
REMARK   18  A    between atoms: N_22  and  C_17 
REMARK   19  A    between atoms: N_25  and  C_19 
REMARK   20  A    between atoms: O_37  and  C_19 
REMARK   21  A    between atoms: C_20  and  N_33 
REMARK   22  A    between atoms: P_50  and  O_38 
REMARK   23  A    between atoms: P_50  and  O_39 
REMARK   24  A    between atoms: P_51  and  O_41 
REMARK   25  A    between atoms: P_52  and  O_43 
REMARK   26  A    between atoms: P_51  and  O_45 
REMARK   27  A    between atoms: P_52  and  O_46 
REMARK   28  A    between atoms: P_50  and  O_48 
REMARK   29  A    between atoms: P_51  and  O_49 
REMARK   30  A    between atoms: P_52  and  O_49 
REMARK   31  A    between atoms: S_54  and  S_53 
ROOT
HETATM    1  O   UNK N   1      31.872  10.094   9.146  0.00  0.00    -0.631 OA
HETATM    2  P   UNK N   1      33.388  10.403   9.015  0.00  0.00     0.401 P 
ENDROOT
BRANCH   2   3
HETATM    3  O   UNK N   1      34.044   9.103   8.071  0.00  0.00    -0.307 OA
HETATM    4  H   UNK N   1      33.809   8.440   7.403  0.00  0.00     0.222 HD
ENDBRANCH   2   3
BRANCH   2   5
HETATM    5  O   UNK N   1      33.639  11.890   8.139  0.00  0.00    -0.294 OA
BRANCH   5   6
HETATM    6  C   UNK N   1      32.791  12.878   8.665  0.00  0.00     0.215 C 
BRANCH   6   7
HETATM    7  C   UNK N   1      32.963  14.192   7.900  0.00  0.00     0.180 C 
HETATM    8  C   UNK N   1      33.493  15.318   8.808  0.00  0.00     0.197 C 
HETATM    9  C   UNK N   1      32.792  16.486   8.162  0.00  0.00     0.199 C 
HETATM   10  C   UNK N   1      31.429  15.845   7.949  0.00  0.00     0.262 C 
HETATM   11  O   UNK N   1      31.714  14.598   7.365  0.00  0.00    -0.353 OA
BRANCH   8  12
HETATM   12  O   UNK N   1      34.896  15.508   8.778  0.00  0.00    -0.286 OA
BRANCH  12  13
HETATM   13  P   UNK N   1      35.513  15.920  10.368  0.00  0.00     0.391 P 
HETATM   14  O   UNK N   1      35.539  17.464  10.525  0.00  0.00    -0.632 OA
BRANCH  13  15
HETATM   15  O   UNK N   1      34.537  15.265  11.647  0.00  0.00    -0.307 OA
HETATM   16  H   UNK N   1      34.445  14.470  12.196  0.00  0.00     0.222 HD
ENDBRANCH  13  15
BRANCH  13  17
HETATM   17  O   UNK N   1      37.156  15.389  10.544  0.00  0.00    -0.307 OA
HETATM   18  H   UNK N   1      37.744  15.352   9.773  0.00  0.00     0.222 HD
ENDBRANCH  13  17
ENDBRANCH  12  13
ENDBRANCH   8  12
BRANCH   9  19
HETATM   19  O   UNK N   1      32.756  17.609   8.993  0.00  0.00    -0.388 OA
HETATM   20  H   UNK N   1      32.167  18.351   9.201  0.00  0.00     0.210 HD
ENDBRANCH   9  19
BRANCH  10  21
HETATM   21  N   UNK N   1      30.482  16.584   7.108  0.00  0.00    -0.297 N 
HETATM   22  C   UNK N   1      29.555  17.444   7.607  0.00  0.00     0.188 A 
HETATM   23  N   UNK N   1      28.817  18.018   6.618  0.00  0.00    -0.346 N 
HETATM   24  C   UNK N   1      29.320  17.500   5.487  0.00  0.00     0.122 A 
ATOM     25  HN  UNK N   1      28.056  18.690   6.715  1.00  0.00     0.167 HD
HETATM   26  C   UNK N   1      28.970  17.748   4.171  0.00  0.00     0.131 A 
HETATM   27  C   UNK N   1      30.316  16.635   5.775  0.00  0.00     0.142 A 
HETATM   28  N   UNK N   1      29.665  17.099   3.191  0.00  0.00    -0.337 N 
HETATM   29  C   UNK N   1      30.677  16.223   3.504  0.00  0.00     0.183 A 
ATOM     30  HN  UNK N   1      29.429  17.266   2.212  1.00  0.00     0.168 HD
HETATM   31  N   UNK N   1      31.010  15.985   4.812  0.00  0.00    -0.336 N 
ATOM     32  HN  UNK N   1      31.760  15.337   5.052  1.00  0.00     0.168 HD
BRANCH  26  33
HETATM   33  N   UNK N   1      27.940  18.654   3.846  0.00  0.00    -0.383 N 
HETATM   34  H   UNK N   1      27.111  18.668   4.375  0.00  0.00     0.157 HD
HETATM   35  H   UNK N   1      28.051  19.274   3.088  0.00  0.00     0.157 HD
ENDBRANCH  26  33
ENDBRANCH  10  21
ENDBRANCH   6   7
ENDBRANCH   5   6
ENDBRANCH   2   5
BRANCH   2  36
HETATM   36  O   UNK N   1      34.132  10.356  10.593  0.00  0.00    -0.195 OA
BRANCH  36  37
HETATM   37  P   UNK N   1      35.763  10.947  10.426  0.00  0.00     0.401 P 
HETATM   38  O   UNK N   1      35.697  12.477  10.680  0.00  0.00    -0.631 OA
BRANCH  37  39
HETATM   39  O   UNK N   1      36.347  10.778   8.801  0.00  0.00    -0.307 OA
HETATM   40  H   UNK N   1      36.323  11.535   8.195  0.00  0.00     0.222 HD
ENDBRANCH  37  39
BRANCH  37  41
HETATM   41  O   UNK N   1      36.894  10.301  11.593  0.00  0.00    -0.296 OA
BRANCH  41  42
HETATM   42  C   UNK N   1      37.552  11.380  12.215  0.00  0.00     0.192 C 
BRANCH  42  43
HETATM   43  C   UNK N   1      37.243  11.497  13.715  0.00  0.00     0.008 C 
HETATM   44  C   UNK N   1      36.191  10.453  14.059  0.00  0.00     0.020 C 
HETATM   45  C   UNK N   1      38.485  11.175  14.550  0.00  0.00     0.020 C 
BRANCH  43  46
HETATM   46  C   UNK N   1      36.716  12.927  14.015  0.00  0.00     0.202 C 
BRANCH  46  47
HETATM   47  C   UNK N   1      35.243  12.943  14.322  0.00  0.00     0.141 C 
BRANCH  47  48
HETATM   48  N   UNK N   1      34.823  13.078  15.536  0.00  0.00    -0.372 N 
ATOM     49  HN  UNK N   1      33.818  13.063  15.708  1.00  0.00     0.161 HD
BRANCH  48  50
HETATM   50  C   UNK N   1      35.718  13.249  16.661  0.00  0.00     0.129 C 
BRANCH  50  51
HETATM   51  C   UNK N   1      34.982  13.492  17.972  0.00  0.00     0.103 C 
BRANCH  51  52
HETATM   52  C   UNK N   1      35.364  12.434  18.958  0.00  0.00     0.112 C 
BRANCH  52  53
HETATM   53  N   UNK N   1      35.626  11.240  18.552  0.00  0.00    -0.374 N 
ATOM     54  HN  UNK N   1      35.939  11.100  17.590  1.00  0.00     0.161 HD
BRANCH  53  55
HETATM   55  C   UNK N   1      35.486  10.095  19.421  0.00  0.00     0.132 C 
BRANCH  55  56
HETATM   56  C   UNK N   1      34.177   9.375  19.134  0.00  0.00     0.105 C 
BRANCH  56  57
HETATM   57  S   UNK N   1      33.260   9.125  20.679  0.00  0.00    -0.099 SA
BRANCH  57  58
HETATM   58  S   UNK N   1      32.329   7.356  19.943  0.00  0.00    -0.111 SA
HETATM   59  H   UNK N   1      32.070   6.320  20.785  0.00  0.00     0.114 HD
ENDBRANCH  57  58
ENDBRANCH  56  57
ENDBRANCH  55  56
ENDBRANCH  53  55
ENDBRANCH  52  53
BRANCH  52  60
HETATM   60  O   UNK N   1      35.437  12.738  20.271  0.00  0.00    -0.350 OA
HETATM   61  H   UNK N   1      35.217  13.574  20.632  0.00  0.00     0.219 HD
ENDBRANCH  52  60
ENDBRANCH  51  52
ENDBRANCH  50  51
ENDBRANCH  48  50
ENDBRANCH  47  48
BRANCH  47  62
HETATM   62  O   UNK N   1      34.375  12.881  13.295  0.00  0.00    -0.348 OA
HETATM   63  H   UNK N   1      33.522  12.493  13.330  0.00  0.00     0.219 HD
ENDBRANCH  47  62
ENDBRANCH  46  47
BRANCH  46  64
HETATM   64  O   UNK N   1      37.003  13.798  12.959  0.00  0.00    -0.387 OA
HETATM   65  H   UNK N   1      37.858  14.176  12.699  0.00  0.00     0.210 HD
ENDBRANCH  46  64
ENDBRANCH  43  46
ENDBRANCH  42  43
ENDBRANCH  41  42
ENDBRANCH  37  41
ENDBRANCH  36  37
ENDBRANCH   2  36
TORSDOF 31
ENDMDL
MODEL 4
REMARK VINA RESULT:      -6.3      7.557     11.682
REMARK  31 active torsions:
REMARK  status: ('A' for Active; 'I' for Inactive)
REMARK    1  A    between atoms: C_4  and  C_3 
REMARK    2  A    between atoms: C_12  and  C_3 
REMARK    3  A    between atoms: N_25  and  C_4 
REMARK    4  A    between atoms: C_6  and  C_5 
REMARK    5  A    between atoms: N_23  and  C_5 
REMARK    6  A    between atoms: S_54  and  C_6 
REMARK    7  A    between atoms: C_11  and  C_7 
REMARK    8  A    between atoms: O_45  and  C_7 
REMARK    9  A    between atoms: C_21  and  C_8 
REMARK   10  A    between atoms: O_46  and  C_8 
REMARK   11  A    between atoms: N_23  and  C_12 
REMARK   12  A    between atoms: O_34  and  C_12 
REMARK   13  A    between atoms: C_14  and  O_35 
REMARK   14  A    between atoms: C_15  and  O_48 
REMARK   15  A    between atoms: C_19  and  C_16 
REMARK   16  A    between atoms: C_21  and  C_16 
REMARK   17  A    between atoms: C_16  and  O_36 
REMARK   18  A    between atoms: N_22  and  C_17 
REMARK   19  A    between atoms: N_25  and  C_19 
REMARK   20  A    between atoms: O_37  and  C_19 
REMARK   21  A    between atoms: C_20  and  N_33 
REMARK   22  A    between atoms: P_50  and  O_38 
REMARK   23  A    between atoms: P_50  and  O_39 
REMARK   24  A    between atoms: P_51  and  O_41 
REMARK   25  A    between atoms: P_52  and  O_43 
REMARK   26  A    between atoms: P_51  and  O_45 
REMARK   27  A    between atoms: P_52  and  O_46 
REMARK   28  A    between atoms: P_50  and  O_48 
REMARK   29  A    between atoms: P_51  and  O_49 
REMARK   30  A    between atoms: P_52  and  O_49 
REMARK   31  A    between atoms: S_54  and  S_53 
ROOT
HETATM    1  O   UNK N   1      21.422  12.856   3.220  0.00  0.00    -0.631 OA
HETATM    2  P   UNK N   1      21.562  14.248   2.548  0.00  0.00     0.401 P 
ENDROOT
BRANCH   2   3
HETATM    3  O   UNK N   1      21.252  13.981   0.862  0.00  0.00    -0.307 OA
HETATM    4  H   UNK N   1      21.216  14.432   0.004  0.00  0.00     0.222 HD
ENDBRANCH   2   3
BRANCH   2   5
HETATM    5  O   UNK N   1      20.352  15.348   3.154  0.00  0.00    -0.294 OA
BRANCH   5   6
HETATM    6  C   UNK N   1      19.782  14.803   4.316  0.00  0.00     0.215 C 
BRANCH   6   7
HETATM    7  C   UNK N   1      20.431  15.407   5.563  0.00  0.00     0.180 C 
HETATM    8  C   UNK N   1      21.379  16.569   5.211  0.00  0.00     0.197 C 
HETATM    9  C   UNK N   1      22.400  16.375   6.304  0.00  0.00     0.199 C 
HETATM   10  C   UNK N   1      22.508  14.859   6.248  0.00  0.00     0.262 C 
HETATM   11  O   UNK N   1      21.176  14.410   6.242  0.00  0.00    -0.353 OA
BRANCH   8  12
HETATM   12  O   UNK N   1      20.809  17.861   5.294  0.00  0.00    -0.286 OA
BRANCH  12  13
HETATM   13  P   UNK N   1      21.267  18.846   3.916  0.00  0.00     0.391 P 
HETATM   14  O   UNK N   1      22.796  19.109   3.958  0.00  0.00    -0.632 OA
BRANCH  13  15
HETATM   15  O   UNK N   1      20.893  18.080   2.402  0.00  0.00    -0.307 OA
HETATM   16  H   UNK N   1      21.325  17.686   1.628  0.00  0.00     0.222 HD
ENDBRANCH  13  15
BRANCH  13  17
HETATM   17  O   UNK N   1      20.508  20.404   3.997  0.00  0.00    -0.307 OA
HETATM   18  H   UNK N   1      20.603  20.955   4.789  0.00  0.00     0.222 HD
ENDBRANCH  13  17
ENDBRANCH  12  13
ENDBRANCH   8  12
BRANCH   9  19
HETATM   19  O   UNK N   1      23.603  17.030   6.029  0.00  0.00    -0.388 OA
HETATM   20  H   UNK N   1      24.538  16.988   6.283  0.00  0.00     0.210 HD
ENDBRANCH   9  19
BRANCH  10  21
HETATM   21  N   UNK N   1      23.246  14.215   7.339  0.00  0.00    -0.297 N 
HETATM   22  C   UNK N   1      24.600  14.094   7.356  0.00  0.00     0.188 A 
HETATM   23  N   UNK N   1      25.038  13.480   8.489  0.00  0.00    -0.346 N 
HETATM   24  C   UNK N   1      23.916  13.233   9.185  0.00  0.00     0.122 A 
ATOM     25  HN  UNK N   1      25.998  13.260   8.751  1.00  0.00     0.167 HD
HETATM   26  C   UNK N   1      23.762  12.648  10.429  0.00  0.00     0.131 A 
HETATM   27  C   UNK N   1      22.839  13.667   8.497  0.00  0.00     0.142 A 
HETATM   28  N   UNK N   1      22.497  12.534  10.929  0.00  0.00    -0.337 N 
HETATM   29  C   UNK N   1      21.412  12.983  10.216  0.00  0.00     0.183 A 
ATOM     30  HN  UNK N   1      22.355  12.109  11.847  1.00  0.00     0.168 HD
HETATM   31  N   UNK N   1      21.580  13.557   8.983  0.00  0.00    -0.336 N 
ATOM     32  HN  UNK N   1      20.780  13.893   8.447  1.00  0.00     0.168 HD
BRANCH  26  33
HETATM   33  N   UNK N   1      24.874  12.196  11.169  0.00  0.00    -0.383 N 
HETATM   34  H   UNK N   1      25.731  12.677  11.114  0.00  0.00     0.157 HD
HETATM   35  H   UNK N   1      24.793  11.398  11.742  0.00  0.00     0.157 HD
ENDBRANCH  26  33
ENDBRANCH  10  21
ENDBRANCH   6   7
ENDBRANCH   5   6
ENDBRANCH   2   5
BRANCH   2  36
HETATM   36  O   UNK N   1      23.205  14.814   2.715  0.00  0.00    -0.195 OA
BRANCH  36  37
HETATM   37  P   UNK N   1      24.206  13.845   1.667  0.00  0.00     0.401 P 
HETATM   38  O   UNK N   1      23.989  14.395   0.232  0.00  0.00    -0.631 OA
BRANCH  37  39
HETATM   39  O   UNK N   1      23.674  12.195   1.612  0.00  0.00    -0.307 OA
HETATM   40  H   UNK N   1      23.411  11.742   2.428  0.00  0.00     0.222 HD
ENDBRANCH  37  39
BRANCH  37  41
HETATM   41  O   UNK N   1      25.921  13.964   1.987  0.00  0.00    -0.296 OA
BRANCH  41  42
HETATM   42  C   UNK N   1      26.317  15.301   1.785  0.00  0.00     0.192 C 
BRANCH  42  43
HETATM   43  C   UNK N   1      26.807  15.990   3.067  0.00  0.00     0.008 C 
HETATM   44  C   UNK N   1      26.495  15.072   4.240  0.00  0.00     0.020 C 
HETATM   45  C   UNK N   1      28.326  16.177   3.034  0.00  0.00     0.020 C 
BRANCH  43  46
HETATM   46  C   UNK N   1      26.074  17.350   3.225  0.00  0.00     0.202 C 
BRANCH  46  47
HETATM   47  C   UNK N   1      26.752  18.256   4.216  0.00  0.00     0.141 C 
BRANCH  47  48
HETATM   48  N   UNK N   1      26.536  18.129   5.483  0.00  0.00    -0.372 N 
ATOM     49  HN  UNK N   1      25.813  17.480   5.791  1.00  0.00     0.161 HD
BRANCH  48  50
HETATM   50  C   UNK N   1      27.276  18.869   6.484  0.00  0.00     0.129 C 
BRANCH  50  51
HETATM   51  C   UNK N   1      28.523  18.137   6.961  0.00  0.00     0.103 C 
BRANCH  51  52
HETATM   52  C   UNK N   1      28.481  18.008   8.451  0.00  0.00     0.112 C 
BRANCH  52  53
HETATM   53  N   UNK N   1      29.463  17.454   9.076  0.00  0.00    -0.374 N 
ATOM     54  HN  UNK N   1      29.270  16.696   9.732  1.00  0.00     0.161 HD
BRANCH  53  55
HETATM   55  C   UNK N   1      30.828  17.881   8.873  0.00  0.00     0.132 C 
BRANCH  55  56
HETATM   56  C   UNK N   1      31.669  16.722   8.360  0.00  0.00     0.105 C 
BRANCH  56  57
HETATM   57  S   UNK N   1      32.445  17.174   6.784  0.00  0.00    -0.099 SA
BRANCH  57  58
HETATM   58  S   UNK N   1      34.389  16.673   7.495  0.00  0.00    -0.111 SA
HETATM   59  H   UNK N   1      34.536  16.053   8.696  0.00  0.00     0.114 HD
ENDBRANCH  57  58
ENDBRANCH  56  57
ENDBRANCH  55  56
ENDBRANCH  53  55
ENDBRANCH  52  53
BRANCH  52  60
HETATM   60  O   UNK N   1      27.418  18.480   9.134  0.00  0.00    -0.350 OA
HETATM   61  H   UNK N   1      27.290  18.366  10.055  0.00  0.00     0.219 HD
ENDBRANCH  52  60
ENDBRANCH  51  52
ENDBRANCH  50  51
ENDBRANCH  48  50
ENDBRANCH  47  48
BRANCH  47  62
HETATM   62  O   UNK N   1      27.641  19.157   3.756  0.00  0.00    -0.348 OA
HETATM   63  H   UNK N   1      28.292  19.588   4.274  0.00  0.00     0.219 HD
ENDBRANCH  47  62
ENDBRANCH  46  47
BRANCH  46  64
HETATM   64  O   UNK N   1      24.734  17.159   3.577  0.00  0.00    -0.387 OA
HETATM   65  H   UNK N   1      24.365  16.863   4.424  0.00  0.00     0.210 HD
ENDBRANCH  46  64
ENDBRANCH  43  46
ENDBRANCH  42  43
ENDBRANCH  41  42
ENDBRANCH  37  41
ENDBRANCH  36  37
ENDBRANCH   2  36
TORSDOF 31
ENDMDL
MODEL 5
REMARK VINA RESULT:      -6.2      5.610      8.290
REMARK  31 active torsions:
REMARK  status: ('A' for Active; 'I' for Inactive)
REMARK    1  A    between atoms: C_4  and  C_3 
REMARK    2  A    between atoms: C_12  and  C_3 
REMARK    3  A    between atoms: N_25  and  C_4 
REMARK    4  A    between atoms: C_6  and  C_5 
REMARK    5  A    between atoms: N_23  and  C_5 
REMARK    6  A    between atoms: S_54  and  C_6 
REMARK    7  A    between atoms: C_11  and  C_7 
REMARK    8  A    between atoms: O_45  and  C_7 
REMARK    9  A    between atoms: C_21  and  C_8 
REMARK   10  A    between atoms: O_46  and  C_8 
REMARK   11  A    between atoms: N_23  and  C_12 
REMARK   12  A    between atoms: O_34  and  C_12 
REMARK   13  A    between atoms: C_14  and  O_35 
REMARK   14  A    between atoms: C_15  and  O_48 
REMARK   15  A    between atoms: C_19  and  C_16 
REMARK   16  A    between atoms: C_21  and  C_16 
REMARK   17  A    between atoms: C_16  and  O_36 
REMARK   18  A    between atoms: N_22  and  C_17 
REMARK   19  A    between atoms: N_25  and  C_19 
REMARK   20  A    between atoms: O_37  and  C_19 
REMARK   21  A    between atoms: C_20  and  N_33 
REMARK   22  A    between atoms: P_50  and  O_38 
REMARK   23  A    between atoms: P_50  and  O_39 
REMARK   24  A    between atoms: P_51  and  O_41 
REMARK   25  A    between atoms: P_52  and  O_43 
REMARK   26  A    between atoms: P_51  and  O_45 
REMARK   27  A    between atoms: P_52  and  O_46 
REMARK   28  A    between atoms: P_50  and  O_48 
REMARK   29  A    between atoms: P_51  and  O_49 
REMARK   30  A    between atoms: P_52  and  O_49 
REMARK   31  A    between atoms: S_54  and  S_53 
ROOT
HETATM    1  O   UNK N   1      27.818  14.880   5.032  0.00  0.00    -0.631 OA
HETATM    2  P   UNK N   1      26.785  15.902   5.578  0.00  0.00     0.401 P 
ENDROOT
BRANCH   2   3
HETATM    3  O   UNK N   1      27.085  17.373   4.706  0.00  0.00    -0.307 OA
HETATM    4  H   UNK N   1      27.238  18.323   4.827  0.00  0.00     0.222 HD
ENDBRANCH   2   3
BRANCH   2   5
HETATM    5  O   UNK N   1      25.158  15.383   5.221  0.00  0.00    -0.294 OA
BRANCH   5   6
HETATM    6  C   UNK N   1      24.428  15.318   6.419  0.00  0.00     0.215 C 
BRANCH   6   7
HETATM    7  C   UNK N   1      22.969  15.711   6.177  0.00  0.00     0.180 C 
HETATM    8  C   UNK N   1      21.992  14.756   6.887  0.00  0.00     0.197 C 
HETATM    9  C   UNK N   1      20.861  14.798   5.891  0.00  0.00     0.199 C 
HETATM   10  C   UNK N   1      21.680  14.723   4.612  0.00  0.00     0.262 C 
HETATM   11  O   UNK N   1      22.694  15.682   4.786  0.00  0.00    -0.353 OA
BRANCH   8  12
HETATM   12  O   UNK N   1      21.544  15.186   8.159  0.00  0.00    -0.286 OA
BRANCH  12  13
HETATM   13  P   UNK N   1      21.092  13.821   9.166  0.00  0.00     0.391 P 
HETATM   14  O   UNK N   1      22.131  13.659  10.307  0.00  0.00    -0.632 OA
BRANCH  13  15
HETATM   15  O   UNK N   1      19.525  14.023   9.888  0.00  0.00    -0.307 OA
HETATM   16  H   UNK N   1      18.649  13.607   9.922  0.00  0.00     0.222 HD
ENDBRANCH  13  15
BRANCH  13  17
HETATM   17  O   UNK N   1      21.141  12.345   8.256  0.00  0.00    -0.307 OA
HETATM   18  H   UNK N   1      21.566  12.321   7.384  0.00  0.00     0.222 HD
ENDBRANCH  13  17
ENDBRANCH  12  13
ENDBRANCH   8  12
BRANCH   9  19
HETATM   19  O   UNK N   1      19.975  13.729   6.049  0.00  0.00    -0.388 OA
HETATM   20  H   UNK N   1      19.715  13.083   6.724  0.00  0.00     0.210 HD
ENDBRANCH   9  19
BRANCH  10  21
HETATM   21  N   UNK N   1      20.963  14.978   3.359  0.00  0.00    -0.297 N 
HETATM   22  C   UNK N   1      20.392  13.996   2.612  0.00  0.00     0.188 A 
HETATM   23  N   UNK N   1      19.768  14.497   1.512  0.00  0.00    -0.346 N 
HETATM   24  C   UNK N   1      19.956  15.823   1.601  0.00  0.00     0.122 A 
ATOM     25  HN  UNK N   1      19.270  13.983   0.786  1.00  0.00     0.167 HD
HETATM   26  C   UNK N   1      19.515  16.835   0.766  0.00  0.00     0.131 A 
HETATM   27  C   UNK N   1      20.676  16.117   2.704  0.00  0.00     0.142 A 
HETATM   28  N   UNK N   1      19.827  18.121   1.100  0.00  0.00    -0.337 N 
HETATM   29  C   UNK N   1      20.560  18.401   2.229  0.00  0.00     0.183 A 
ATOM     30  HN  UNK N   1      19.511  18.887   0.503  1.00  0.00     0.168 HD
HETATM   31  N   UNK N   1      20.993  17.389   3.044  0.00  0.00    -0.336 N 
ATOM     32  HN  UNK N   1      21.537  17.588   3.884  1.00  0.00     0.168 HD
BRANCH  26  33
HETATM   33  N   UNK N   1      18.754  16.553  -0.387  0.00  0.00    -0.383 N 
HETATM   34  H   UNK N   1      17.781  16.700  -0.383  0.00  0.00     0.157 HD
HETATM   35  H   UNK N   1      19.196  16.209  -1.197  0.00  0.00     0.157 HD
ENDBRANCH  26  33
ENDBRANCH  10  21
ENDBRANCH   6   7
ENDBRANCH   5   6
ENDBRANCH   2   5
BRANCH   2  36
HETATM   36  O   UNK N   1      27.096  16.201   7.269  0.00  0.00    -0.195 OA
BRANCH  36  37
HETATM   37  P   UNK N   1      28.198  17.548   7.374  0.00  0.00     0.401 P 
HETATM   38  O   UNK N   1      28.698  17.585   8.842  0.00  0.00    -0.631 OA
BRANCH  37  39
HETATM   39  O   UNK N   1      27.389  19.063   7.128  0.00  0.00    -0.307 OA
HETATM   40  H   UNK N   1      27.605  19.610   6.356  0.00  0.00     0.222 HD
ENDBRANCH  37  39
BRANCH  37  41
HETATM   41  O   UNK N   1      29.622  17.403   6.370  0.00  0.00    -0.296 OA
BRANCH  41  42
HETATM   42  C   UNK N   1      30.426  16.370   6.891  0.00  0.00     0.192 C 
BRANCH  42  43
HETATM   43  C   UNK N   1      31.926  16.702   6.881  0.00  0.00     0.008 C 
HETATM   44  C   UNK N   1      32.693  15.403   7.076  0.00  0.00     0.020 C 
HETATM   45  C   UNK N   1      32.345  17.274   5.524  0.00  0.00     0.020 C 
BRANCH  43  46
HETATM   46  C   UNK N   1      32.232  17.699   8.032  0.00  0.00     0.202 C 
BRANCH  46  47
HETATM   47  C   UNK N   1      33.708  17.848   8.284  0.00  0.00     0.141 C 
BRANCH  47  48
HETATM   48  N   UNK N   1      34.224  17.497   9.414  0.00  0.00    -0.372 N 
ATOM     49  HN  UNK N   1      33.960  18.013  10.253  1.00  0.00     0.161 HD
BRANCH  48  50
HETATM   50  C   UNK N   1      35.162  16.401   9.542  0.00  0.00     0.129 C 
BRANCH  50  51
HETATM   51  C   UNK N   1      35.329  15.927  10.979  0.00  0.00     0.103 C 
BRANCH  51  52
HETATM   52  C   UNK N   1      34.315  14.867  11.273  0.00  0.00     0.112 C 
BRANCH  52  53
HETATM   53  N   UNK N   1      34.664  13.802  11.909  0.00  0.00    -0.374 N 
ATOM     54  HN  UNK N   1      34.195  12.920  11.699  1.00  0.00     0.161 HD
BRANCH  53  55
HETATM   55  C   UNK N   1      35.701  13.827  12.915  0.00  0.00     0.132 C 
BRANCH  55  56
HETATM   56  C   UNK N   1      36.605  12.611  12.766  0.00  0.00     0.105 C 
BRANCH  56  57
HETATM   57  S   UNK N   1      37.491  12.692  11.186  0.00  0.00    -0.099 SA
BRANCH  57  58
HETATM   58  S   UNK N   1      36.477  10.979  10.428  0.00  0.00    -0.111 SA
HETATM   59  H   UNK N   1      37.183   9.883  10.045  0.00  0.00     0.114 HD
ENDBRANCH  57  58
ENDBRANCH  56  57
ENDBRANCH  55  56
ENDBRANCH  53  55
ENDBRANCH  52  53
BRANCH  52  60
HETATM   60  O   UNK N   1      33.038  15.034  10.874  0.00  0.00    -0.350 OA
HETATM   61  H   UNK N   1      32.739  14.912   9.994  0.00  0.00     0.219 HD
ENDBRANCH  52  60
ENDBRANCH  51  52
ENDBRANCH  50  51
ENDBRANCH  48  50
ENDBRANCH  47  48
BRANCH  47  62
HETATM   62  O   UNK N   1      34.487  18.292   7.279  0.00  0.00    -0.348 OA
HETATM   63  H   UNK N   1      34.228  18.350   6.380  0.00  0.00     0.219 HD
ENDBRANCH  47  62
ENDBRANCH  46  47
BRANCH  46  64
HETATM   64  O   UNK N   1      31.573  17.324   9.208  0.00  0.00    -0.387 OA
HETATM   65  H   UNK N   1      31.324  16.436   9.508  0.00  0.00     0.210 HD
ENDBRANCH  46  64
ENDBRANCH  43  46
ENDBRANCH  42  43
ENDBRANCH  41  42
ENDBRANCH  37  41
ENDBRANCH  36  37
ENDBRANCH   2  36
TORSDOF 31
ENDMDL
MODEL 6
REMARK VINA RESULT:      -6.2      4.789     11.845
REMARK  31 active torsions:
REMARK  status: ('A' for Active; 'I' for Inactive)
REMARK    1  A    between atoms: C_4  and  C_3 
REMARK    2  A    between atoms: C_12  and  C_3 
REMARK    3  A    between atoms: N_25  and  C_4 
REMARK    4  A    between atoms: C_6  and  C_5 
REMARK    5  A    between atoms: N_23  and  C_5 
REMARK    6  A    between atoms: S_54  and  C_6 
REMARK    7  A    between atoms: C_11  and  C_7 
REMARK    8  A    between atoms: O_45  and  C_7 
REMARK    9  A    between atoms: C_21  and  C_8 
REMARK   10  A    between atoms: O_46  and  C_8 
REMARK   11  A    between atoms: N_23  and  C_12 
REMARK   12  A    between atoms: O_34  and  C_12 
REMARK   13  A    between atoms: C_14  and  O_35 
REMARK   14  A    between atoms: C_15  and  O_48 
REMARK   15  A    between atoms: C_19  and  C_16 
REMARK   16  A    between atoms: C_21  and  C_16 
REMARK   17  A    between atoms: C_16  and  O_36 
REMARK   18  A    between atoms: N_22  and  C_17 
REMARK   19  A    between atoms: N_25  and  C_19 
REMARK   20  A    between atoms: O_37  and  C_19 
REMARK   21  A    between atoms: C_20  and  N_33 
REMARK   22  A    between atoms: P_50  and  O_38 
REMARK   23  A    between atoms: P_50  and  O_39 
REMARK   24  A    between atoms: P_51  and  O_41 
REMARK   25  A    between atoms: P_52  and  O_43 
REMARK   26  A    between atoms: P_51  and  O_45 
REMARK   27  A    between atoms: P_52  and  O_46 
REMARK   28  A    between atoms: P_50  and  O_48 
REMARK   29  A    between atoms: P_51  and  O_49 
REMARK   30  A    between atoms: P_52  and  O_49 
REMARK   31  A    between atoms: S_54  and  S_53 
ROOT
HETATM    1  O   UNK N   1      35.512  14.491   9.246  0.00  0.00    -0.631 OA
HETATM    2  P   UNK N   1      34.850  15.464  10.258  0.00  0.00     0.401 P 
ENDROOT
BRANCH   2   3
HETATM    3  O   UNK N   1      33.157  15.449   9.873  0.00  0.00    -0.307 OA
HETATM    4  H   UNK N   1      32.354  14.911   9.951  0.00  0.00     0.222 HD
ENDBRANCH   2   3
BRANCH   2   5
HETATM    5  O   UNK N   1      35.040  14.877  11.889  0.00  0.00    -0.294 OA
BRANCH   5   6
HETATM    6  C   UNK N   1      36.354  14.411  12.056  0.00  0.00     0.215 C 
BRANCH   6   7
HETATM    7  C   UNK N   1      36.349  12.990  12.622  0.00  0.00     0.180 C 
HETATM    8  C   UNK N   1      35.189  12.150  12.055  0.00  0.00     0.197 C 
HETATM    9  C   UNK N   1      34.913  11.290  13.262  0.00  0.00     0.199 C 
HETATM   10  C   UNK N   1      35.024  12.361  14.336  0.00  0.00     0.262 C 
HETATM   11  O   UNK N   1      36.218  13.040  14.033  0.00  0.00    -0.353 OA
BRANCH   8  12
HETATM   12  O   UNK N   1      35.516  11.344  10.939  0.00  0.00    -0.286 OA
BRANCH  12  13
HETATM   13  P   UNK N   1      34.138  11.152   9.869  0.00  0.00     0.391 P 
HETATM   14  O   UNK N   1      33.216  10.031  10.415  0.00  0.00    -0.632 OA
BRANCH  13  15
HETATM   15  O   UNK N   1      33.198  12.607   9.735  0.00  0.00    -0.307 OA
HETATM   16  H   UNK N   1      32.633  13.193  10.263  0.00  0.00     0.222 HD
ENDBRANCH  13  15
BRANCH  13  17
HETATM   17  O   UNK N   1      34.653  10.631   8.296  0.00  0.00    -0.307 OA
HETATM   18  H   UNK N   1      34.309  11.063   7.499  0.00  0.00     0.222 HD
ENDBRANCH  13  17
ENDBRANCH  12  13
ENDBRANCH   8  12
BRANCH   9  19
HETATM   19  O   UNK N   1      33.654  10.686  13.206  0.00  0.00    -0.388 OA
HETATM   20  H   UNK N   1      33.203   9.894  13.538  0.00  0.00     0.210 HD
ENDBRANCH   9  19
BRANCH  10  21
HETATM   21  N   UNK N   1      35.055  11.894  15.725  0.00  0.00    -0.297 N 
HETATM   22  C   UNK N   1      35.011  10.580  16.073  0.00  0.00     0.188 A 
HETATM   23  N   UNK N   1      35.078  10.413  17.422  0.00  0.00    -0.346 N 
HETATM   24  C   UNK N   1      35.178  11.661  17.904  0.00  0.00     0.122 A 
ATOM     25  HN  UNK N   1      35.059   9.538  17.945  1.00  0.00     0.167 HD
HETATM   26  C   UNK N   1      35.304  12.093  19.214  0.00  0.00     0.131 A 
HETATM   27  C   UNK N   1      35.160  12.553  16.892  0.00  0.00     0.142 A 
HETATM   28  N   UNK N   1      35.413  13.435  19.437  0.00  0.00    -0.337 N 
HETATM   29  C   UNK N   1      35.394  14.329  18.392  0.00  0.00     0.183 A 
ATOM     30  HN  UNK N   1      35.511  13.781  20.392  1.00  0.00     0.168 HD
HETATM   31  N   UNK N   1      35.265  13.887  17.102  0.00  0.00    -0.336 N 
ATOM     32  HN  UNK N   1      35.251  14.544  16.321  1.00  0.00     0.168 HD
BRANCH  26  33
HETATM   33  N   UNK N   1      35.335  11.179  20.286  0.00  0.00    -0.383 N 
HETATM   34  H   UNK N   1      36.160  10.679  20.484  0.00  0.00     0.157 HD
HETATM   35  H   UNK N   1      34.531  11.040  20.838  0.00  0.00     0.157 HD
ENDBRANCH  26  33
ENDBRANCH  10  21
ENDBRANCH   6   7
ENDBRANCH   5   6
ENDBRANCH   2   5
BRANCH   2  36
HETATM   36  O   UNK N   1      35.452  17.080   9.994  0.00  0.00    -0.195 OA
BRANCH  36  37
HETATM   37  P   UNK N   1      34.556  17.767   8.665  0.00  0.00     0.401 P 
HETATM   38  O   UNK N   1      35.290  19.079   8.281  0.00  0.00    -0.631 OA
BRANCH  37  39
HETATM   39  O   UNK N   1      32.963  18.257   9.146  0.00  0.00    -0.307 OA
HETATM   40  H   UNK N   1      32.578  17.917   9.969  0.00  0.00     0.222 HD
ENDBRANCH  37  39
BRANCH  37  41
HETATM   41  O   UNK N   1      34.523  16.780   7.222  0.00  0.00    -0.296 OA
BRANCH  41  42
HETATM   42  C   UNK N   1      33.668  17.393   6.286  0.00  0.00     0.192 C 
BRANCH  42  43
HETATM   43  C   UNK N   1      33.206  16.444   5.170  0.00  0.00     0.008 C 
HETATM   44  C   UNK N   1      33.099  17.251   3.885  0.00  0.00     0.020 C 
HETATM   45  C   UNK N   1      34.247  15.348   4.927  0.00  0.00     0.020 C 
BRANCH  43  46
HETATM   46  C   UNK N   1      31.829  15.839   5.555  0.00  0.00     0.202 C 
BRANCH  46  47
HETATM   47  C   UNK N   1      31.755  15.456   7.008  0.00  0.00     0.141 C 
BRANCH  47  48
HETATM   48  N   UNK N   1      31.159  16.219   7.862  0.00  0.00    -0.372 N 
ATOM     49  HN  UNK N   1      31.400  16.129   8.849  1.00  0.00     0.161 HD
BRANCH  48  50
HETATM   50  C   UNK N   1      30.162  17.197   7.479  0.00  0.00     0.129 C 
BRANCH  50  51
HETATM   51  C   UNK N   1      29.722  18.081   8.638  0.00  0.00     0.103 C 
BRANCH  51  52
HETATM   52  C   UNK N   1      28.376  18.659   8.337  0.00  0.00     0.112 C 
BRANCH  52  53
HETATM   53  N   UNK N   1      28.192  19.329   7.252  0.00  0.00    -0.374 N 
ATOM     54  HN  UNK N   1      28.773  20.148   7.068  1.00  0.00     0.161 HD
BRANCH  53  55
HETATM   55  C   UNK N   1      27.183  18.951   6.290  0.00  0.00     0.132 C 
BRANCH  55  56
HETATM   56  C   UNK N   1      27.835  18.547   4.976  0.00  0.00     0.105 C 
BRANCH  56  57
HETATM   57  S   UNK N   1      26.559  18.109   3.763  0.00  0.00    -0.099 SA
BRANCH  57  58
HETATM   58  S   UNK N   1      25.784  20.092   3.731  0.00  0.00    -0.111 SA
HETATM   59  H   UNK N   1      26.385  21.072   4.457  0.00  0.00     0.114 HD
ENDBRANCH  57  58
ENDBRANCH  56  57
ENDBRANCH  55  56
ENDBRANCH  53  55
ENDBRANCH  52  53
BRANCH  52  60
HETATM   60  O   UNK N   1      27.357  18.471   9.201  0.00  0.00    -0.350 OA
HETATM   61  H   UNK N   1      26.644  19.068   9.315  0.00  0.00     0.219 HD
ENDBRANCH  52  60
ENDBRANCH  51  52
ENDBRANCH  50  51
ENDBRANCH  48  50
ENDBRANCH  47  48
BRANCH  47  62
HETATM   62  O   UNK N   1      32.266  14.268   7.383  0.00  0.00    -0.348 OA
HETATM   63  H   UNK N   1      32.005  13.435   7.043  0.00  0.00     0.219 HD
ENDBRANCH  47  62
ENDBRANCH  46  47
BRANCH  46  64
HETATM   64  O   UNK N   1      31.521  14.740   4.746  0.00  0.00    -0.387 OA
HETATM   65  H   UNK N   1      30.939  14.702   3.970  0.00  0.00     0.210 HD
ENDBRANCH  46  64
ENDBRANCH  43  46
ENDBRANCH  42  43
ENDBRANCH  41  42
ENDBRANCH  37  41
ENDBRANCH  36  37
ENDBRANCH   2  36
TORSDOF 31
ENDMDL
MODEL 7
REMARK VINA RESULT:      -6.2      9.811     13.808
REMARK  31 active torsions:
REMARK  status: ('A' for Active; 'I' for Inactive)
REMARK    1  A    between atoms: C_4  and  C_3 
REMARK    2  A    between atoms: C_12  and  C_3 
REMARK    3  A    between atoms: N_25  and  C_4 
REMARK    4  A    between atoms: C_6  and  C_5 
REMARK    5  A    between atoms: N_23  and  C_5 
REMARK    6  A    between atoms: S_54  and  C_6 
REMARK    7  A    between atoms: C_11  and  C_7 
REMARK    8  A    between atoms: O_45  and  C_7 
REMARK    9  A    between atoms: C_21  and  C_8 
REMARK   10  A    between atoms: O_46  and  C_8 
REMARK   11  A    between atoms: N_23  and  C_12 
REMARK   12  A    between atoms: O_34  and  C_12 
REMARK   13  A    between atoms: C_14  and  O_35 
REMARK   14  A    between atoms: C_15  and  O_48 
REMARK   15  A    between atoms: C_19  and  C_16 
REMARK   16  A    between atoms: C_21  and  C_16 
REMARK   17  A    between atoms: C_16  and  O_36 
REMARK   18  A    between atoms: N_22  and  C_17 
REMARK   19  A    between atoms: N_25  and  C_19 
REMARK   20  A    between atoms: O_37  and  C_19 
REMARK   21  A    between atoms: C_20  and  N_33 
REMARK   22  A    between atoms: P_50  and  O_38 
REMARK   23  A    between atoms: P_50  and  O_39 
REMARK   24  A    between atoms: P_51  and  O_41 
REMARK   25  A    between atoms: P_52  and  O_43 
REMARK   26  A    between atoms: P_51  and  O_45 
REMARK   27  A    between atoms: P_52  and  O_46 
REMARK   28  A    between atoms: P_50  and  O_48 
REMARK   29  A    between atoms: P_51  and  O_49 
REMARK   30  A    between atoms: P_52  and  O_49 
REMARK   31  A    between atoms: S_54  and  S_53 
ROOT
HETATM    1  O   UNK N   1      20.303  16.635   1.784  0.00  0.00    -0.631 OA
HETATM    2  P   UNK N   1      19.884  17.313   3.115  0.00  0.00     0.401 P 
ENDROOT
BRANCH   2   3
HETATM    3  O   UNK N   1      18.680  18.485   2.678  0.00  0.00    -0.307 OA
HETATM    4  H   UNK N   1      17.853  18.890   2.982  0.00  0.00     0.222 HD
ENDBRANCH   2   3
BRANCH   2   5
HETATM    5  O   UNK N   1      19.147  16.155   4.191  0.00  0.00    -0.294 OA
BRANCH   5   6
HETATM    6  C   UNK N   1      19.749  16.260   5.456  0.00  0.00     0.215 C 
BRANCH   6   7
HETATM    7  C   UNK N   1      20.754  15.126   5.665  0.00  0.00     0.180 C 
HETATM    8  C   UNK N   1      20.187  13.767   5.212  0.00  0.00     0.197 C 
HETATM    9  C   UNK N   1      20.876  12.881   6.219  0.00  0.00     0.199 C 
HETATM   10  C   UNK N   1      20.692  13.752   7.453  0.00  0.00     0.262 C 
HETATM   11  O   UNK N   1      21.091  15.036   7.040  0.00  0.00    -0.353 OA
BRANCH   8  12
HETATM   12  O   UNK N   1      20.532  13.376   3.896  0.00  0.00    -0.286 OA
BRANCH  12  13
HETATM   13  P   UNK N   1      19.116  12.867   2.994  0.00  0.00     0.391 P 
HETATM   14  O   UNK N   1      19.479  11.639   2.118  0.00  0.00    -0.632 OA
BRANCH  13  15
HETATM   15  O   UNK N   1      17.797  12.419   4.032  0.00  0.00    -0.307 OA
HETATM   16  H   UNK N   1      17.557  11.769   4.712  0.00  0.00     0.222 HD
ENDBRANCH  13  15
BRANCH  13  17
HETATM   17  O   UNK N   1      18.610  14.111   1.896  0.00  0.00    -0.307 OA
HETATM   18  H   UNK N   1      17.725  14.086   1.500  0.00  0.00     0.222 HD
ENDBRANCH  13  17
ENDBRANCH  12  13
ENDBRANCH   8  12
BRANCH   9  19
HETATM   19  O   UNK N   1      20.268  11.628   6.327  0.00  0.00    -0.388 OA
HETATM   20  H   UNK N   1      19.730  11.023   5.792  0.00  0.00     0.210 HD
ENDBRANCH   9  19
BRANCH  10  21
HETATM   21  N   UNK N   1      21.443  13.359   8.650  0.00  0.00    -0.297 N 
HETATM   22  C   UNK N   1      20.853  12.880   9.777  0.00  0.00     0.188 A 
HETATM   23  N   UNK N   1      21.770  12.567  10.732  0.00  0.00    -0.346 N 
HETATM   24  C   UNK N   1      22.952  12.852  10.161  0.00  0.00     0.122 A 
ATOM     25  HN  UNK N   1      21.600  12.198  11.667  1.00  0.00     0.167 HD
HETATM   26  C   UNK N   1      24.233  12.704  10.664  0.00  0.00     0.131 A 
HETATM   27  C   UNK N   1      22.761  13.332   8.914  0.00  0.00     0.142 A 
HETATM   28  N   UNK N   1      25.279  13.052   9.860  0.00  0.00    -0.337 N 
HETATM   29  C   UNK N   1      25.065  13.537   8.591  0.00  0.00     0.183 A 
ATOM     30  HN  UNK N   1      26.235  12.949  10.204  1.00  0.00     0.168 HD
HETATM   31  N   UNK N   1      23.791  13.682   8.108  0.00  0.00    -0.336 N 
ATOM     32  HN  UNK N   1      23.624  14.041   7.169  1.00  0.00     0.168 HD
BRANCH  26  33
HETATM   33  N   UNK N   1      24.456  12.196  11.960  0.00  0.00    -0.383 N 
HETATM   34  H   UNK N   1      25.354  12.245  12.360  0.00  0.00     0.157 HD
HETATM   35  H   UNK N   1      23.713  11.792  12.465  0.00  0.00     0.157 HD
ENDBRANCH  26  33
ENDBRANCH  10  21
ENDBRANCH   6   7
ENDBRANCH   5   6
ENDBRANCH   2   5
BRANCH   2  36
HETATM   36  O   UNK N   1      21.249  18.165   3.791  0.00  0.00    -0.195 OA
BRANCH  36  37
HETATM   37  P   UNK N   1      21.350  19.714   2.998  0.00  0.00     0.401 P 
HETATM   38  O   UNK N   1      20.369  20.651   3.752  0.00  0.00    -0.631 OA
BRANCH  37  39
HETATM   39  O   UNK N   1      20.757  19.645   1.369  0.00  0.00    -0.307 OA
HETATM   40  H   UNK N   1      20.843  20.417   0.788  0.00  0.00     0.222 HD
ENDBRANCH  37  39
BRANCH  37  41
HETATM   41  O   UNK N   1      22.923  20.474   3.084  0.00  0.00    -0.296 OA
BRANCH  41  42
HETATM   42  C   UNK N   1      23.714  19.750   3.998  0.00  0.00     0.192 C 
BRANCH  42  43
HETATM   43  C   UNK N   1      25.211  19.769   3.655  0.00  0.00     0.008 C 
HETATM   44  C   UNK N   1      25.388  20.576   2.378  0.00  0.00     0.020 C 
HETATM   45  C   UNK N   1      26.008  20.479   4.752  0.00  0.00     0.020 C 
BRANCH  43  46
HETATM   46  C   UNK N   1      25.704  18.310   3.454  0.00  0.00     0.202 C 
BRANCH  46  47
HETATM   47  C   UNK N   1      24.860  17.311   4.198  0.00  0.00     0.141 C 
BRANCH  47  48
HETATM   48  N   UNK N   1      24.064  16.516   3.564  0.00  0.00    -0.372 N 
ATOM     49  HN  UNK N   1      23.060  16.679   3.627  1.00  0.00     0.161 HD
BRANCH  48  50
HETATM   50  C   UNK N   1      24.537  15.404   2.766  0.00  0.00     0.129 C 
BRANCH  50  51
HETATM   51  C   UNK N   1      23.673  14.159   2.913  0.00  0.00     0.103 C 
BRANCH  51  52
HETATM   52  C   UNK N   1      24.016  13.466   4.193  0.00  0.00     0.112 C 
BRANCH  52  53
HETATM   53  N   UNK N   1      24.109  12.181   4.224  0.00  0.00    -0.374 N 
ATOM     54  HN  UNK N   1      23.893  11.646   3.382  1.00  0.00     0.161 HD
BRANCH  53  55
HETATM   55  C   UNK N   1      24.509  11.479   5.422  0.00  0.00     0.132 C 
BRANCH  55  56
HETATM   56  C   UNK N   1      24.376   9.977   5.218  0.00  0.00     0.105 C 
BRANCH  56  57
HETATM   57  S   UNK N   1      23.590   9.226   6.670  0.00  0.00    -0.099 SA
BRANCH  57  58
HETATM   58  S   UNK N   1      21.970   8.470   5.512  0.00  0.00    -0.111 SA
HETATM   59  H   UNK N   1      21.950   7.163   5.139  0.00  0.00     0.114 HD
ENDBRANCH  57  58
ENDBRANCH  56  57
ENDBRANCH  55  56
ENDBRANCH  53  55
ENDBRANCH  52  53
BRANCH  52  60
HETATM   60  O   UNK N   1      24.232  14.191   5.310  0.00  0.00    -0.350 OA
HETATM   61  H   UNK N   1      23.625  14.813   5.661  0.00  0.00     0.219 HD
ENDBRANCH  52  60
ENDBRANCH  51  52
ENDBRANCH  50  51
ENDBRANCH  48  50
ENDBRANCH  47  48
BRANCH  47  62
HETATM   62  O   UNK N   1      25.005  17.219   5.534  0.00  0.00    -0.348 OA
HETATM   63  H   UNK N   1      24.551  17.744   6.164  0.00  0.00     0.219 HD
ENDBRANCH  47  62
ENDBRANCH  46  47
BRANCH  46  64
HETATM   64  O   UNK N   1      27.048  18.180   3.820  0.00  0.00    -0.387 OA
HETATM   65  H   UNK N   1      27.535  18.647   4.518  0.00  0.00     0.210 HD
ENDBRANCH  46  64
ENDBRANCH  43  46
ENDBRANCH  42  43
ENDBRANCH  41  42
ENDBRANCH  37  41
ENDBRANCH  36  37
ENDBRANCH   2  36
TORSDOF 31
ENDMDL
MODEL 8
REMARK VINA RESULT:      -6.2      8.516     12.144
REMARK  31 active torsions:
REMARK  status: ('A' for Active; 'I' for Inactive)
REMARK    1  A    between atoms: C_4  and  C_3 
REMARK    2  A    between atoms: C_12  and  C_3 
REMARK    3  A    between atoms: N_25  and  C_4 
REMARK    4  A    between atoms: C_6  and  C_5 
REMARK    5  A    between atoms: N_23  and  C_5 
REMARK    6  A    between atoms: S_54  and  C_6 
REMARK    7  A    between atoms: C_11  and  C_7 
REMARK    8  A    between atoms: O_45  and  C_7 
REMARK    9  A    between atoms: C_21  and  C_8 
REMARK   10  A    between atoms: O_46  and  C_8 
REMARK   11  A    between atoms: N_23  and  C_12 
REMARK   12  A    between atoms: O_34  and  C_12 
REMARK   13  A    between atoms: C_14  and  O_35 
REMARK   14  A    between atoms: C_15  and  O_48 
REMARK   15  A    between atoms: C_19  and  C_16 
REMARK   16  A    between atoms: C_21  and  C_16 
REMARK   17  A    between atoms: C_16  and  O_36 
REMARK   18  A    between atoms: N_22  and  C_17 
REMARK   19  A    between atoms: N_25  and  C_19 
REMARK   20  A    between atoms: O_37  and  C_19 
REMARK   21  A    between atoms: C_20  and  N_33 
REMARK   22  A    between atoms: P_50  and  O_38 
REMARK   23  A    between atoms: P_50  and  O_39 
REMARK   24  A    between atoms: P_51  and  O_41 
REMARK   25  A    between atoms: P_52  and  O_43 
REMARK   26  A    between atoms: P_51  and  O_45 
REMARK   27  A    between atoms: P_52  and  O_46 
REMARK   28  A    between atoms: P_50  and  O_48 
REMARK   29  A    between atoms: P_51  and  O_49 
REMARK   30  A    between atoms: P_52  and  O_49 
REMARK   31  A    between atoms: S_54  and  S_53 
ROOT
HETATM    1  O   UNK N   1      20.742  19.304   1.877  0.00  0.00    -0.631 OA
HETATM    2  P   UNK N   1      21.201  19.557   3.338  0.00  0.00     0.401 P 
ENDROOT
BRANCH   2   3
HETATM    3  O   UNK N   1      20.326  20.962   3.861  0.00  0.00    -0.307 OA
HETATM    4  H   UNK N   1      20.419  21.782   4.370  0.00  0.00     0.222 HD
ENDBRANCH   2   3
BRANCH   2   5
HETATM    5  O   UNK N   1      20.748  18.223   4.366  0.00  0.00    -0.294 OA
BRANCH   5   6
HETATM    6  C   UNK N   1      19.749  17.473   3.724  0.00  0.00     0.215 C 
BRANCH   6   7
HETATM    7  C   UNK N   1      19.611  16.097   4.379  0.00  0.00     0.180 C 
HETATM    8  C   UNK N   1      20.151  16.091   5.822  0.00  0.00     0.197 C 
HETATM    9  C   UNK N   1      20.669  14.676   5.870  0.00  0.00     0.199 C 
HETATM   10  C   UNK N   1      21.313  14.621   4.493  0.00  0.00     0.262 C 
HETATM   11  O   UNK N   1      20.334  15.137   3.626  0.00  0.00    -0.353 OA
BRANCH   8  12
HETATM   12  O   UNK N   1      19.180  16.296   6.831  0.00  0.00    -0.286 OA
BRANCH  12  13
HETATM   13  P   UNK N   1      19.785  17.363   8.086  0.00  0.00     0.391 P 
HETATM   14  O   UNK N   1      20.749  16.574   9.011  0.00  0.00    -0.632 OA
BRANCH  13  15
HETATM   15  O   UNK N   1      20.652  18.721   7.437  0.00  0.00    -0.307 OA
HETATM   16  H   UNK N   1      20.669  19.308   6.664  0.00  0.00     0.222 HD
ENDBRANCH  13  15
BRANCH  13  17
HETATM   17  O   UNK N   1      18.489  17.915   9.098  0.00  0.00    -0.307 OA
HETATM   18  H   UNK N   1      17.927  18.654   8.816  0.00  0.00     0.222 HD
ENDBRANCH  13  17
ENDBRANCH  12  13
ENDBRANCH   8  12
BRANCH   9  19
HETATM   19  O   UNK N   1      21.573  14.478   6.917  0.00  0.00    -0.388 OA
HETATM   20  H   UNK N   1      22.529  14.513   7.079  0.00  0.00     0.210 HD
ENDBRANCH   9  19
BRANCH  10  21
HETATM   21  N   UNK N   1      21.747  13.301   4.026  0.00  0.00    -0.297 N 
HETATM   22  C   UNK N   1      21.202  12.136   4.466  0.00  0.00     0.188 A 
HETATM   23  N   UNK N   1      21.764  11.055   3.860  0.00  0.00    -0.346 N 
HETATM   24  C   UNK N   1      22.668  11.582   3.019  0.00  0.00     0.122 A 
ATOM     25  HN  UNK N   1      21.547  10.070   4.010  1.00  0.00     0.167 HD
HETATM   26  C   UNK N   1      23.516  10.948   2.127  0.00  0.00     0.131 A 
HETATM   27  C   UNK N   1      22.666  12.928   3.118  0.00  0.00     0.142 A 
HETATM   28  N   UNK N   1      24.333  11.727   1.359  0.00  0.00    -0.337 N 
HETATM   29  C   UNK N   1      24.315  13.097   1.472  0.00  0.00     0.183 A 
ATOM     30  HN  UNK N   1      24.966  11.286   0.691  1.00  0.00     0.168 HD
HETATM   31  N   UNK N   1      23.473  13.710   2.362  0.00  0.00    -0.336 N 
ATOM     32  HN  UNK N   1      23.453  14.726   2.452  1.00  0.00     0.168 HD
BRANCH  26  33
HETATM   33  N   UNK N   1      23.530   9.545   2.000  0.00  0.00    -0.383 N 
HETATM   34  H   UNK N   1      23.035   8.987   2.643  0.00  0.00     0.157 HD
HETATM   35  H   UNK N   1      24.034   9.121   1.267  0.00  0.00     0.157 HD
ENDBRANCH  26  33
ENDBRANCH  10  21
ENDBRANCH   6   7
ENDBRANCH   5   6
ENDBRANCH   2   5
BRANCH   2  36
HETATM   36  O   UNK N   1      22.903  19.941   3.356  0.00  0.00    -0.195 OA
BRANCH  36  37
HETATM   37  P   UNK N   1      23.709  18.724   4.311  0.00  0.00     0.401 P 
HETATM   38  O   UNK N   1      23.489  17.378   3.571  0.00  0.00    -0.631 OA
BRANCH  37  39
HETATM   39  O   UNK N   1      22.961  18.522   5.863  0.00  0.00    -0.307 OA
HETATM   40  H   UNK N   1      22.395  17.752   6.032  0.00  0.00     0.222 HD
ENDBRANCH  37  39
BRANCH  37  41
HETATM   41  O   UNK N   1      25.440  18.936   4.447  0.00  0.00    -0.296 OA
BRANCH  41  42
HETATM   42  C   UNK N   1      25.711  19.580   5.670  0.00  0.00     0.192 C 
BRANCH  42  43
HETATM   43  C   UNK N   1      27.154  20.096   5.779  0.00  0.00     0.008 C 
HETATM   44  C   UNK N   1      27.846  19.832   4.450  0.00  0.00     0.020 C 
HETATM   45  C   UNK N   1      27.170  21.611   6.002  0.00  0.00     0.020 C 
BRANCH  43  46
HETATM   46  C   UNK N   1      27.876  19.348   6.932  0.00  0.00     0.202 C 
BRANCH  46  47
HETATM   47  C   UNK N   1      28.073  17.887   6.633  0.00  0.00     0.141 C 
BRANCH  47  48
HETATM   48  N   UNK N   1      27.080  17.063   6.679  0.00  0.00    -0.372 N 
ATOM     49  HN  UNK N   1      26.399  17.163   7.431  1.00  0.00     0.161 HD
BRANCH  48  50
HETATM   50  C   UNK N   1      26.893  16.004   5.710  0.00  0.00     0.129 C 
BRANCH  50  51
HETATM   51  C   UNK N   1      26.296  14.742   6.317  0.00  0.00     0.103 C 
BRANCH  51  52
HETATM   52  C   UNK N   1      24.886  15.013   6.739  0.00  0.00     0.112 C 
BRANCH  52  53
HETATM   53  N   UNK N   1      24.295  14.214   7.557  0.00  0.00    -0.374 N 
ATOM     54  HN  UNK N   1      23.275  14.179   7.569  1.00  0.00     0.161 HD
BRANCH  53  55
HETATM   55  C   UNK N   1      25.039  13.367   8.461  0.00  0.00     0.132 C 
BRANCH  55  56
HETATM   56  C   UNK N   1      24.203  12.159   8.856  0.00  0.00     0.105 C 
BRANCH  56  57
HETATM   57  S   UNK N   1      23.891  12.182  10.643  0.00  0.00    -0.099 SA
BRANCH  57  58
HETATM   58  S   UNK N   1      21.806  12.512  10.364  0.00  0.00    -0.111 SA
HETATM   59  H   UNK N   1      21.376  13.543   9.588  0.00  0.00     0.114 HD
ENDBRANCH  57  58
ENDBRANCH  56  57
ENDBRANCH  55  56
ENDBRANCH  53  55
ENDBRANCH  52  53
BRANCH  52  60
HETATM   60  O   UNK N   1      24.244  16.100   6.263  0.00  0.00    -0.350 OA
HETATM   61  H   UNK N   1      24.645  16.762   5.736  0.00  0.00     0.219 HD
ENDBRANCH  52  60
ENDBRANCH  51  52
ENDBRANCH  50  51
ENDBRANCH  48  50
ENDBRANCH  47  48
BRANCH  47  62
HETATM   62  O   UNK N   1      29.296  17.472   6.249  0.00  0.00    -0.348 OA
HETATM   63  H   UNK N   1      29.469  16.881   5.543  0.00  0.00     0.219 HD
ENDBRANCH  47  62
ENDBRANCH  46  47
BRANCH  46  64
HETATM   64  O   UNK N   1      27.190  19.509   8.141  0.00  0.00    -0.387 OA
HETATM   65  H   UNK N   1      27.110  20.304   8.691  0.00  0.00     0.210 HD
ENDBRANCH  46  64
ENDBRANCH  43  46
ENDBRANCH  42  43
ENDBRANCH  41  42
ENDBRANCH  37  41
ENDBRANCH  36  37
ENDBRANCH   2  36
TORSDOF 31
ENDMDL
MODEL 9
REMARK VINA RESULT:      -6.1      5.029     11.988
REMARK  31 active torsions:
REMARK  status: ('A' for Active; 'I' for Inactive)
REMARK    1  A    between atoms: C_4  and  C_3 
REMARK    2  A    between atoms: C_12  and  C_3 
REMARK    3  A    between atoms: N_25  and  C_4 
REMARK    4  A    between atoms: C_6  and  C_5 
REMARK    5  A    between atoms: N_23  and  C_5 
REMARK    6  A    between atoms: S_54  and  C_6 
REMARK    7  A    between atoms: C_11  and  C_7 
REMARK    8  A    between atoms: O_45  and  C_7 
REMARK    9  A    between atoms: C_21  and  C_8 
REMARK   10  A    between atoms: O_46  and  C_8 
REMARK   11  A    between atoms: N_23  and  C_12 
REMARK   12  A    between atoms: O_34  and  C_12 
REMARK   13  A    between atoms: C_14  and  O_35 
REMARK   14  A    between atoms: C_15  and  O_48 
REMARK   15  A    between atoms: C_19  and  C_16 
REMARK   16  A    between atoms: C_21  and  C_16 
REMARK   17  A    between atoms: C_16  and  O_36 
REMARK   18  A    between atoms: N_22  and  C_17 
REMARK   19  A    between atoms: N_25  and  C_19 
REMARK   20  A    between atoms: O_37  and  C_19 
REMARK   21  A    between atoms: C_20  and  N_33 
REMARK   22  A    between atoms: P_50  and  O_38 
REMARK   23  A    between atoms: P_50  and  O_39 
REMARK   24  A    between atoms: P_51  and  O_41 
REMARK   25  A    between atoms: P_52  and  O_43 
REMARK   26  A    between atoms: P_51  and  O_45 
REMARK   27  A    between atoms: P_52  and  O_46 
REMARK   28  A    between atoms: P_50  and  O_48 
REMARK   29  A    between atoms: P_51  and  O_49 
REMARK   30  A    between atoms: P_52  and  O_49 
REMARK   31  A    between atoms: S_54  and  S_53 
ROOT
HETATM    1  O   UNK N   1      35.222  19.135   8.561  0.00  0.00    -0.631 OA
HETATM    2  P   UNK N   1      34.238  18.000   8.169  0.00  0.00     0.401 P 
ENDROOT
BRANCH   2   3
HETATM    3  O   UNK N   1      34.640  17.585   6.533  0.00  0.00    -0.307 OA
HETATM    4  H   UNK N   1      34.254  17.465   5.651  0.00  0.00     0.222 HD
ENDBRANCH   2   3
BRANCH   2   5
HETATM    5  O   UNK N   1      34.498  16.591   9.164  0.00  0.00    -0.294 OA
BRANCH   5   6
HETATM    6  C   UNK N   1      35.343  16.936  10.231  0.00  0.00     0.215 C 
BRANCH   6   7
HETATM    7  C   UNK N   1      36.168  15.725  10.672  0.00  0.00     0.180 C 
HETATM    8  C   UNK N   1      35.807  14.462   9.868  0.00  0.00     0.197 C 
HETATM    9  C   UNK N   1      36.030  13.430  10.945  0.00  0.00     0.199 C 
HETATM   10  C   UNK N   1      35.386  14.170  12.107  0.00  0.00     0.262 C 
HETATM   11  O   UNK N   1      35.933  15.465  12.046  0.00  0.00    -0.353 OA
BRANCH   8  12
HETATM   12  O   UNK N   1      36.639  14.198   8.753  0.00  0.00    -0.286 OA
BRANCH  12  13
HETATM   13  P   UNK N   1      35.705  13.594   7.396  0.00  0.00     0.391 P 
HETATM   14  O   UNK N   1      36.576  13.640   6.113  0.00  0.00    -0.632 OA
BRANCH  13  15
HETATM   15  O   UNK N   1      35.178  11.956   7.632  0.00  0.00    -0.307 OA
HETATM   16  H   UNK N   1      34.388  11.441   7.861  0.00  0.00     0.222 HD
ENDBRANCH  13  15
BRANCH  13  17
HETATM   17  O   UNK N   1      34.339  14.619   7.088  0.00  0.00    -0.307 OA
HETATM   18  H   UNK N   1      33.871  14.570   6.240  0.00  0.00     0.222 HD
ENDBRANCH  13  17
ENDBRANCH  12  13
ENDBRANCH   8  12
BRANCH   9  19
HETATM   19  O   UNK N   1      35.411  12.213  10.648  0.00  0.00    -0.388 OA
HETATM   20  H   UNK N   1      34.705  11.866  10.081  0.00  0.00     0.210 HD
ENDBRANCH   9  19
BRANCH  10  21
HETATM   21  N   UNK N   1      35.597  13.602  13.442  0.00  0.00    -0.297 N 
HETATM   22  C   UNK N   1      36.412  14.165  14.373  0.00  0.00     0.188 A 
HETATM   23  N   UNK N   1      36.415  13.457  15.535  0.00  0.00    -0.346 N 
HETATM   24  C   UNK N   1      35.567  12.442  15.305  0.00  0.00     0.122 A 
ATOM     25  HN  UNK N   1      36.941  13.653  16.386  1.00  0.00     0.167 HD
HETATM   26  C   UNK N   1      35.163  11.422  16.149  0.00  0.00     0.131 A 
HETATM   27  C   UNK N   1      35.077  12.521  14.050  0.00  0.00     0.142 A 
HETATM   28  N   UNK N   1      34.259  10.517  15.672  0.00  0.00    -0.337 N 
HETATM   29  C   UNK N   1      33.770  10.616  14.391  0.00  0.00     0.183 A 
ATOM     30  HN  UNK N   1      33.942   9.757  16.274  1.00  0.00     0.168 HD
HETATM   31  N   UNK N   1      34.182  11.629  13.565  0.00  0.00    -0.336 N 
ATOM     32  HN  UNK N   1      33.824  11.709  12.614  1.00  0.00     0.168 HD
BRANCH  26  33
HETATM   33  N   UNK N   1      35.654  11.325  17.467  0.00  0.00    -0.383 N 
HETATM   34  H   UNK N   1      35.404  12.000  18.137  0.00  0.00     0.157 HD
HETATM   35  H   UNK N   1      36.247  10.579  17.717  0.00  0.00     0.157 HD
ENDBRANCH  26  33
ENDBRANCH  10  21
ENDBRANCH   6   7
ENDBRANCH   5   6
ENDBRANCH   2   5
BRANCH   2  36
HETATM   36  O   UNK N   1      32.604  18.611   8.189  0.00  0.00    -0.195 OA
BRANCH  36  37
HETATM   37  P   UNK N   1      31.530  17.255   7.969  0.00  0.00     0.401 P 
HETATM   38  O   UNK N   1      30.102  17.850   7.848  0.00  0.00    -0.631 OA
BRANCH  37  39
HETATM   39  O   UNK N   1      31.484  16.235   9.372  0.00  0.00    -0.307 OA
HETATM   40  H   UNK N   1      31.294  16.617  10.244  0.00  0.00     0.222 HD
ENDBRANCH  37  39
BRANCH  37  41
HETATM   41  O   UNK N   1      31.808  16.335   6.508  0.00  0.00    -0.296 OA
BRANCH  41  42
HETATM   42  C   UNK N   1      31.452  17.138   5.407  0.00  0.00     0.192 C 
BRANCH  42  43
HETATM   43  C   UNK N   1      31.409  16.366   4.080  0.00  0.00     0.008 C 
HETATM   44  C   UNK N   1      32.342  17.064   3.102  0.00  0.00     0.020 C 
HETATM   45  C   UNK N   1      31.937  14.941   4.265  0.00  0.00     0.020 C 
BRANCH  43  46
HETATM   46  C   UNK N   1      29.952  16.363   3.541  0.00  0.00     0.202 C 
BRANCH  46  47
HETATM   47  C   UNK N   1      28.932  16.431   4.644  0.00  0.00     0.141 C 
BRANCH  47  48
HETATM   48  N   UNK N   1      28.044  17.368   4.666  0.00  0.00    -0.372 N 
ATOM     49  HN  UNK N   1      28.153  18.128   5.336  1.00  0.00     0.161 HD
BRANCH  48  50
HETATM   50  C   UNK N   1      26.900  17.385   3.778  0.00  0.00     0.129 C 
BRANCH  50  51
HETATM   51  C   UNK N   1      25.865  16.322   4.123  0.00  0.00     0.103 C 
BRANCH  51  52
HETATM   52  C   UNK N   1      25.315  16.590   5.488  0.00  0.00     0.112 C 
BRANCH  52  53
HETATM   53  N   UNK N   1      24.147  17.118   5.619  0.00  0.00    -0.374 N 
ATOM     54  HN  UNK N   1      24.065  18.132   5.703  1.00  0.00     0.161 HD
BRANCH  53  55
HETATM   55  C   UNK N   1      22.950  16.309   5.651  0.00  0.00     0.132 C 
BRANCH  55  56
HETATM   56  C   UNK N   1      21.993  16.744   4.550  0.00  0.00     0.105 C 
BRANCH  56  57
HETATM   57  S   UNK N   1      22.127  15.615   3.136  0.00  0.00    -0.099 SA
BRANCH  57  58
HETATM   58  S   UNK N   1      20.021  15.301   3.076  0.00  0.00    -0.111 SA
HETATM   59  H   UNK N   1      19.522  14.097   2.686  0.00  0.00     0.114 HD
ENDBRANCH  57  58
ENDBRANCH  56  57
ENDBRANCH  55  56
ENDBRANCH  53  55
ENDBRANCH  52  53
BRANCH  52  60
HETATM   60  O   UNK N   1      26.044  16.272   6.578  0.00  0.00    -0.350 OA
HETATM   61  H   UNK N   1      25.750  16.382   7.460  0.00  0.00     0.219 HD
ENDBRANCH  52  60
ENDBRANCH  51  52
ENDBRANCH  50  51
ENDBRANCH  48  50
ENDBRANCH  47  48
BRANCH  47  62
HETATM   62  O   UNK N   1      28.925  15.453   5.571  0.00  0.00    -0.348 OA
HETATM   63  H   UNK N   1      29.658  15.206   6.101  0.00  0.00     0.219 HD
ENDBRANCH  47  62
ENDBRANCH  46  47
BRANCH  46  64
HETATM   64  O   UNK N   1      29.720  15.246   2.731  0.00  0.00    -0.387 OA
HETATM   65  H   UNK N   1      29.148  14.481   2.901  0.00  0.00     0.210 HD
ENDBRANCH  46  64
ENDBRANCH  43  46
ENDBRANCH  42  43
ENDBRANCH  41  42
ENDBRANCH  37  41
ENDBRANCH  36  37
ENDBRANCH   2  36
TORSDOF 31
ENDMDL
