MODEL 1
REMARK VINA RESULT:      -5.6      0.000      0.000
REMARK  9 active torsions:
REMARK  status: ('A' for Active; 'I' for Inactive)
REMARK    1  A    between atoms: P_1  and  O_2 
REMARK    2  A    between atoms: P_1  and  O_3 
REMARK    3  A    between atoms: P_1  and  O_4 
REMARK    4  A    between atoms: O_2  and  C_11 
REMARK    5  A    between atoms: C_12  and  O_5 
REMARK    6  A    between atoms: C_14  and  O_6 
REMARK    7  A    between atoms: C_15  and  O_7 
REMARK    8  A    between atoms: C_16  and  O_8 
REMARK    9  A    between atoms: C_13  and  C_11 
ROOT
HETATM    1  O   UNK N   1      20.800  17.450   2.136  0.00  0.00    -0.349 OA
HETATM    2  C   UNK N   1      20.231  18.309   1.178  0.00  0.00     0.288 C 
HETATM    3  C   UNK N   1      20.476  17.959   3.411  0.00  0.00     0.180 C 
HETATM    4  C   UNK N   1      20.979  19.647   1.181  0.00  0.00     0.204 C 
HETATM    5  C   UNK N   1      21.231  19.275   3.646  0.00  0.00     0.180 C 
HETATM    6  C   UNK N   1      20.825  20.272   2.564  0.00  0.00     0.183 C 
ENDROOT
BRANCH   3   7
HETATM    7  C   UNK N   1      20.886  16.949   4.473  0.00  0.00     0.215 C 
BRANCH   7   8
HETATM    8  O   UNK N   1      20.068  17.058   5.602  0.00  0.00    -0.294 OA
BRANCH   8   9
HETATM    9  P   UNK N   1      21.091  16.604   6.937  0.00  0.00     0.390 P 
HETATM   10  O   UNK N   1      21.049  18.146   7.122  0.00  0.00    -0.632 OA
BRANCH   9  11
HETATM   11  O   UNK N   1      19.487  15.983   7.169  0.00  0.00    -0.307 OA
HETATM   12  H   UNK N   1      18.844  16.265   7.838  0.00  0.00     0.222 HD
ENDBRANCH   9  11
BRANCH   9  13
HETATM   13  O   UNK N   1      20.585  16.765   8.590  0.00  0.00    -0.307 OA
HETATM   14  H   UNK N   1      21.060  16.416   9.360  0.00  0.00     0.222 HD
ENDBRANCH   9  13
ENDBRANCH   8   9
ENDBRANCH   7   8
ENDBRANCH   3   7
BRANCH   5  15
HETATM   15  O   UNK N   1      20.909  19.798   4.899  0.00  0.00    -0.390 OA
HETATM   16  H   UNK N   1      20.447  19.310   5.598  0.00  0.00     0.210 HD
ENDBRANCH   5  15
BRANCH   2  17
HETATM   17  O   UNK N   1      20.326  17.719  -0.083  0.00  0.00    -0.369 OA
HETATM   18  H   UNK N   1      19.562  17.662  -0.677  0.00  0.00     0.212 HD
ENDBRANCH   2  17
BRANCH   6  19
HETATM   19  O   UNK N   1      21.604  21.428   2.660  0.00  0.00    -0.390 OA
HETATM   20  H   UNK N   1      22.096  21.693   3.453  0.00  0.00     0.210 HD
ENDBRANCH   6  19
BRANCH   4  21
HETATM   21  O   UNK N   1      20.442  20.504   0.219  0.00  0.00    -0.388 OA
HETATM   22  H   UNK N   1      19.638  20.365  -0.307  0.00  0.00     0.210 HD
ENDBRANCH   4  21
TORSDOF 9
ENDMDL
MODEL 2
REMARK VINA RESULT:      -5.4      1.088      2.471
REMARK  9 active torsions:
REMARK  status: ('A' for Active; 'I' for Inactive)
REMARK    1  A    between atoms: P_1  and  O_2 
REMARK    2  A    between atoms: P_1  and  O_3 
REMARK    3  A    between atoms: P_1  and  O_4 
REMARK    4  A    between atoms: O_2  and  C_11 
REMARK    5  A    between atoms: C_12  and  O_5 
REMARK    6  A    between atoms: C_14  and  O_6 
REMARK    7  A    between atoms: C_15  and  O_7 
REMARK    8  A    between atoms: C_16  and  O_8 
REMARK    9  A    between atoms: C_13  and  C_11 
ROOT
HETATM    1  O   UNK N   1      21.455  19.813   4.151  0.00  0.00    -0.349 OA
HETATM    2  C   UNK N   1      21.657  20.150   2.800  0.00  0.00     0.288 C 
HETATM    3  C   UNK N   1      21.553  18.410   4.260  0.00  0.00     0.180 C 
HETATM    4  C   UNK N   1      20.454  19.687   1.970  0.00  0.00     0.204 C 
HETATM    5  C   UNK N   1      20.351  17.756   3.564  0.00  0.00     0.180 C 
HETATM    6  C   UNK N   1      20.350  18.170   2.095  0.00  0.00     0.183 C 
ENDROOT
BRANCH   3   7
HETATM    7  C   UNK N   1      21.555  18.020   5.730  0.00  0.00     0.215 C 
BRANCH   7   8
HETATM    8  O   UNK N   1      20.315  17.493   6.105  0.00  0.00    -0.294 OA
BRANCH   8   9
HETATM    9  P   UNK N   1      20.684  16.330   7.349  0.00  0.00     0.390 P 
HETATM   10  O   UNK N   1      20.312  17.565   8.215  0.00  0.00    -0.632 OA
BRANCH   9  11
HETATM   11  O   UNK N   1      19.273  15.839   6.465  0.00  0.00    -0.307 OA
HETATM   12  H   UNK N   1      18.417  16.293   6.437  0.00  0.00     0.222 HD
ENDBRANCH   9  11
BRANCH   9  13
HETATM   13  O   UNK N   1      19.469  15.688   8.409  0.00  0.00    -0.307 OA
HETATM   14  H   UNK N   1      19.283  14.747   8.546  0.00  0.00     0.222 HD
ENDBRANCH   9  13
ENDBRANCH   8   9
ENDBRANCH   7   8
ENDBRANCH   3   7
BRANCH   5  15
HETATM   15  O   UNK N   1      20.442  16.366   3.652  0.00  0.00    -0.390 OA
HETATM   16  H   UNK N   1      20.381  15.860   4.477  0.00  0.00     0.210 HD
ENDBRANCH   5  15
BRANCH   2  17
HETATM   17  O   UNK N   1      21.801  21.534   2.688  0.00  0.00    -0.369 OA
HETATM   18  H   UNK N   1      22.384  21.932   2.023  0.00  0.00     0.212 HD
ENDBRANCH   2  17
BRANCH   6  19
HETATM   19  O   UNK N   1      19.187  17.713   1.468  0.00  0.00    -0.390 OA
HETATM   20  H   UNK N   1      18.330  18.165   1.508  0.00  0.00     0.210 HD
ENDBRANCH   6  19
BRANCH   4  21
HETATM   21  O   UNK N   1      20.627  20.034   0.630  0.00  0.00    -0.388 OA
HETATM   22  H   UNK N   1      21.397  19.846   0.070  0.00  0.00     0.210 HD
ENDBRANCH   4  21
TORSDOF 9
ENDMDL
MODEL 3
REMARK VINA RESULT:      -5.3      6.210      9.566
REMARK  9 active torsions:
REMARK  status: ('A' for Active; 'I' for Inactive)
REMARK    1  A    between atoms: P_1  and  O_2 
REMARK    2  A    between atoms: P_1  and  O_3 
REMARK    3  A    between atoms: P_1  and  O_4 
REMARK    4  A    between atoms: O_2  and  C_11 
REMARK    5  A    between atoms: C_12  and  O_5 
REMARK    6  A    between atoms: C_14  and  O_6 
REMARK    7  A    between atoms: C_15  and  O_7 
REMARK    8  A    between atoms: C_16  and  O_8 
REMARK    9  A    between atoms: C_13  and  C_11 
ROOT
HETATM    1  O   UNK N   1      21.101  12.898  10.367  0.00  0.00    -0.349 OA
HETATM    2  C   UNK N   1      21.310  11.877  11.312  0.00  0.00     0.288 C 
HETATM    3  C   UNK N   1      22.059  12.736   9.345  0.00  0.00     0.180 C 
HETATM    4  C   UNK N   1      22.619  12.135  12.066  0.00  0.00     0.204 C 
HETATM    5  C   UNK N   1      23.455  13.062   9.894  0.00  0.00     0.180 C 
HETATM    6  C   UNK N   1      23.759  12.117  11.053  0.00  0.00     0.183 C 
ENDROOT
BRANCH   3   7
HETATM    7  C   UNK N   1      21.736  13.683   8.200  0.00  0.00     0.215 C 
BRANCH   7   8
HETATM    8  O   UNK N   1      20.356  13.886   8.100  0.00  0.00    -0.294 OA
BRANCH   8   9
HETATM    9  P   UNK N   1      20.138  15.596   8.350  0.00  0.00     0.390 P 
HETATM   10  O   UNK N   1      19.515  15.434   6.936  0.00  0.00    -0.632 OA
BRANCH   9  11
HETATM   11  O   UNK N   1      19.174  14.695   9.477  0.00  0.00    -0.307 OA
HETATM   12  H   UNK N   1      19.480  14.001  10.081  0.00  0.00     0.222 HD
ENDBRANCH   9  11
BRANCH   9  13
HETATM   13  O   UNK N   1      18.569  16.312   8.551  0.00  0.00    -0.307 OA
HETATM   14  H   UNK N   1      18.380  17.263   8.543  0.00  0.00     0.222 HD
ENDBRANCH   9  13
ENDBRANCH   8   9
ENDBRANCH   7   8
ENDBRANCH   3   7
BRANCH   5  15
HETATM   15  O   UNK N   1      24.417  12.892   8.896  0.00  0.00    -0.390 OA
HETATM   16  H   UNK N   1      25.351  13.138   8.982  0.00  0.00     0.210 HD
ENDBRANCH   5  15
BRANCH   2  17
HETATM   17  O   UNK N   1      20.243  11.858  12.213  0.00  0.00    -0.369 OA
HETATM   18  H   UNK N   1      19.443  11.337  12.044  0.00  0.00     0.212 HD
ENDBRANCH   2  17
BRANCH   6  19
HETATM   19  O   UNK N   1      24.958  12.484  11.670  0.00  0.00    -0.390 OA
HETATM   20  H   UNK N   1      25.695  11.876  11.841  0.00  0.00     0.210 HD
ENDBRANCH   6  19
BRANCH   4  21
HETATM   21  O   UNK N   1      22.830  11.143  13.025  0.00  0.00    -0.388 OA
HETATM   22  H   UNK N   1      23.670  10.714  13.249  0.00  0.00     0.210 HD
ENDBRANCH   4  21
TORSDOF 9
ENDMDL
MODEL 4
REMARK VINA RESULT:      -5.3     10.584     11.659
REMARK  9 active torsions:
REMARK  status: ('A' for Active; 'I' for Inactive)
REMARK    1  A    between atoms: P_1  and  O_2 
REMARK    2  A    between atoms: P_1  and  O_3 
REMARK    3  A    between atoms: P_1  and  O_4 
REMARK    4  A    between atoms: O_2  and  C_11 
REMARK    5  A    between atoms: C_12  and  O_5 
REMARK    6  A    between atoms: C_14  and  O_6 
REMARK    7  A    between atoms: C_15  and  O_7 
REMARK    8  A    between atoms: C_16  and  O_8 
REMARK    9  A    between atoms: C_13  and  C_11 
ROOT
HETATM    1  O   UNK N   1      30.658  17.636   6.918  0.00  0.00    -0.349 OA
HETATM    2  C   UNK N   1      29.398  17.386   6.345  0.00  0.00     0.288 C 
HETATM    3  C   UNK N   1      30.702  16.968   8.159  0.00  0.00     0.180 C 
HETATM    4  C   UNK N   1      28.317  18.129   7.139  0.00  0.00     0.204 C 
HETATM    5  C   UNK N   1      29.742  17.650   9.143  0.00  0.00     0.180 C 
HETATM    6  C   UNK N   1      28.330  17.595   8.568  0.00  0.00     0.183 C 
ENDROOT
BRANCH   3   7
HETATM    7  C   UNK N   1      32.118  17.032   8.713  0.00  0.00     0.215 C 
BRANCH   7   8
HETATM    8  O   UNK N   1      32.798  18.143   8.204  0.00  0.00    -0.294 OA
BRANCH   8   9
HETATM    9  P   UNK N   1      34.481  17.696   8.258  0.00  0.00     0.390 P 
HETATM   10  O   UNK N   1      34.595  19.242   8.359  0.00  0.00    -0.632 OA
BRANCH   9  11
HETATM   11  O   UNK N   1      33.658  17.116   9.672  0.00  0.00    -0.307 OA
HETATM   12  H   UNK N   1      32.705  17.149   9.845  0.00  0.00     0.222 HD
ENDBRANCH   9  11
BRANCH   9  13
HETATM   13  O   UNK N   1      35.451  17.905   9.683  0.00  0.00    -0.307 OA
HETATM   14  H   UNK N   1      35.147  17.776  10.594  0.00  0.00     0.222 HD
ENDBRANCH   9  13
ENDBRANCH   8   9
ENDBRANCH   7   8
ENDBRANCH   3   7
BRANCH   5  15
HETATM   15  O   UNK N   1      29.764  16.990  10.373  0.00  0.00    -0.390 OA
HETATM   16  H   UNK N   1      29.177  17.191  11.118  0.00  0.00     0.210 HD
ENDBRANCH   5  15
BRANCH   2  17
HETATM   17  O   UNK N   1      29.398  17.830   5.021  0.00  0.00    -0.369 OA
HETATM   18  H   UNK N   1      28.612  18.234   4.620  0.00  0.00     0.212 HD
ENDBRANCH   2  17
BRANCH   6  19
HETATM   19  O   UNK N   1      27.456  18.336   9.368  0.00  0.00    -0.390 OA
HETATM   20  H   UNK N   1      27.055  18.010  10.189  0.00  0.00     0.210 HD
ENDBRANCH   6  19
BRANCH   4  21
HETATM   21  O   UNK N   1      27.062  17.912   6.569  0.00  0.00    -0.388 OA
HETATM   22  H   UNK N   1      26.205  17.903   7.024  0.00  0.00     0.210 HD
ENDBRANCH   4  21
TORSDOF 9
ENDMDL
MODEL 5
REMARK VINA RESULT:      -5.3     12.566     13.975
REMARK  9 active torsions:
REMARK  status: ('A' for Active; 'I' for Inactive)
REMARK    1  A    between atoms: P_1  and  O_2 
REMARK    2  A    between atoms: P_1  and  O_3 
REMARK    3  A    between atoms: P_1  and  O_4 
REMARK    4  A    between atoms: O_2  and  C_11 
REMARK    5  A    between atoms: C_12  and  O_5 
REMARK    6  A    between atoms: C_14  and  O_6 
REMARK    7  A    between atoms: C_15  and  O_7 
REMARK    8  A    between atoms: C_16  and  O_8 
REMARK    9  A    between atoms: C_13  and  C_11 
ROOT
HETATM    1  O   UNK N   1      34.502  17.986   6.816  0.00  0.00    -0.349 OA
HETATM    2  C   UNK N   1      34.423  18.264   8.193  0.00  0.00     0.288 C 
HETATM    3  C   UNK N   1      33.415  17.150   6.486  0.00  0.00     0.180 C 
HETATM    4  C   UNK N   1      34.749  16.996   8.992  0.00  0.00     0.204 C 
HETATM    5  C   UNK N   1      33.618  15.768   7.123  0.00  0.00     0.180 C 
HETATM    6  C   UNK N   1      33.712  15.935   8.637  0.00  0.00     0.183 C 
ENDROOT
BRANCH   3   7
HETATM    7  C   UNK N   1      33.338  17.000   4.975  0.00  0.00     0.215 C 
BRANCH   7   8
HETATM    8  O   UNK N   1      32.286  17.760   4.454  0.00  0.00    -0.294 OA
BRANCH   8   9
HETATM    9  P   UNK N   1      31.119  16.588   3.908  0.00  0.00     0.390 P 
HETATM   10  O   UNK N   1      30.185  17.613   4.609  0.00  0.00    -0.632 OA
BRANCH   9  11
HETATM   11  O   UNK N   1      31.866  17.371   2.551  0.00  0.00    -0.307 OA
HETATM   12  H   UNK N   1      31.505  18.106   2.031  0.00  0.00     0.222 HD
ENDBRANCH   9  11
BRANCH   9  13
HETATM   13  O   UNK N   1      29.958  16.943   2.666  0.00  0.00    -0.307 OA
HETATM   14  H   UNK N   1      29.224  17.571   2.746  0.00  0.00     0.222 HD
ENDBRANCH   9  13
ENDBRANCH   8   9
ENDBRANCH   7   8
ENDBRANCH   3   7
BRANCH   5  15
HETATM   15  O   UNK N   1      32.541  14.934   6.816  0.00  0.00    -0.390 OA
HETATM   16  H   UNK N   1      32.553  14.246   6.132  0.00  0.00     0.210 HD
ENDBRANCH   5  15
BRANCH   2  17
HETATM   17  O   UNK N   1      35.337  19.269   8.513  0.00  0.00    -0.369 OA
HETATM   18  H   UNK N   1      35.465  19.568   9.426  0.00  0.00     0.212 HD
ENDBRANCH   2  17
BRANCH   6  19
HETATM   19  O   UNK N   1      34.044  14.716   9.234  0.00  0.00    -0.390 OA
HETATM   20  H   UNK N   1      33.634  13.866   9.010  0.00  0.00     0.210 HD
ENDBRANCH   6  19
BRANCH   4  21
HETATM   21  O   UNK N   1      34.698  17.260  10.361  0.00  0.00    -0.388 OA
HETATM   22  H   UNK N   1      35.341  17.762  10.886  0.00  0.00     0.210 HD
ENDBRANCH   4  21
TORSDOF 9
ENDMDL
MODEL 6
REMARK VINA RESULT:      -5.3     10.454     11.680
REMARK  9 active torsions:
REMARK  status: ('A' for Active; 'I' for Inactive)
REMARK    1  A    between atoms: P_1  and  O_2 
REMARK    2  A    between atoms: P_1  and  O_3 
REMARK    3  A    between atoms: P_1  and  O_4 
REMARK    4  A    between atoms: O_2  and  C_11 
REMARK    5  A    between atoms: C_12  and  O_5 
REMARK    6  A    between atoms: C_14  and  O_6 
REMARK    7  A    between atoms: C_15  and  O_7 
REMARK    8  A    between atoms: C_16  and  O_8 
REMARK    9  A    between atoms: C_13  and  C_11 
ROOT
HETATM    1  O   UNK N   1      29.268  17.476   6.502  0.00  0.00    -0.349 OA
HETATM    2  C   UNK N   1      28.107  17.540   7.295  0.00  0.00     0.288 C 
HETATM    3  C   UNK N   1      30.208  16.678   7.185  0.00  0.00     0.180 C 
HETATM    4  C   UNK N   1      28.385  18.383   8.545  0.00  0.00     0.204 C 
HETATM    5  C   UNK N   1      30.695  17.417   8.439  0.00  0.00     0.180 C 
HETATM    6  C   UNK N   1      29.495  17.699   9.338  0.00  0.00     0.183 C 
ENDROOT
BRANCH   3   7
HETATM    7  C   UNK N   1      31.393  16.406   6.270  0.00  0.00     0.215 C 
BRANCH   7   8
HETATM    8  O   UNK N   1      32.461  17.255   6.579  0.00  0.00    -0.294 OA
BRANCH   8   9
HETATM    9  P   UNK N   1      33.799  16.641   5.647  0.00  0.00     0.390 P 
HETATM   10  O   UNK N   1      34.467  17.866   6.331  0.00  0.00    -0.632 OA
BRANCH   9  11
HETATM   11  O   UNK N   1      33.353  15.504   6.880  0.00  0.00    -0.307 OA
HETATM   12  H   UNK N   1      33.925  14.838   7.292  0.00  0.00     0.222 HD
ENDBRANCH   9  11
BRANCH   9  13
HETATM   13  O   UNK N   1      35.200  15.934   6.389  0.00  0.00    -0.307 OA
HETATM   14  H   UNK N   1      35.338  14.987   6.540  0.00  0.00     0.222 HD
ENDBRANCH   9  13
ENDBRANCH   8   9
ENDBRANCH   7   8
ENDBRANCH   3   7
BRANCH   5  15
HETATM   15  O   UNK N   1      31.617  16.631   9.133  0.00  0.00    -0.390 OA
HETATM   16  H   UNK N   1      32.287  16.068   8.716  0.00  0.00     0.210 HD
ENDBRANCH   5  15
BRANCH   2  17
HETATM   17  O   UNK N   1      27.076  18.121   6.556  0.00  0.00    -0.369 OA
HETATM   18  H   UNK N   1      26.144  17.966   6.774  0.00  0.00     0.212 HD
ENDBRANCH   2  17
BRANCH   6  19
HETATM   19  O   UNK N   1      29.881  18.500  10.417  0.00  0.00    -0.390 OA
HETATM   20  H   UNK N   1      30.702  19.015  10.450  0.00  0.00     0.210 HD
ENDBRANCH   6  19
BRANCH   4  21
HETATM   21  O   UNK N   1      27.237  18.475   9.332  0.00  0.00    -0.388 OA
HETATM   22  H   UNK N   1      27.192  18.652  10.285  0.00  0.00     0.210 HD
ENDBRANCH   4  21
TORSDOF 9
ENDMDL
MODEL 7
REMARK VINA RESULT:      -5.2      2.638      4.568
REMARK  9 active torsions:
REMARK  status: ('A' for Active; 'I' for Inactive)
REMARK    1  A    between atoms: P_1  and  O_2 
REMARK    2  A    between atoms: P_1  and  O_3 
REMARK    3  A    between atoms: P_1  and  O_4 
REMARK    4  A    between atoms: O_2  and  C_11 
REMARK    5  A    between atoms: C_12  and  O_5 
REMARK    6  A    between atoms: C_14  and  O_6 
REMARK    7  A    between atoms: C_15  and  O_7 
REMARK    8  A    between atoms: C_16  and  O_8 
REMARK    9  A    between atoms: C_13  and  C_11 
ROOT
HETATM    1  O   UNK N   1      20.364  18.141   3.408  0.00  0.00    -0.349 OA
HETATM    2  C   UNK N   1      21.154  19.293   3.580  0.00  0.00     0.288 C 
HETATM    3  C   UNK N   1      20.679  17.592   2.148  0.00  0.00     0.180 C 
HETATM    4  C   UNK N   1      20.670  20.394   2.628  0.00  0.00     0.204 C 
HETATM    5  C   UNK N   1      20.167  18.522   1.040  0.00  0.00     0.180 C 
HETATM    6  C   UNK N   1      20.832  19.887   1.199  0.00  0.00     0.183 C 
ENDROOT
BRANCH   3   7
HETATM    7  C   UNK N   1      20.009  16.233   2.012  0.00  0.00     0.215 C 
BRANCH   7   8
HETATM    8  O   UNK N   1      20.602  15.489   0.987  0.00  0.00    -0.294 OA
BRANCH   8   9
HETATM    9  P   UNK N   1      19.657  14.029   0.894  0.00  0.00     0.390 P 
HETATM   10  O   UNK N   1      19.674  14.258   2.430  0.00  0.00    -0.632 OA
BRANCH   9  11
HETATM   11  O   UNK N   1      18.803  15.348   0.156  0.00  0.00    -0.307 OA
HETATM   12  H   UNK N   1      18.204  15.300  -0.605  0.00  0.00     0.222 HD
ENDBRANCH   9  11
BRANCH   9  13
HETATM   13  O   UNK N   1      17.968  13.990   1.294  0.00  0.00    -0.307 OA
HETATM   14  H   UNK N   1      17.448  14.744   1.611  0.00  0.00     0.222 HD
ENDBRANCH   9  13
ENDBRANCH   8   9
ENDBRANCH   7   8
ENDBRANCH   3   7
BRANCH   5  15
HETATM   15  O   UNK N   1      20.485  17.998  -0.214  0.00  0.00    -0.390 OA
HETATM   16  H   UNK N   1      21.387  17.902  -0.560  0.00  0.00     0.210 HD
ENDBRANCH   5  15
BRANCH   2  17
HETATM   17  O   UNK N   1      21.046  19.732   4.901  0.00  0.00    -0.369 OA
HETATM   18  H   UNK N   1      20.464  20.469   5.146  0.00  0.00     0.212 HD
ENDBRANCH   2  17
BRANCH   6  19
HETATM   19  O   UNK N   1      20.278  20.799   0.297  0.00  0.00    -0.390 OA
HETATM   20  H   UNK N   1      20.642  21.680   0.116  0.00  0.00     0.210 HD
ENDBRANCH   6  19
BRANCH   4  21
HETATM   21  O   UNK N   1      21.428  21.552   2.803  0.00  0.00    -0.388 OA
HETATM   22  H   UNK N   1      22.394  21.632   2.762  0.00  0.00     0.210 HD
ENDBRANCH   4  21
TORSDOF 9
ENDMDL
MODEL 8
REMARK VINA RESULT:      -5.2     12.672     14.028
REMARK  9 active torsions:
REMARK  status: ('A' for Active; 'I' for Inactive)
REMARK    1  A    between atoms: P_1  and  O_2 
REMARK    2  A    between atoms: P_1  and  O_3 
REMARK    3  A    between atoms: P_1  and  O_4 
REMARK    4  A    between atoms: O_2  and  C_11 
REMARK    5  A    between atoms: C_12  and  O_5 
REMARK    6  A    between atoms: C_14  and  O_6 
REMARK    7  A    between atoms: C_15  and  O_7 
REMARK    8  A    between atoms: C_16  and  O_8 
REMARK    9  A    between atoms: C_13  and  C_11 
ROOT
HETATM    1  O   UNK N   1      32.502  15.709   8.227  0.00  0.00    -0.349 OA
HETATM    2  C   UNK N   1      33.503  15.685   9.215  0.00  0.00     0.288 C 
HETATM    3  C   UNK N   1      33.117  16.054   7.005  0.00  0.00     0.180 C 
HETATM    4  C   UNK N   1      33.979  17.115   9.497  0.00  0.00     0.204 C 
HETATM    5  C   UNK N   1      33.576  17.518   7.057  0.00  0.00     0.180 C 
HETATM    6  C   UNK N   1      34.566  17.680   8.207  0.00  0.00     0.183 C 
ENDROOT
BRANCH   3   7
HETATM    7  C   UNK N   1      32.115  15.882   5.874  0.00  0.00     0.215 C 
BRANCH   7   8
HETATM    8  O   UNK N   1      32.768  15.834   4.638  0.00  0.00    -0.294 OA
BRANCH   8   9
HETATM    9  P   UNK N   1      31.534  16.220   3.469  0.00  0.00     0.390 P 
HETATM   10  O   UNK N   1      31.690  17.592   4.180  0.00  0.00    -0.632 OA
BRANCH   9  11
HETATM   11  O   UNK N   1      33.028  15.848   2.667  0.00  0.00    -0.307 OA
HETATM   12  H   UNK N   1      33.278  15.003   2.264  0.00  0.00     0.222 HD
ENDBRANCH   9  11
BRANCH   9  13
HETATM   13  O   UNK N   1      31.820  17.297   2.138  0.00  0.00    -0.307 OA
HETATM   14  H   UNK N   1      32.578  17.257   1.536  0.00  0.00     0.222 HD
ENDBRANCH   9  13
ENDBRANCH   8   9
ENDBRANCH   7   8
ENDBRANCH   3   7
BRANCH   5  15
HETATM   15  O   UNK N   1      34.200  17.869   5.859  0.00  0.00    -0.390 OA
HETATM   16  H   UNK N   1      35.036  18.359   5.795  0.00  0.00     0.210 HD
ENDBRANCH   5  15
BRANCH   2  17
HETATM   17  O   UNK N   1      32.984  15.124  10.383  0.00  0.00    -0.369 OA
HETATM   18  H   UNK N   1      32.279  14.459  10.358  0.00  0.00     0.212 HD
ENDBRANCH   2  17
BRANCH   6  19
HETATM   19  O   UNK N   1      34.890  19.029   8.375  0.00  0.00    -0.390 OA
HETATM   20  H   UNK N   1      35.213  19.607   7.667  0.00  0.00     0.210 HD
ENDBRANCH   6  19
BRANCH   4  21
HETATM   21  O   UNK N   1      34.957  17.112  10.493  0.00  0.00    -0.388 OA
HETATM   22  H   UNK N   1      34.852  17.385  11.418  0.00  0.00     0.210 HD
ENDBRANCH   4  21
TORSDOF 9
ENDMDL
MODEL 9
REMARK VINA RESULT:      -5.2     15.152     16.845
REMARK  9 active torsions:
REMARK  status: ('A' for Active; 'I' for Inactive)
REMARK    1  A    between atoms: P_1  and  O_2 
REMARK    2  A    between atoms: P_1  and  O_3 
REMARK    3  A    between atoms: P_1  and  O_4 
REMARK    4  A    between atoms: O_2  and  C_11 
REMARK    5  A    between atoms: C_12  and  O_5 
REMARK    6  A    between atoms: C_14  and  O_6 
REMARK    7  A    between atoms: C_15  and  O_7 
REMARK    8  A    between atoms: C_16  and  O_8 
REMARK    9  A    between atoms: C_13  and  C_11 
ROOT
HETATM    1  O   UNK N   1      36.231  14.649   9.362  0.00  0.00    -0.349 OA
HETATM    2  C   UNK N   1      37.044  14.656  10.510  0.00  0.00     0.288 C 
HETATM    3  C   UNK N   1      35.014  15.278   9.698  0.00  0.00     0.180 C 
HETATM    4  C   UNK N   1      36.469  13.690  11.553  0.00  0.00     0.204 C 
HETATM    5  C   UNK N   1      34.230  14.390  10.674  0.00  0.00     0.180 C 
HETATM    6  C   UNK N   1      35.073  14.176  11.928  0.00  0.00     0.183 C 
ENDROOT
BRANCH   3   7
HETATM    7  C   UNK N   1      34.192  15.484   8.435  0.00  0.00     0.215 C 
BRANCH   7   8
HETATM    8  O   UNK N   1      34.880  16.289   7.522  0.00  0.00    -0.294 OA
BRANCH   8   9
HETATM    9  P   UNK N   1      33.636  17.185   6.694  0.00  0.00     0.390 P 
HETATM   10  O   UNK N   1      34.552  18.345   7.172  0.00  0.00    -0.632 OA
BRANCH   9  11
HETATM   11  O   UNK N   1      34.529  16.214   5.567  0.00  0.00    -0.307 OA
HETATM   12  H   UNK N   1      34.268  15.982   4.663  0.00  0.00     0.222 HD
ENDBRANCH   9  11
BRANCH   9  13
HETATM   13  O   UNK N   1      33.940  18.049   5.220  0.00  0.00    -0.307 OA
HETATM   14  H   UNK N   1      34.796  18.414   4.948  0.00  0.00     0.222 HD
ENDBRANCH   9  13
ENDBRANCH   8   9
ENDBRANCH   7   8
ENDBRANCH   3   7
BRANCH   5  15
HETATM   15  O   UNK N   1      33.028  15.007  11.027  0.00  0.00    -0.390 OA
HETATM   16  H   UNK N   1      32.587  14.906  11.885  0.00  0.00     0.210 HD
ENDBRANCH   5  15
BRANCH   2  17
HETATM   17  O   UNK N   1      38.336  14.258  10.162  0.00  0.00    -0.369 OA
HETATM   18  H   UNK N   1      38.935  14.844   9.674  0.00  0.00     0.212 HD
ENDBRANCH   2  17
BRANCH   6  19
HETATM   19  O   UNK N   1      34.452  13.253  12.773  0.00  0.00    -0.390 OA
HETATM   20  H   UNK N   1      33.520  12.990  12.707  0.00  0.00     0.210 HD
ENDBRANCH   6  19
BRANCH   4  21
HETATM   21  O   UNK N   1      37.278  13.667  12.690  0.00  0.00    -0.388 OA
HETATM   22  H   UNK N   1      37.866  12.951  12.977  0.00  0.00     0.210 HD
ENDBRANCH   4  21
TORSDOF 9
ENDMDL
