MODEL 1
REMARK VINA RESULT:      -4.3      0.000      0.000
REMARK  12 active torsions:
REMARK  status: ('A' for Active; 'I' for Inactive)
REMARK    1  A    between atoms: O_2  and  C_3 
REMARK    2  A    between atoms: C_3  and  C_4 
REMARK    3  A    between atoms: C_4  and  O_5 
REMARK    4  A    between atoms: O_5  and  C_6 
REMARK    5  A    between atoms: C_6  and  C_7 
REMARK    6  A    between atoms: C_7  and  O_8 
REMARK    7  A    between atoms: O_8  and  C_9 
REMARK    8  A    between atoms: C_9  and  C_10 
REMARK    9  A    between atoms: C_10  and  O_11 
REMARK   10  A    between atoms: O_11  and  C_12 
REMARK   11  A    between atoms: C_12  and  C_13 
REMARK   12  A    between atoms: C_13  and  O_14 
ROOT
HETATM    1  O   UNK N   1      34.423  14.683  11.886  0.00  0.00    -0.387 OA
ENDROOT
BRANCH   1   2
HETATM    2  C   UNK N   1      35.077  13.458  11.783  0.00  0.00     0.193 C 
BRANCH   2   3
HETATM    3  C   UNK N   1      35.660  13.120  13.138  0.00  0.00     0.193 C 
BRANCH   3   4
HETATM    4  O   UNK N   1      34.690  13.287  14.122  0.00  0.00    -0.387 OA
BRANCH   4   5
HETATM    5  C   UNK N   1      34.506  12.009  14.649  0.00  0.00     0.193 C 
BRANCH   5   6
HETATM    6  C   UNK N   1      34.914  12.012  16.106  0.00  0.00     0.193 C 
BRANCH   6   7
HETATM    7  O   UNK N   1      35.648  13.163  16.385  0.00  0.00    -0.394 OA
HETATM    8  C   UNK N   1      35.145  13.603  17.608  0.00  0.00     0.201 C 
ENDBRANCH   6   7
ENDBRANCH   5   6
ENDBRANCH   4   5
ENDBRANCH   3   4
ENDBRANCH   2   3
ENDBRANCH   1   2
BRANCH   1   9
HETATM    9  C   UNK N   1      34.493  15.260  10.619  0.00  0.00     0.193 C 
BRANCH   9  10
HETATM   10  C   UNK N   1      35.714  16.152  10.600  0.00  0.00     0.193 C 
BRANCH  10  11
HETATM   11  O   UNK N   1      35.396  17.441  10.180  0.00  0.00    -0.387 OA
BRANCH  11  12
HETATM   12  C   UNK N   1      34.445  17.213   9.187  0.00  0.00     0.193 C 
BRANCH  12  13
HETATM   13  C   UNK N   1      34.465  18.327   8.165  0.00  0.00     0.190 C 
BRANCH  13  14
HETATM   14  O   UNK N   1      35.381  19.295   8.572  0.00  0.00    -0.399 OA
HETATM   15  H   UNK N   1      35.203  20.234   8.400  0.00  0.00     0.209 HD
ENDBRANCH  13  14
ENDBRANCH  12  13
ENDBRANCH  11  12
ENDBRANCH  10  11
ENDBRANCH   9  10
ENDBRANCH   1   9
TORSDOF 12
ENDMDL
MODEL 2
REMARK VINA RESULT:      -4.1      1.383      2.261
REMARK  12 active torsions:
REMARK  status: ('A' for Active; 'I' for Inactive)
REMARK    1  A    between atoms: O_2  and  C_3 
REMARK    2  A    between atoms: C_3  and  C_4 
REMARK    3  A    between atoms: C_4  and  O_5 
REMARK    4  A    between atoms: O_5  and  C_6 
REMARK    5  A    between atoms: C_6  and  C_7 
REMARK    6  A    between atoms: C_7  and  O_8 
REMARK    7  A    between atoms: O_8  and  C_9 
REMARK    8  A    between atoms: C_9  and  C_10 
REMARK    9  A    between atoms: C_10  and  O_11 
REMARK   10  A    between atoms: O_11  and  C_12 
REMARK   11  A    between atoms: C_12  and  C_13 
REMARK   12  A    between atoms: C_13  and  O_14 
ROOT
HETATM    1  O   UNK N   1      34.642  14.299  11.878  0.00  0.00    -0.387 OA
ENDROOT
BRANCH   1   2
HETATM    2  C   UNK N   1      35.814  14.638  12.549  0.00  0.00     0.193 C 
BRANCH   2   3
HETATM    3  C   UNK N   1      35.908  13.781  13.794  0.00  0.00     0.193 C 
BRANCH   3   4
HETATM    4  O   UNK N   1      34.639  13.344  14.161  0.00  0.00    -0.387 OA
BRANCH   4   5
HETATM    5  C   UNK N   1      34.828  12.018  14.549  0.00  0.00     0.193 C 
BRANCH   5   6
HETATM    6  C   UNK N   1      34.368  11.106  13.432  0.00  0.00     0.193 C 
BRANCH   6   7
HETATM    7  O   UNK N   1      35.222  10.009  13.342  0.00  0.00    -0.394 OA
HETATM    8  C   UNK N   1      36.092  10.335  12.303  0.00  0.00     0.201 C 
ENDBRANCH   6   7
ENDBRANCH   5   6
ENDBRANCH   4   5
ENDBRANCH   3   4
ENDBRANCH   2   3
ENDBRANCH   1   2
BRANCH   1   9
HETATM    9  C   UNK N   1      34.401  15.338  10.981  0.00  0.00     0.193 C 
BRANCH   9  10
HETATM   10  C   UNK N   1      35.677  16.143  10.876  0.00  0.00     0.193 C 
BRANCH  10  11
HETATM   11  O   UNK N   1      35.451  17.377  10.272  0.00  0.00    -0.387 OA
BRANCH  11  12
HETATM   12  C   UNK N   1      34.798  17.025   9.091  0.00  0.00     0.193 C 
BRANCH  12  13
HETATM   13  C   UNK N   1      34.427  18.257   8.299  0.00  0.00     0.190 C 
BRANCH  13  14
HETATM   14  O   UNK N   1      35.368  19.255   8.552  0.00  0.00    -0.399 OA
HETATM   15  H   UNK N   1      35.144  19.995   9.138  0.00  0.00     0.209 HD
ENDBRANCH  13  14
ENDBRANCH  12  13
ENDBRANCH  11  12
ENDBRANCH  10  11
ENDBRANCH   9  10
ENDBRANCH   1   9
TORSDOF 12
ENDMDL
MODEL 3
REMARK VINA RESULT:      -4.0      4.512      7.396
REMARK  12 active torsions:
REMARK  status: ('A' for Active; 'I' for Inactive)
REMARK    1  A    between atoms: O_2  and  C_3 
REMARK    2  A    between atoms: C_3  and  C_4 
REMARK    3  A    between atoms: C_4  and  O_5 
REMARK    4  A    between atoms: O_5  and  C_6 
REMARK    5  A    between atoms: C_6  and  C_7 
REMARK    6  A    between atoms: C_7  and  O_8 
REMARK    7  A    between atoms: O_8  and  C_9 
REMARK    8  A    between atoms: C_9  and  C_10 
REMARK    9  A    between atoms: C_10  and  O_11 
REMARK   10  A    between atoms: O_11  and  C_12 
REMARK   11  A    between atoms: C_12  and  C_13 
REMARK   12  A    between atoms: C_13  and  O_14 
ROOT
HETATM    1  O   UNK N   1      31.888  15.652   5.784  0.00  0.00    -0.387 OA
ENDROOT
BRANCH   1   2
HETATM    2  C   UNK N   1      33.204  16.025   6.043  0.00  0.00     0.193 C 
BRANCH   2   3
HETATM    3  C   UNK N   1      33.183  17.163   7.042  0.00  0.00     0.193 C 
BRANCH   3   4
HETATM    4  O   UNK N   1      34.315  17.955   6.874  0.00  0.00    -0.387 OA
BRANCH   4   5
HETATM    5  C   UNK N   1      34.594  18.437   8.152  0.00  0.00     0.193 C 
BRANCH   5   6
HETATM    6  C   UNK N   1      34.650  17.274   9.118  0.00  0.00     0.193 C 
BRANCH   6   7
HETATM    7  O   UNK N   1      35.488  17.590  10.185  0.00  0.00    -0.394 OA
HETATM    8  C   UNK N   1      35.548  16.416  10.934  0.00  0.00     0.201 C 
ENDBRANCH   6   7
ENDBRANCH   5   6
ENDBRANCH   4   5
ENDBRANCH   3   4
ENDBRANCH   2   3
ENDBRANCH   1   2
BRANCH   1   9
HETATM    9  C   UNK N   1      31.145  16.087   6.880  0.00  0.00     0.193 C 
BRANCH   9  10
HETATM   10  C   UNK N   1      29.751  16.398   6.381  0.00  0.00     0.193 C 
BRANCH  10  11
HETATM   11  O   UNK N   1      29.453  17.751   6.515  0.00  0.00    -0.387 OA
BRANCH  11  12
HETATM   12  C   UNK N   1      28.250  17.730   7.220  0.00  0.00     0.193 C 
BRANCH  12  13
HETATM   13  C   UNK N   1      28.326  18.634   8.430  0.00  0.00     0.190 C 
BRANCH  13  14
HETATM   14  O   UNK N   1      27.467  18.143   9.413  0.00  0.00    -0.399 OA
HETATM   15  H   UNK N   1      26.516  18.332   9.364  0.00  0.00     0.209 HD
ENDBRANCH  13  14
ENDBRANCH  12  13
ENDBRANCH  11  12
ENDBRANCH  10  11
ENDBRANCH   9  10
ENDBRANCH   1   9
TORSDOF 12
ENDMDL
MODEL 4
REMARK VINA RESULT:      -4.0      1.644      6.821
REMARK  12 active torsions:
REMARK  status: ('A' for Active; 'I' for Inactive)
REMARK    1  A    between atoms: O_2  and  C_3 
REMARK    2  A    between atoms: C_3  and  C_4 
REMARK    3  A    between atoms: C_4  and  O_5 
REMARK    4  A    between atoms: O_5  and  C_6 
REMARK    5  A    between atoms: C_6  and  C_7 
REMARK    6  A    between atoms: C_7  and  O_8 
REMARK    7  A    between atoms: O_8  and  C_9 
REMARK    8  A    between atoms: C_9  and  C_10 
REMARK    9  A    between atoms: C_10  and  O_11 
REMARK   10  A    between atoms: O_11  and  C_12 
REMARK   11  A    between atoms: C_12  and  C_13 
REMARK   12  A    between atoms: C_13  and  O_14 
ROOT
HETATM    1  O   UNK N   1      35.945  13.942  10.599  0.00  0.00    -0.387 OA
ENDROOT
BRANCH   1   2
HETATM    2  C   UNK N   1      35.835  15.133   9.887  0.00  0.00     0.193 C 
BRANCH   2   3
HETATM    3  C   UNK N   1      35.815  16.276  10.879  0.00  0.00     0.193 C 
BRANCH   3   4
HETATM    4  O   UNK N   1      35.498  17.462  10.224  0.00  0.00    -0.387 OA
BRANCH   4   5
HETATM    5  C   UNK N   1      34.673  17.067   9.171  0.00  0.00     0.193 C 
BRANCH   5   6
HETATM    6  C   UNK N   1      34.491  18.232   8.223  0.00  0.00     0.193 C 
BRANCH   6   7
HETATM    7  O   UNK N   1      33.142  18.576   8.156  0.00  0.00    -0.394 OA
HETATM    8  C   UNK N   1      32.474  17.353   8.186  0.00  0.00     0.201 C 
ENDBRANCH   6   7
ENDBRANCH   5   6
ENDBRANCH   4   5
ENDBRANCH   3   4
ENDBRANCH   2   3
ENDBRANCH   1   2
BRANCH   1   9
HETATM    9  C   UNK N   1      34.811  13.875  11.407  0.00  0.00     0.193 C 
BRANCH   9  10
HETATM   10  C   UNK N   1      35.144  12.972  12.573  0.00  0.00     0.193 C 
BRANCH  10  11
HETATM   11  O   UNK N   1      35.017  13.641  13.787  0.00  0.00    -0.387 OA
BRANCH  11  12
HETATM   12  C   UNK N   1      36.007  13.047  14.569  0.00  0.00     0.193 C 
BRANCH  12  13
HETATM   13  C   UNK N   1      36.815  14.098  15.294  0.00  0.00     0.190 C 
BRANCH  13  14
HETATM   14  O   UNK N   1      37.036  15.170  14.432  0.00  0.00    -0.399 OA
HETATM   15  H   UNK N   1      37.544  15.940  14.736  0.00  0.00     0.209 HD
ENDBRANCH  13  14
ENDBRANCH  12  13
ENDBRANCH  11  12
ENDBRANCH  10  11
ENDBRANCH   9  10
ENDBRANCH   1   9
TORSDOF 12
ENDMDL
MODEL 5
REMARK VINA RESULT:      -3.8     11.406     13.966
REMARK  12 active torsions:
REMARK  status: ('A' for Active; 'I' for Inactive)
REMARK    1  A    between atoms: O_2  and  C_3 
REMARK    2  A    between atoms: C_3  and  C_4 
REMARK    3  A    between atoms: C_4  and  O_5 
REMARK    4  A    between atoms: O_5  and  C_6 
REMARK    5  A    between atoms: C_6  and  C_7 
REMARK    6  A    between atoms: C_7  and  O_8 
REMARK    7  A    between atoms: O_8  and  C_9 
REMARK    8  A    between atoms: C_9  and  C_10 
REMARK    9  A    between atoms: C_10  and  O_11 
REMARK   10  A    between atoms: O_11  and  C_12 
REMARK   11  A    between atoms: C_12  and  C_13 
REMARK   12  A    between atoms: C_13  and  O_14 
ROOT
HETATM    1  O   UNK N   1      24.906  19.248   3.372  0.00  0.00    -0.387 OA
ENDROOT
BRANCH   1   2
HETATM    2  C   UNK N   1      25.195  19.176   4.731  0.00  0.00     0.193 C 
BRANCH   2   3
HETATM    3  C   UNK N   1      26.463  18.365   4.901  0.00  0.00     0.193 C 
BRANCH   3   4
HETATM    4  O   UNK N   1      27.175  18.832   6.002  0.00  0.00    -0.387 OA
BRANCH   4   5
HETATM    5  C   UNK N   1      28.454  18.303   5.838  0.00  0.00     0.193 C 
BRANCH   5   6
HETATM    6  C   UNK N   1      28.918  17.717   7.154  0.00  0.00     0.193 C 
BRANCH   6   7
HETATM    7  O   UNK N   1      27.813  17.382   7.934  0.00  0.00    -0.394 OA
HETATM    8  C   UNK N   1      28.172  17.774   9.222  0.00  0.00     0.201 C 
ENDBRANCH   6   7
ENDBRANCH   5   6
ENDBRANCH   4   5
ENDBRANCH   3   4
ENDBRANCH   2   3
ENDBRANCH   1   2
BRANCH   1   9
HETATM    9  C   UNK N   1      24.306  20.490   3.173  0.00  0.00     0.193 C 
BRANCH   9  10
HETATM   10  C   UNK N   1      22.839  20.241   2.906  0.00  0.00     0.193 C 
BRANCH  10  11
HETATM   11  O   UNK N   1      22.139  21.435   2.757  0.00  0.00    -0.387 OA
BRANCH  11  12
HETATM   12  C   UNK N   1      20.881  21.003   2.341  0.00  0.00     0.193 C 
BRANCH  12  13
HETATM   13  C   UNK N   1      20.997  20.120   1.120  0.00  0.00     0.190 C 
BRANCH  13  14
HETATM   14  O   UNK N   1      20.774  20.894  -0.018  0.00  0.00    -0.399 OA
HETATM   15  H   UNK N   1      21.136  20.614  -0.874  0.00  0.00     0.209 HD
ENDBRANCH  13  14
ENDBRANCH  12  13
ENDBRANCH  11  12
ENDBRANCH  10  11
ENDBRANCH   9  10
ENDBRANCH   1   9
TORSDOF 12
ENDMDL
MODEL 6
REMARK VINA RESULT:      -3.8      1.643      7.587
REMARK  12 active torsions:
REMARK  status: ('A' for Active; 'I' for Inactive)
REMARK    1  A    between atoms: O_2  and  C_3 
REMARK    2  A    between atoms: C_3  and  C_4 
REMARK    3  A    between atoms: C_4  and  O_5 
REMARK    4  A    between atoms: O_5  and  C_6 
REMARK    5  A    between atoms: C_6  and  C_7 
REMARK    6  A    between atoms: C_7  and  O_8 
REMARK    7  A    between atoms: O_8  and  C_9 
REMARK    8  A    between atoms: C_9  and  C_10 
REMARK    9  A    between atoms: C_10  and  O_11 
REMARK   10  A    between atoms: O_11  and  C_12 
REMARK   11  A    between atoms: C_12  and  C_13 
REMARK   12  A    between atoms: C_13  and  O_14 
ROOT
HETATM    1  O   UNK N   1      35.851  15.284  12.578  0.00  0.00    -0.387 OA
ENDROOT
BRANCH   1   2
HETATM    2  C   UNK N   1      36.195  15.573  11.261  0.00  0.00     0.193 C 
BRANCH   2   3
HETATM    3  C   UNK N   1      34.923  15.872  10.496  0.00  0.00     0.193 C 
BRANCH   3   4
HETATM    4  O   UNK N   1      34.935  17.194  10.063  0.00  0.00    -0.387 OA
BRANCH   4   5
HETATM    5  C   UNK N   1      34.041  17.218   8.994  0.00  0.00     0.193 C 
BRANCH   5   6
HETATM    6  C   UNK N   1      34.340  18.422   8.127  0.00  0.00     0.193 C 
BRANCH   6   7
HETATM    7  O   UNK N   1      34.583  18.009   6.819  0.00  0.00    -0.394 OA
HETATM    8  C   UNK N   1      33.868  16.820   6.695  0.00  0.00     0.201 C 
ENDBRANCH   6   7
ENDBRANCH   5   6
ENDBRANCH   4   5
ENDBRANCH   3   4
ENDBRANCH   2   3
ENDBRANCH   1   2
BRANCH   1   9
HETATM    9  C   UNK N   1      35.965  13.901  12.709  0.00  0.00     0.193 C 
BRANCH   9  10
HETATM   10  C   UNK N   1      35.757  13.571  14.170  0.00  0.00     0.193 C 
BRANCH  10  11
HETATM   11  O   UNK N   1      34.514  12.984  14.386  0.00  0.00    -0.387 OA
BRANCH  11  12
HETATM   12  C   UNK N   1      34.595  11.809  13.639  0.00  0.00     0.193 C 
BRANCH  12  13
HETATM   13  C   UNK N   1      33.728  10.731  14.246  0.00  0.00     0.190 C 
BRANCH  13  14
HETATM   14  O   UNK N   1      34.186  10.456  15.533  0.00  0.00    -0.399 OA
HETATM   15  H   UNK N   1      33.555  10.385  16.268  0.00  0.00     0.209 HD
ENDBRANCH  13  14
ENDBRANCH  12  13
ENDBRANCH  11  12
ENDBRANCH  10  11
ENDBRANCH   9  10
ENDBRANCH   1   9
TORSDOF 12
ENDMDL
MODEL 7
REMARK VINA RESULT:      -3.6      3.920      7.816
REMARK  12 active torsions:
REMARK  status: ('A' for Active; 'I' for Inactive)
REMARK    1  A    between atoms: O_2  and  C_3 
REMARK    2  A    between atoms: C_3  and  C_4 
REMARK    3  A    between atoms: C_4  and  O_5 
REMARK    4  A    between atoms: O_5  and  C_6 
REMARK    5  A    between atoms: C_6  and  C_7 
REMARK    6  A    between atoms: C_7  and  O_8 
REMARK    7  A    between atoms: O_8  and  C_9 
REMARK    8  A    between atoms: C_9  and  C_10 
REMARK    9  A    between atoms: C_10  and  O_11 
REMARK   10  A    between atoms: O_11  and  C_12 
REMARK   11  A    between atoms: C_12  and  C_13 
REMARK   12  A    between atoms: C_13  and  O_14 
ROOT
HETATM    1  O   UNK N   1      33.293  18.163   7.539  0.00  0.00    -0.387 OA
ENDROOT
BRANCH   1   2
HETATM    2  C   UNK N   1      32.394  17.633   8.460  0.00  0.00     0.193 C 
BRANCH   2   3
HETATM    3  C   UNK N   1      31.347  16.847   7.699  0.00  0.00     0.193 C 
BRANCH   3   4
HETATM    4  O   UNK N   1      31.701  15.501   7.669  0.00  0.00    -0.387 OA
BRANCH   4   5
HETATM    5  C   UNK N   1      31.344  15.077   6.390  0.00  0.00     0.193 C 
BRANCH   5   6
HETATM    6  C   UNK N   1      30.326  16.039   5.816  0.00  0.00     0.193 C 
BRANCH   6   7
HETATM    7  O   UNK N   1      29.414  15.341   5.026  0.00  0.00    -0.394 OA
HETATM    8  C   UNK N   1      28.194  15.515   5.677  0.00  0.00     0.201 C 
ENDBRANCH   6   7
ENDBRANCH   5   6
ENDBRANCH   4   5
ENDBRANCH   3   4
ENDBRANCH   2   3
ENDBRANCH   1   2
BRANCH   1   9
HETATM    9  C   UNK N   1      34.511  18.263   8.208  0.00  0.00     0.193 C 
BRANCH   9  10
HETATM   10  C   UNK N   1      34.535  17.176   9.259  0.00  0.00     0.193 C 
BRANCH  10  11
HETATM   11  O   UNK N   1      35.510  17.421  10.221  0.00  0.00    -0.387 OA
BRANCH  11  12
HETATM   12  C   UNK N   1      35.409  16.305  11.051  0.00  0.00     0.193 C 
BRANCH  12  13
HETATM   13  C   UNK N   1      34.446  15.295  10.470  0.00  0.00     0.190 C 
BRANCH  13  14
HETATM   14  O   UNK N   1      33.866  14.575  11.513  0.00  0.00    -0.399 OA
HETATM   15  H   UNK N   1      32.944  14.744  11.766  0.00  0.00     0.209 HD
ENDBRANCH  13  14
ENDBRANCH  12  13
ENDBRANCH  11  12
ENDBRANCH  10  11
ENDBRANCH   9  10
ENDBRANCH   1   9
TORSDOF 12
ENDMDL
MODEL 8
REMARK VINA RESULT:      -3.6     13.286     16.421
REMARK  12 active torsions:
REMARK  status: ('A' for Active; 'I' for Inactive)
REMARK    1  A    between atoms: O_2  and  C_3 
REMARK    2  A    between atoms: C_3  and  C_4 
REMARK    3  A    between atoms: C_4  and  O_5 
REMARK    4  A    between atoms: O_5  and  C_6 
REMARK    5  A    between atoms: C_6  and  C_7 
REMARK    6  A    between atoms: C_7  and  O_8 
REMARK    7  A    between atoms: O_8  and  C_9 
REMARK    8  A    between atoms: C_9  and  C_10 
REMARK    9  A    between atoms: C_10  and  O_11 
REMARK   10  A    between atoms: O_11  and  C_12 
REMARK   11  A    between atoms: C_12  and  C_13 
REMARK   12  A    between atoms: C_13  and  O_14 
ROOT
HETATM    1  O   UNK N   1      22.260  21.330   2.712  0.00  0.00    -0.387 OA
ENDROOT
BRANCH   1   2
HETATM    2  C   UNK N   1      21.039  20.861   2.235  0.00  0.00     0.193 C 
BRANCH   2   3
HETATM    3  C   UNK N   1      20.406  20.011   3.316  0.00  0.00     0.193 C 
BRANCH   3   4
HETATM    4  O   UNK N   1      19.299  19.344   2.801  0.00  0.00    -0.387 OA
BRANCH   4   5
HETATM    5  C   UNK N   1      19.820  18.168   2.264  0.00  0.00     0.193 C 
BRANCH   5   6
HETATM    6  C   UNK N   1      20.421  17.339   3.379  0.00  0.00     0.193 C 
BRANCH   6   7
HETATM    7  O   UNK N   1      21.558  16.682   2.915  0.00  0.00    -0.394 OA
HETATM    8  C   UNK N   1      22.391  16.607   4.030  0.00  0.00     0.201 C 
ENDBRANCH   6   7
ENDBRANCH   5   6
ENDBRANCH   4   5
ENDBRANCH   3   4
ENDBRANCH   2   3
ENDBRANCH   1   2
BRANCH   1   9
HETATM    9  C   UNK N   1      23.019  20.197   2.998  0.00  0.00     0.193 C 
BRANCH   9  10
HETATM   10  C   UNK N   1      24.473  20.607   2.947  0.00  0.00     0.193 C 
BRANCH  10  11
HETATM   11  O   UNK N   1      25.187  20.085   4.021  0.00  0.00    -0.387 OA
BRANCH  11  12
HETATM   12  C   UNK N   1      26.511  20.236   3.611  0.00  0.00     0.193 C 
BRANCH  12  13
HETATM   13  C   UNK N   1      27.423  20.405   4.804  0.00  0.00     0.190 C 
BRANCH  13  14
HETATM   14  O   UNK N   1      26.864  21.343   5.669  0.00  0.00    -0.399 OA
HETATM   15  H   UNK N   1      27.165  21.394   6.591  0.00  0.00     0.209 HD
ENDBRANCH  13  14
ENDBRANCH  12  13
ENDBRANCH  11  12
ENDBRANCH  10  11
ENDBRANCH   9  10
ENDBRANCH   1   9
TORSDOF 12
ENDMDL
MODEL 9
REMARK VINA RESULT:      -3.6      3.568      4.668
REMARK  12 active torsions:
REMARK  status: ('A' for Active; 'I' for Inactive)
REMARK    1  A    between atoms: O_2  and  C_3 
REMARK    2  A    between atoms: C_3  and  C_4 
REMARK    3  A    between atoms: C_4  and  O_5 
REMARK    4  A    between atoms: O_5  and  C_6 
REMARK    5  A    between atoms: C_6  and  C_7 
REMARK    6  A    between atoms: C_7  and  O_8 
REMARK    7  A    between atoms: O_8  and  C_9 
REMARK    8  A    between atoms: C_9  and  C_10 
REMARK    9  A    between atoms: C_10  and  O_11 
REMARK   10  A    between atoms: O_11  and  C_12 
REMARK   11  A    between atoms: C_12  and  C_13 
REMARK   12  A    between atoms: C_13  and  O_14 
ROOT
HETATM    1  O   UNK N   1      33.688  17.037   9.206  0.00  0.00    -0.387 OA
ENDROOT
BRANCH   1   2
HETATM    2  C   UNK N   1      34.529  15.933   9.111  0.00  0.00     0.193 C 
BRANCH   2   3
HETATM    3  C   UNK N   1      33.911  14.799   9.900  0.00  0.00     0.193 C 
BRANCH   3   4
HETATM    4  O   UNK N   1      33.939  15.102  11.258  0.00  0.00    -0.387 OA
BRANCH   4   5
HETATM    5  C   UNK N   1      35.231  14.768  11.662  0.00  0.00     0.193 C 
BRANCH   5   6
HETATM    6  C   UNK N   1      35.241  13.335  12.149  0.00  0.00     0.193 C 
BRANCH   6   7
HETATM    7  O   UNK N   1      34.568  13.249  13.367  0.00  0.00    -0.394 OA
HETATM    8  C   UNK N   1      35.571  13.391  14.324  0.00  0.00     0.201 C 
ENDBRANCH   6   7
ENDBRANCH   5   6
ENDBRANCH   4   5
ENDBRANCH   3   4
ENDBRANCH   2   3
ENDBRANCH   1   2
BRANCH   1   9
HETATM    9  C   UNK N   1      32.726  16.872   8.211  0.00  0.00     0.193 C 
BRANCH   9  10
HETATM   10  C   UNK N   1      31.672  17.934   8.428  0.00  0.00     0.193 C 
BRANCH  10  11
HETATM   11  O   UNK N   1      30.469  17.588   7.818  0.00  0.00    -0.387 OA
BRANCH  11  12
HETATM   12  C   UNK N   1      29.628  17.362   8.907  0.00  0.00     0.193 C 
BRANCH  12  13
HETATM   13  C   UNK N   1      28.178  17.437   8.486  0.00  0.00     0.190 C 
BRANCH  13  14
HETATM   14  O   UNK N   1      27.470  18.170   9.437  0.00  0.00    -0.399 OA
HETATM   15  H   UNK N   1      26.782  17.738   9.968  0.00  0.00     0.209 HD
ENDBRANCH  13  14
ENDBRANCH  12  13
ENDBRANCH  11  12
ENDBRANCH  10  11
ENDBRANCH   9  10
ENDBRANCH   1   9
TORSDOF 12
ENDMDL
