MODEL 1
REMARK VINA RESULT:      -6.8      0.000      0.000
REMARK  18 active torsions:
REMARK  status: ('A' for Active; 'I' for Inactive)
REMARK    1  A    between atoms: C_3  and  C_1 
REMARK    2  A    between atoms: O_31  and  C_1 
REMARK    3  A    between atoms: C_5  and  O_19 
REMARK    4  A    between atoms: C_6  and  O_33 
REMARK    5  A    between atoms: O_20  and  C_8 
REMARK    6  A    between atoms: C_9  and  N_18 
REMARK       I    between atoms: N_11  and  C_10 
REMARK    7  A    between atoms: P_36  and  O_21 
REMARK    8  A    between atoms: P_36  and  O_22 
REMARK    9  A    between atoms: P_37  and  O_24 
REMARK   10  A    between atoms: P_37  and  O_25 
REMARK   11  A    between atoms: P_38  and  O_27 
REMARK   12  A    between atoms: P_39  and  O_29 
REMARK   13  A    between atoms: P_38  and  O_31 
REMARK   14  A    between atoms: P_39  and  O_33 
REMARK   15  A    between atoms: P_36  and  O_34 
REMARK   16  A    between atoms: P_38  and  O_34 
REMARK   17  A    between atoms: P_37  and  O_35 
REMARK   18  A    between atoms: P_39  and  O_35 
ROOT
HETATM    1  C   UNK N   1      33.922  15.695   7.176  0.00  0.00     0.180 C 
HETATM    2  C   UNK N   1      33.190  17.252   8.700  0.00  0.00     0.199 C 
HETATM    3  C   UNK N   1      34.391  16.368   8.488  0.00  0.00     0.197 C 
HETATM    4  C   UNK N   1      32.081  16.268   8.367  0.00  0.00     0.262 C 
HETATM    5  O   UNK N   1      32.512  15.538   7.237  0.00  0.00    -0.353 OA
ENDROOT
BRANCH   4   6
HETATM    6  N   UNK N   1      30.827  16.984   8.127  0.00  0.00    -0.297 N 
HETATM    7  C   UNK N   1      29.927  17.443   9.037  0.00  0.00     0.188 A 
HETATM    8  N   UNK N   1      28.856  18.022   8.421  0.00  0.00    -0.346 N 
HETATM    9  C   UNK N   1      29.124  17.906   7.105  0.00  0.00     0.130 A 
ATOM     10  HN  UNK N   1      28.038  18.446   8.858  1.00  0.00     0.167 HD
HETATM   11  C   UNK N   1      30.307  17.292   6.936  0.00  0.00     0.157 A 
HETATM   12  C   UNK N   1      28.383  18.297   6.002  0.00  0.00     0.186 A 
HETATM   13  N   UNK N   1      30.830  17.034   5.713  0.00  0.00    -0.174 N 
HETATM   14  C   UNK N   1      30.113  17.417   4.614  0.00  0.00     0.679 A 
HETATM   15  H   UNK N   1      31.700  16.583   5.618  0.00  0.00     0.186 HD
HETATM   16  N   UNK N   1      30.575  17.187   3.444  0.00  0.00    -0.234 N 
HETATM   17  N   UNK N   1      28.898  18.042   4.760  0.00  0.00    -0.168 N 
HETATM   18  H   UNK N   1      31.420  16.697   3.318  0.00  0.00     0.174 HD
ATOM     19  HN  UNK N   1      30.061  17.517   2.627  1.00  0.00     0.174 HD
ATOM     20  HN  UNK N   1      28.373  18.319   3.931  1.00  0.00     0.186 HD
BRANCH  12  21
HETATM   21  O   UNK N   1      27.190  18.899   6.138  0.00  0.00    -0.344 OA
HETATM   22  H   UNK N   1      27.098  19.715   6.589  0.00  0.00     0.219 HD
ENDBRANCH  12  21
ENDBRANCH   4   6
BRANCH   2  23
HETATM   23  O   UNK N   1      33.207  18.298   7.767  0.00  0.00    -0.388 OA
HETATM   24  H   UNK N   1      33.595  19.000   7.222  0.00  0.00     0.210 HD
ENDBRANCH   2  23
BRANCH   3  25
HETATM   25  O   UNK N   1      34.505  15.398   9.517  0.00  0.00    -0.286 OA
BRANCH  25  26
HETATM   26  P   UNK N   1      35.787  15.821  10.659  0.00  0.00     0.402 P 
HETATM   27  O   UNK N   1      35.874  17.368  10.578  0.00  0.00    -0.631 OA
BRANCH  26  28
HETATM   28  O   UNK N   1      37.376  15.306  10.186  0.00  0.00    -0.307 OA
HETATM   29  H   UNK N   1      37.697  14.423   9.946  0.00  0.00     0.222 HD
ENDBRANCH  26  28
BRANCH  26  30
HETATM   30  O   UNK N   1      35.556  15.491  12.361  0.00  0.00    -0.195 OA
BRANCH  30  31
HETATM   31  P   UNK N   1      35.461  13.774  12.600  0.00  0.00     0.399 P 
HETATM   32  O   UNK N   1      36.888  13.177  12.466  0.00  0.00    -0.631 OA
BRANCH  31  33
HETATM   33  O   UNK N   1      34.416  13.009  11.449  0.00  0.00    -0.307 OA
HETATM   34  H   UNK N   1      33.490  13.038  11.166  0.00  0.00     0.222 HD
ENDBRANCH  31  33
BRANCH  31  35
HETATM   35  O   UNK N   1      34.940  13.433  14.219  0.00  0.00    -0.307 OA
HETATM   36  H   UNK N   1      34.733  14.158  14.830  0.00  0.00     0.222 HD
ENDBRANCH  31  35
ENDBRANCH  30  31
ENDBRANCH  26  30
ENDBRANCH  25  26
ENDBRANCH   3  25
BRANCH   1  37
HETATM   37  C   UNK N   1      34.565  14.338   6.916  0.00  0.00     0.215 C 
BRANCH  37  38
HETATM   38  O   UNK N   1      33.641  13.372   6.511  0.00  0.00    -0.294 OA
BRANCH  38  39
HETATM   39  P   UNK N   1      33.494  12.329   7.901  0.00  0.00     0.401 P 
HETATM   40  O   UNK N   1      34.892  12.154   8.556  0.00  0.00    -0.631 OA
BRANCH  39  41
HETATM   41  O   UNK N   1      32.505  13.087   9.112  0.00  0.00    -0.307 OA
HETATM   42  H   UNK N   1      31.551  12.917   9.140  0.00  0.00     0.222 HD
ENDBRANCH  39  41
BRANCH  39  43
HETATM   43  O   UNK N   1      32.801  10.767   7.517  0.00  0.00    -0.195 OA
BRANCH  43  44
HETATM   44  P   UNK N   1      32.664   9.752   8.944  0.00  0.00     0.399 P 
HETATM   45  O   UNK N   1      33.658   8.561   8.922  0.00  0.00    -0.631 OA
BRANCH  44  46
HETATM   46  O   UNK N   1      31.075   9.066   9.065  0.00  0.00    -0.307 OA
HETATM   47  H   UNK N   1      30.462   8.551   9.612  0.00  0.00     0.222 HD
ENDBRANCH  44  46
BRANCH  44  48
HETATM   48  O   UNK N   1      33.018  10.662  10.377  0.00  0.00    -0.307 OA
HETATM   49  H   UNK N   1      32.510  10.649  11.204  0.00  0.00     0.222 HD
ENDBRANCH  44  48
ENDBRANCH  43  44
ENDBRANCH  39  43
ENDBRANCH  38  39
ENDBRANCH  37  38
ENDBRANCH   1  37
TORSDOF 18
ENDMDL
MODEL 2
REMARK VINA RESULT:      -6.7      1.797      3.322
REMARK  18 active torsions:
REMARK  status: ('A' for Active; 'I' for Inactive)
REMARK    1  A    between atoms: C_3  and  C_1 
REMARK    2  A    between atoms: O_31  and  C_1 
REMARK    3  A    between atoms: C_5  and  O_19 
REMARK    4  A    between atoms: C_6  and  O_33 
REMARK    5  A    between atoms: O_20  and  C_8 
REMARK    6  A    between atoms: C_9  and  N_18 
REMARK       I    between atoms: N_11  and  C_10 
REMARK    7  A    between atoms: P_36  and  O_21 
REMARK    8  A    between atoms: P_36  and  O_22 
REMARK    9  A    between atoms: P_37  and  O_24 
REMARK   10  A    between atoms: P_37  and  O_25 
REMARK   11  A    between atoms: P_38  and  O_27 
REMARK   12  A    between atoms: P_39  and  O_29 
REMARK   13  A    between atoms: P_38  and  O_31 
REMARK   14  A    between atoms: P_39  and  O_33 
REMARK   15  A    between atoms: P_36  and  O_34 
REMARK   16  A    between atoms: P_38  and  O_34 
REMARK   17  A    between atoms: P_37  and  O_35 
REMARK   18  A    between atoms: P_39  and  O_35 
ROOT
HETATM    1  C   UNK N   1      33.390  15.507   7.472  0.00  0.00     0.180 C 
HETATM    2  C   UNK N   1      33.044  17.328   8.831  0.00  0.00     0.199 C 
HETATM    3  C   UNK N   1      34.102  16.280   8.609  0.00  0.00     0.197 C 
HETATM    4  C   UNK N   1      31.799  16.457   8.777  0.00  0.00     0.262 C 
HETATM    5  O   UNK N   1      31.992  15.539   7.722  0.00  0.00    -0.353 OA
ENDROOT
BRANCH   4   6
HETATM    6  N   UNK N   1      30.610  17.289   8.587  0.00  0.00    -0.297 N 
HETATM    7  C   UNK N   1      29.849  17.907   9.528  0.00  0.00     0.188 A 
HETATM    8  N   UNK N   1      28.792  18.556   8.960  0.00  0.00    -0.346 N 
HETATM    9  C   UNK N   1      28.926  18.320   7.639  0.00  0.00     0.130 A 
ATOM     10  HN  UNK N   1      28.066  19.098   9.428  1.00  0.00     0.167 HD
HETATM   11  C   UNK N   1      30.018  17.568   7.422  0.00  0.00     0.157 A 
HETATM   12  C   UNK N   1      28.132  18.711   6.574  0.00  0.00     0.186 A 
HETATM   13  N   UNK N   1      30.398  17.168   6.184  0.00  0.00    -0.174 N 
HETATM   14  C   UNK N   1      29.628  17.551   5.122  0.00  0.00     0.679 A 
HETATM   15  H   UNK N   1      31.204  16.618   6.053  0.00  0.00     0.186 HD
HETATM   16  N   UNK N   1      29.954  17.189   3.939  0.00  0.00    -0.234 N 
HETATM   17  N   UNK N   1      28.502  18.314   5.317  0.00  0.00    -0.168 N 
HETATM   18  H   UNK N   1      30.728  16.601   3.783  0.00  0.00     0.174 HD
ATOM     19  HN  UNK N   1      29.405  17.516   3.144  1.00  0.00     0.174 HD
ATOM     20  HN  UNK N   1      27.935  18.589   4.516  1.00  0.00     0.186 HD
BRANCH  12  21
HETATM   21  O   UNK N   1      27.025  19.450   6.761  0.00  0.00    -0.344 OA
HETATM   22  H   UNK N   1      27.010  20.369   6.581  0.00  0.00     0.219 HD
ENDBRANCH  12  21
ENDBRANCH   4   6
BRANCH   2  23
HETATM   23  O   UNK N   1      33.048  18.234   7.761  0.00  0.00    -0.388 OA
HETATM   24  H   UNK N   1      33.432  18.779   7.057  0.00  0.00     0.210 HD
ENDBRANCH   2  23
BRANCH   3  25
HETATM   25  O   UNK N   1      34.247  15.445   9.747  0.00  0.00    -0.286 OA
BRANCH  25  26
HETATM   26  P   UNK N   1      35.674  15.890  10.691  0.00  0.00     0.402 P 
HETATM   27  O   UNK N   1      35.813  17.419  10.474  0.00  0.00    -0.631 OA
BRANCH  26  28
HETATM   28  O   UNK N   1      37.172  15.261  10.080  0.00  0.00    -0.307 OA
HETATM   29  H   UNK N   1      37.444  14.343   9.927  0.00  0.00     0.222 HD
ENDBRANCH  26  28
BRANCH  26  30
HETATM   30  O   UNK N   1      35.636  15.704  12.431  0.00  0.00    -0.195 OA
BRANCH  30  31
HETATM   31  P   UNK N   1      35.711  14.015  12.825  0.00  0.00     0.399 P 
HETATM   32  O   UNK N   1      35.401  13.845  14.336  0.00  0.00    -0.631 OA
BRANCH  31  33
HETATM   33  O   UNK N   1      37.267  13.332  12.485  0.00  0.00    -0.307 OA
HETATM   34  H   UNK N   1      38.195  13.607  12.437  0.00  0.00     0.222 HD
ENDBRANCH  31  33
BRANCH  31  35
HETATM   35  O   UNK N   1      34.468  13.156  11.972  0.00  0.00    -0.307 OA
HETATM   36  H   UNK N   1      33.544  13.219  12.261  0.00  0.00     0.222 HD
ENDBRANCH  31  35
ENDBRANCH  30  31
ENDBRANCH  26  30
ENDBRANCH  25  26
ENDBRANCH   3  25
BRANCH   1  37
HETATM   37  C   UNK N   1      33.840  14.057   7.338  0.00  0.00     0.215 C 
BRANCH  37  38
HETATM   38  O   UNK N   1      32.769  13.162   7.291  0.00  0.00    -0.294 OA
BRANCH  38  39
HETATM   39  P   UNK N   1      32.254  13.219   5.625  0.00  0.00     0.401 P 
HETATM   40  O   UNK N   1      31.699  11.826   5.217  0.00  0.00    -0.631 OA
BRANCH  39  41
HETATM   41  O   UNK N   1      30.921  14.319   5.451  0.00  0.00    -0.307 OA
HETATM   42  H   UNK N   1      30.660  14.891   6.190  0.00  0.00     0.222 HD
ENDBRANCH  39  41
BRANCH  39  43
HETATM   43  O   UNK N   1      33.528  13.712   4.528  0.00  0.00    -0.195 OA
BRANCH  43  44
HETATM   44  P   UNK N   1      32.987  14.978   3.438  0.00  0.00     0.399 P 
HETATM   45  O   UNK N   1      31.582  14.692   2.848  0.00  0.00    -0.631 OA
BRANCH  44  46
HETATM   46  O   UNK N   1      34.066  15.133   2.088  0.00  0.00    -0.307 OA
HETATM   47  H   UNK N   1      34.238  15.578   1.244  0.00  0.00     0.222 HD
ENDBRANCH  44  46
BRANCH  44  48
HETATM   48  O   UNK N   1      32.873  16.495   4.272  0.00  0.00    -0.307 OA
HETATM   49  H   UNK N   1      33.247  17.340   3.976  0.00  0.00     0.222 HD
ENDBRANCH  44  48
ENDBRANCH  43  44
ENDBRANCH  39  43
ENDBRANCH  38  39
ENDBRANCH  37  38
ENDBRANCH   1  37
TORSDOF 18
ENDMDL
MODEL 3
REMARK VINA RESULT:      -6.7      6.691      9.803
REMARK  18 active torsions:
REMARK  status: ('A' for Active; 'I' for Inactive)
REMARK    1  A    between atoms: C_3  and  C_1 
REMARK    2  A    between atoms: O_31  and  C_1 
REMARK    3  A    between atoms: C_5  and  O_19 
REMARK    4  A    between atoms: C_6  and  O_33 
REMARK    5  A    between atoms: O_20  and  C_8 
REMARK    6  A    between atoms: C_9  and  N_18 
REMARK       I    between atoms: N_11  and  C_10 
REMARK    7  A    between atoms: P_36  and  O_21 
REMARK    8  A    between atoms: P_36  and  O_22 
REMARK    9  A    between atoms: P_37  and  O_24 
REMARK   10  A    between atoms: P_37  and  O_25 
REMARK   11  A    between atoms: P_38  and  O_27 
REMARK   12  A    between atoms: P_39  and  O_29 
REMARK   13  A    between atoms: P_38  and  O_31 
REMARK   14  A    between atoms: P_39  and  O_33 
REMARK   15  A    between atoms: P_36  and  O_34 
REMARK   16  A    between atoms: P_38  and  O_34 
REMARK   17  A    between atoms: P_37  and  O_35 
REMARK   18  A    between atoms: P_39  and  O_35 
ROOT
HETATM    1  C   UNK N   1      35.978  13.287  13.447  0.00  0.00     0.180 C 
HETATM    2  C   UNK N   1      36.399  11.089  13.975  0.00  0.00     0.199 C 
HETATM    3  C   UNK N   1      36.363  11.961  12.747  0.00  0.00     0.197 C 
HETATM    4  C   UNK N   1      35.141  11.576  14.677  0.00  0.00     0.262 C 
HETATM    5  O   UNK N   1      35.114  12.980  14.532  0.00  0.00    -0.353 OA
ENDROOT
BRANCH   4   6
HETATM    6  N   UNK N   1      35.151  11.157  16.079  0.00  0.00    -0.297 N 
HETATM    7  C   UNK N   1      35.048   9.900  16.587  0.00  0.00     0.188 A 
HETATM    8  N   UNK N   1      35.052   9.919  17.952  0.00  0.00    -0.346 N 
HETATM    9  C   UNK N   1      35.162  11.225  18.268  0.00  0.00     0.130 A 
ATOM     10  HN  UNK N   1      34.988   9.124  18.588  1.00  0.00     0.167 HD
HETATM   11  C   UNK N   1      35.228  11.959  17.144  0.00  0.00     0.157 A 
HETATM   12  C   UNK N   1      35.196  11.847  19.504  0.00  0.00     0.186 A 
HETATM   13  N   UNK N   1      35.336  13.310  17.157  0.00  0.00    -0.174 N 
HETATM   14  C   UNK N   1      35.375  13.939  18.370  0.00  0.00     0.679 A 
HETATM   15  H   UNK N   1      35.384  13.823  16.318  0.00  0.00     0.186 HD
HETATM   16  N   UNK N   1      35.473  15.213  18.419  0.00  0.00    -0.234 N 
HETATM   17  N   UNK N   1      35.303  13.212  19.533  0.00  0.00    -0.168 N 
HETATM   18  H   UNK N   1      35.477  15.755  17.598  0.00  0.00     0.174 HD
ATOM     19  HN  UNK N   1      35.551  15.676  19.325  1.00  0.00     0.174 HD
ATOM     20  HN  UNK N   1      35.330  13.695  20.431  1.00  0.00     0.186 HD
BRANCH  12  21
HETATM   21  O   UNK N   1      35.116  11.143  20.645  0.00  0.00    -0.344 OA
HETATM   22  H   UNK N   1      35.433  11.483  21.458  0.00  0.00     0.219 HD
ENDBRANCH  12  21
ENDBRANCH   4   6
BRANCH   2  23
HETATM   23  O   UNK N   1      37.532  11.402  14.740  0.00  0.00    -0.388 OA
HETATM   24  H   UNK N   1      38.362  11.853  14.959  0.00  0.00     0.210 HD
ENDBRANCH   2  23
BRANCH   3  25
HETATM   25  O   UNK N   1      35.329  11.561  11.862  0.00  0.00    -0.286 OA
BRANCH  25  26
HETATM   26  P   UNK N   1      35.968  11.183  10.257  0.00  0.00     0.402 P 
HETATM   27  O   UNK N   1      36.951  10.009  10.506  0.00  0.00    -0.631 OA
BRANCH  26  28
HETATM   28  O   UNK N   1      36.981  12.416   9.574  0.00  0.00    -0.307 OA
HETATM   29  H   UNK N   1      37.720  12.337   8.951  0.00  0.00     0.222 HD
ENDBRANCH  26  28
BRANCH  26  30
HETATM   30  O   UNK N   1      34.880  10.581   9.027  0.00  0.00    -0.195 OA
BRANCH  30  31
HETATM   31  P   UNK N   1      33.242  10.878   9.520  0.00  0.00     0.399 P 
HETATM   32  O   UNK N   1      32.294  10.038   8.622  0.00  0.00    -0.631 OA
BRANCH  31  33
HETATM   33  O   UNK N   1      32.812  12.553   9.386  0.00  0.00    -0.307 OA
HETATM   34  H   UNK N   1      33.072  13.409   9.758  0.00  0.00     0.222 HD
ENDBRANCH  31  33
BRANCH  31  35
HETATM   35  O   UNK N   1      33.004  10.315  11.143  0.00  0.00    -0.307 OA
HETATM   36  H   UNK N   1      32.479   9.517  11.312  0.00  0.00     0.222 HD
ENDBRANCH  31  35
ENDBRANCH  30  31
ENDBRANCH  26  30
ENDBRANCH  25  26
ENDBRANCH   3  25
BRANCH   1  37
HETATM   37  C   UNK N   1      35.290  14.290  12.529  0.00  0.00     0.215 C 
BRANCH  37  38
HETATM   38  O   UNK N   1      36.114  14.723  11.489  0.00  0.00    -0.294 OA
BRANCH  38  39
HETATM   39  P   UNK N   1      35.001  15.404  10.332  0.00  0.00     0.401 P 
HETATM   40  O   UNK N   1      35.058  14.572   9.020  0.00  0.00    -0.631 OA
BRANCH  39  41
HETATM   41  O   UNK N   1      33.370  15.247  10.911  0.00  0.00    -0.307 OA
HETATM   42  H   UNK N   1      32.659  14.989  10.304  0.00  0.00     0.222 HD
ENDBRANCH  39  41
BRANCH  39  43
HETATM   43  O   UNK N   1      35.310  17.095   9.994  0.00  0.00    -0.195 OA
BRANCH  43  44
HETATM   44  P   UNK N   1      34.399  17.652   8.600  0.00  0.00     0.399 P 
HETATM   45  O   UNK N   1      34.689  19.137   8.257  0.00  0.00    -0.631 OA
BRANCH  44  46
HETATM   46  O   UNK N   1      32.692  17.537   8.890  0.00  0.00    -0.307 OA
HETATM   47  H   UNK N   1      31.829  17.965   8.784  0.00  0.00     0.222 HD
ENDBRANCH  44  46
BRANCH  44  48
HETATM   48  O   UNK N   1      34.815  16.731   7.190  0.00  0.00    -0.307 OA
HETATM   49  H   UNK N   1      34.775  17.041   6.271  0.00  0.00     0.222 HD
ENDBRANCH  44  48
ENDBRANCH  43  44
ENDBRANCH  39  43
ENDBRANCH  38  39
ENDBRANCH  37  38
ENDBRANCH   1  37
TORSDOF 18
ENDMDL
MODEL 4
REMARK VINA RESULT:      -6.7      2.830      4.770
REMARK  18 active torsions:
REMARK  status: ('A' for Active; 'I' for Inactive)
REMARK    1  A    between atoms: C_3  and  C_1 
REMARK    2  A    between atoms: O_31  and  C_1 
REMARK    3  A    between atoms: C_5  and  O_19 
REMARK    4  A    between atoms: C_6  and  O_33 
REMARK    5  A    between atoms: O_20  and  C_8 
REMARK    6  A    between atoms: C_9  and  N_18 
REMARK       I    between atoms: N_11  and  C_10 
REMARK    7  A    between atoms: P_36  and  O_21 
REMARK    8  A    between atoms: P_36  and  O_22 
REMARK    9  A    between atoms: P_37  and  O_24 
REMARK   10  A    between atoms: P_37  and  O_25 
REMARK   11  A    between atoms: P_38  and  O_27 
REMARK   12  A    between atoms: P_39  and  O_29 
REMARK   13  A    between atoms: P_38  and  O_31 
REMARK   14  A    between atoms: P_39  and  O_33 
REMARK   15  A    between atoms: P_36  and  O_34 
REMARK   16  A    between atoms: P_38  and  O_34 
REMARK   17  A    between atoms: P_37  and  O_35 
REMARK   18  A    between atoms: P_39  and  O_35 
ROOT
HETATM    1  C   UNK N   1      32.236  16.928   6.039  0.00  0.00     0.180 C 
HETATM    2  C   UNK N   1      31.647  17.152   8.250  0.00  0.00     0.199 C 
HETATM    3  C   UNK N   1      32.681  16.422   7.432  0.00  0.00     0.197 C 
HETATM    4  C   UNK N   1      30.416  16.908   7.392  0.00  0.00     0.262 C 
HETATM    5  O   UNK N   1      30.821  17.067   6.048  0.00  0.00    -0.353 OA
ENDROOT
BRANCH   4   6
HETATM    6  N   UNK N   1      29.349  17.835   7.768  0.00  0.00    -0.297 N 
HETATM    7  C   UNK N   1      28.837  18.082   9.003  0.00  0.00     0.188 A 
HETATM    8  N   UNK N   1      27.815  18.983   8.943  0.00  0.00    -0.346 N 
HETATM    9  C   UNK N   1      27.713  19.286   7.633  0.00  0.00     0.130 A 
ATOM     10  HN  UNK N   1      27.255  19.346   9.714  1.00  0.00     0.167 HD
HETATM   11  C   UNK N   1      28.637  18.603   6.937  0.00  0.00     0.157 A 
HETATM   12  C   UNK N   1      26.835  20.131   6.975  0.00  0.00     0.186 A 
HETATM   13  N   UNK N   1      28.764  18.704   5.592  0.00  0.00    -0.174 N 
HETATM   14  C   UNK N   1      27.909  19.538   4.927  0.00  0.00     0.679 A 
HETATM   15  H   UNK N   1      29.451  18.192   5.107  0.00  0.00     0.186 HD
HETATM   16  N   UNK N   1      27.998  19.656   3.657  0.00  0.00    -0.234 N 
HETATM   17  N   UNK N   1      26.951  20.243   5.615  0.00  0.00    -0.168 N 
HETATM   18  H   UNK N   1      28.644  19.123   3.141  0.00  0.00     0.174 HD
ATOM     19  HN  UNK N   1      27.390  20.315   3.170  1.00  0.00     0.174 HD
ATOM     20  HN  UNK N   1      26.317  20.859   5.106  1.00  0.00     0.186 HD
BRANCH  12  21
HETATM   21  O   UNK N   1      25.891  20.815   7.640  0.00  0.00    -0.344 OA
HETATM   22  H   UNK N   1      25.288  21.381   7.199  0.00  0.00     0.219 HD
ENDBRANCH  12  21
ENDBRANCH   4   6
BRANCH   2  23
HETATM   23  O   UNK N   1      31.954  18.520   8.281  0.00  0.00    -0.388 OA
HETATM   24  H   UNK N   1      32.035  19.406   8.666  0.00  0.00     0.210 HD
ENDBRANCH   2  23
BRANCH   3  25
HETATM   25  O   UNK N   1      32.505  15.016   7.516  0.00  0.00    -0.286 OA
BRANCH  25  26
HETATM   26  P   UNK N   1      33.198  14.372   9.010  0.00  0.00     0.402 P 
HETATM   27  O   UNK N   1      32.901  12.851   8.942  0.00  0.00    -0.631 OA
BRANCH  26  28
HETATM   28  O   UNK N   1      32.385  14.873  10.459  0.00  0.00    -0.307 OA
HETATM   29  H   UNK N   1      31.646  14.459  10.932  0.00  0.00     0.222 HD
ENDBRANCH  26  28
BRANCH  26  30
HETATM   30  O   UNK N   1      34.927  14.463   9.256  0.00  0.00    -0.195 OA
BRANCH  30  31
HETATM   31  P   UNK N   1      35.259  15.559  10.561  0.00  0.00     0.399 P 
HETATM   32  O   UNK N   1      34.779  14.910  11.887  0.00  0.00    -0.631 OA
BRANCH  31  33
HETATM   33  O   UNK N   1      34.461  17.084  10.355  0.00  0.00    -0.307 OA
HETATM   34  H   UNK N   1      33.618  17.432  10.027  0.00  0.00     0.222 HD
ENDBRANCH  31  33
BRANCH  31  35
HETATM   35  O   UNK N   1      36.972  15.784  10.720  0.00  0.00    -0.307 OA
HETATM   36  H   UNK N   1      37.587  15.110  10.389  0.00  0.00     0.222 HD
ENDBRANCH  31  35
ENDBRANCH  30  31
ENDBRANCH  26  30
ENDBRANCH  25  26
ENDBRANCH   3  25
BRANCH   1  37
HETATM   37  C   UNK N   1      32.640  16.010   4.892  0.00  0.00     0.215 C 
BRANCH  37  38
HETATM   38  O   UNK N   1      31.727  16.032   3.836  0.00  0.00    -0.294 OA
BRANCH  38  39
HETATM   39  P   UNK N   1      30.913  14.494   3.959  0.00  0.00     0.401 P 
HETATM   40  O   UNK N   1      31.062  13.731   2.613  0.00  0.00    -0.631 OA
BRANCH  39  41
HETATM   41  O   UNK N   1      31.697  13.499   5.147  0.00  0.00    -0.307 OA
HETATM   42  H   UNK N   1      31.745  12.538   5.025  0.00  0.00     0.222 HD
ENDBRANCH  39  41
BRANCH  39  43
HETATM   43  O   UNK N   1      29.221  14.644   4.389  0.00  0.00    -0.195 OA
BRANCH  43  44
HETATM   44  P   UNK N   1      28.393  15.804   3.363  0.00  0.00     0.399 P 
HETATM   45  O   UNK N   1      27.138  16.408   4.045  0.00  0.00    -0.631 OA
BRANCH  44  46
HETATM   46  O   UNK N   1      27.845  15.052   1.899  0.00  0.00    -0.307 OA
HETATM   47  H   UNK N   1      28.053  14.848   0.973  0.00  0.00     0.222 HD
ENDBRANCH  44  46
BRANCH  44  48
HETATM   48  O   UNK N   1      29.437  17.136   2.981  0.00  0.00    -0.307 OA
HETATM   49  H   UNK N   1      29.870  17.724   3.619  0.00  0.00     0.222 HD
ENDBRANCH  44  48
ENDBRANCH  43  44
ENDBRANCH  39  43
ENDBRANCH  38  39
ENDBRANCH  37  38
ENDBRANCH   1  37
TORSDOF 18
ENDMDL
MODEL 5
REMARK VINA RESULT:      -6.6      7.133     12.152
REMARK  18 active torsions:
REMARK  status: ('A' for Active; 'I' for Inactive)
REMARK    1  A    between atoms: C_3  and  C_1 
REMARK    2  A    between atoms: O_31  and  C_1 
REMARK    3  A    between atoms: C_5  and  O_19 
REMARK    4  A    between atoms: C_6  and  O_33 
REMARK    5  A    between atoms: O_20  and  C_8 
REMARK    6  A    between atoms: C_9  and  N_18 
REMARK       I    between atoms: N_11  and  C_10 
REMARK    7  A    between atoms: P_36  and  O_21 
REMARK    8  A    between atoms: P_36  and  O_22 
REMARK    9  A    between atoms: P_37  and  O_24 
REMARK   10  A    between atoms: P_37  and  O_25 
REMARK   11  A    between atoms: P_38  and  O_27 
REMARK   12  A    between atoms: P_39  and  O_29 
REMARK   13  A    between atoms: P_38  and  O_31 
REMARK   14  A    between atoms: P_39  and  O_33 
REMARK   15  A    between atoms: P_36  and  O_34 
REMARK   16  A    between atoms: P_38  and  O_34 
REMARK   17  A    between atoms: P_37  and  O_35 
REMARK   18  A    between atoms: P_39  and  O_35 
ROOT
HETATM    1  C   UNK N   1      23.614  16.965   5.762  0.00  0.00     0.180 C 
HETATM    2  C   UNK N   1      24.696  18.499   4.435  0.00  0.00     0.199 C 
HETATM    3  C   UNK N   1      23.281  18.092   4.755  0.00  0.00     0.197 C 
HETATM    4  C   UNK N   1      25.336  17.127   4.297  0.00  0.00     0.262 C 
HETATM    5  O   UNK N   1      24.810  16.328   5.335  0.00  0.00    -0.353 OA
ENDROOT
BRANCH   4   6
HETATM    6  N   UNK N   1      26.794  17.243   4.362  0.00  0.00    -0.297 N 
HETATM    7  C   UNK N   1      27.685  17.302   3.337  0.00  0.00     0.188 A 
HETATM    8  N   UNK N   1      28.966  17.361   3.802  0.00  0.00    -0.346 N 
HETATM    9  C   UNK N   1      28.837  17.337   5.144  0.00  0.00     0.130 A 
ATOM     10  HN  UNK N   1      29.827  17.412   3.256  1.00  0.00     0.167 HD
HETATM   11  C   UNK N   1      27.537  17.274   5.472  0.00  0.00     0.157 A 
HETATM   12  C   UNK N   1      29.803  17.353   6.136  0.00  0.00     0.186 A 
HETATM   13  N   UNK N   1      27.107  17.231   6.757  0.00  0.00    -0.174 N 
HETATM   14  C   UNK N   1      28.046  17.251   7.749  0.00  0.00     0.679 A 
HETATM   15  H   UNK N   1      26.146  17.186   6.969  0.00  0.00     0.186 HD
HETATM   16  N   UNK N   1      27.677  17.208   8.973  0.00  0.00    -0.234 N 
HETATM   17  N   UNK N   1      29.384  17.309   7.439  0.00  0.00    -0.168 N 
HETATM   18  H   UNK N   1      26.727  17.116   9.214  0.00  0.00     0.174 HD
ATOM     19  HN  UNK N   1      28.378  17.271   9.711  1.00  0.00     0.174 HD
ATOM     20  HN  UNK N   1      30.074  17.319   8.190  1.00  0.00     0.186 HD
BRANCH  12  21
HETATM   21  O   UNK N   1      31.112  17.400   5.839  0.00  0.00    -0.344 OA
HETATM   22  H   UNK N   1      31.500  16.807   5.227  0.00  0.00     0.219 HD
ENDBRANCH  12  21
ENDBRANCH   4   6
BRANCH   2  23
HETATM   23  O   UNK N   1      25.246  19.184   5.528  0.00  0.00    -0.388 OA
HETATM   24  H   UNK N   1      25.254  19.776   6.295  0.00  0.00     0.210 HD
ENDBRANCH   2  23
BRANCH   3  25
HETATM   25  O   UNK N   1      22.631  17.549   3.616  0.00  0.00    -0.286 OA
BRANCH  25  26
HETATM   26  P   UNK N   1      20.968  18.135   3.487  0.00  0.00     0.402 P 
HETATM   27  O   UNK N   1      20.886  19.282   4.527  0.00  0.00    -0.631 OA
BRANCH  26  28
HETATM   28  O   UNK N   1      19.761  17.013   4.033  0.00  0.00    -0.307 OA
HETATM   29  H   UNK N   1      18.867  17.178   4.371  0.00  0.00     0.222 HD
ENDBRANCH  26  28
BRANCH  26  30
HETATM   30  O   UNK N   1      20.438  18.871   1.991  0.00  0.00    -0.195 OA
BRANCH  30  31
HETATM   31  P   UNK N   1      21.030  20.502   1.918  0.00  0.00     0.399 P 
HETATM   32  O   UNK N   1      22.580  20.470   1.993  0.00  0.00    -0.631 OA
BRANCH  31  33
HETATM   33  O   UNK N   1      20.421  21.478   3.216  0.00  0.00    -0.307 OA
HETATM   34  H   UNK N   1      19.609  21.586   3.734  0.00  0.00     0.222 HD
ENDBRANCH  31  33
BRANCH  31  35
HETATM   35  O   UNK N   1      20.629  21.206   0.385  0.00  0.00    -0.307 OA
HETATM   36  H   UNK N   1      20.923  22.105   0.167  0.00  0.00     0.222 HD
ENDBRANCH  31  35
ENDBRANCH  30  31
ENDBRANCH  26  30
ENDBRANCH  25  26
ENDBRANCH   3  25
BRANCH   1  37
HETATM   37  C   UNK N   1      22.514  15.920   5.902  0.00  0.00     0.215 C 
BRANCH  37  38
HETATM   38  O   UNK N   1      22.414  15.413   7.199  0.00  0.00    -0.294 OA
BRANCH  38  39
HETATM   39  P   UNK N   1      20.809  15.872   7.703  0.00  0.00     0.401 P 
HETATM   40  O   UNK N   1      20.689  17.421   7.668  0.00  0.00    -0.631 OA
BRANCH  39  41
HETATM   41  O   UNK N   1      19.637  15.290   6.561  0.00  0.00    -0.307 OA
HETATM   42  H   UNK N   1      18.697  15.503   6.674  0.00  0.00     0.222 HD
ENDBRANCH  39  41
BRANCH  39  43
HETATM   43  O   UNK N   1      20.387  15.264   9.291  0.00  0.00    -0.195 OA
BRANCH  43  44
HETATM   44  P   UNK N   1      20.939  13.613   9.519  0.00  0.00     0.399 P 
HETATM   45  O   UNK N   1      20.758  12.746   8.246  0.00  0.00    -0.631 OA
BRANCH  44  46
HETATM   46  O   UNK N   1      20.042  12.830  10.781  0.00  0.00    -0.307 OA
HETATM   47  H   UNK N   1      19.168  12.693  11.180  0.00  0.00     0.222 HD
ENDBRANCH  44  46
BRANCH  44  48
HETATM   48  O   UNK N   1      22.631  13.582   9.900  0.00  0.00    -0.307 OA
HETATM   49  H   UNK N   1      23.293  12.987   9.514  0.00  0.00     0.222 HD
ENDBRANCH  44  48
ENDBRANCH  43  44
ENDBRANCH  39  43
ENDBRANCH  38  39
ENDBRANCH  37  38
ENDBRANCH   1  37
TORSDOF 18
ENDMDL
MODEL 6
REMARK VINA RESULT:      -6.6      8.210     13.226
REMARK  18 active torsions:
REMARK  status: ('A' for Active; 'I' for Inactive)
REMARK    1  A    between atoms: C_3  and  C_1 
REMARK    2  A    between atoms: O_31  and  C_1 
REMARK    3  A    between atoms: C_5  and  O_19 
REMARK    4  A    between atoms: C_6  and  O_33 
REMARK    5  A    between atoms: O_20  and  C_8 
REMARK    6  A    between atoms: C_9  and  N_18 
REMARK       I    between atoms: N_11  and  C_10 
REMARK    7  A    between atoms: P_36  and  O_21 
REMARK    8  A    between atoms: P_36  and  O_22 
REMARK    9  A    between atoms: P_37  and  O_24 
REMARK   10  A    between atoms: P_37  and  O_25 
REMARK   11  A    between atoms: P_38  and  O_27 
REMARK   12  A    between atoms: P_39  and  O_29 
REMARK   13  A    between atoms: P_38  and  O_31 
REMARK   14  A    between atoms: P_39  and  O_33 
REMARK   15  A    between atoms: P_36  and  O_34 
REMARK   16  A    between atoms: P_38  and  O_34 
REMARK   17  A    between atoms: P_37  and  O_35 
REMARK   18  A    between atoms: P_39  and  O_35 
ROOT
HETATM    1  C   UNK N   1      22.014  16.157   4.421  0.00  0.00     0.180 C 
HETATM    2  C   UNK N   1      23.790  15.786   5.833  0.00  0.00     0.199 C 
HETATM    3  C   UNK N   1      22.287  15.845   5.912  0.00  0.00     0.197 C 
HETATM    4  C   UNK N   1      24.052  16.997   4.952  0.00  0.00     0.262 C 
HETATM    5  O   UNK N   1      23.066  16.984   3.942  0.00  0.00    -0.353 OA
ENDROOT
BRANCH   4   6
HETATM    6  N   UNK N   1      25.410  16.941   4.410  0.00  0.00    -0.297 N 
HETATM    7  C   UNK N   1      25.835  16.384   3.245  0.00  0.00     0.188 A 
HETATM    8  N   UNK N   1      27.188  16.495   3.111  0.00  0.00    -0.346 N 
HETATM    9  C   UNK N   1      27.584  17.139   4.227  0.00  0.00     0.130 A 
ATOM     10  HN  UNK N   1      27.769  16.165   2.339  1.00  0.00     0.167 HD
HETATM   11  C   UNK N   1      26.516  17.409   4.996  0.00  0.00     0.157 A 
HETATM   12  C   UNK N   1      28.851  17.507   4.646  0.00  0.00     0.186 A 
HETATM   13  N   UNK N   1      26.614  18.047   6.188  0.00  0.00    -0.174 N 
HETATM   14  C   UNK N   1      27.858  18.423   6.614  0.00  0.00     0.679 A 
HETATM   15  H   UNK N   1      25.815  18.234   6.731  0.00  0.00     0.186 HD
HETATM   16  N   UNK N   1      27.988  19.024   7.735  0.00  0.00    -0.234 N 
HETATM   17  N   UNK N   1      28.966  18.152   5.849  0.00  0.00    -0.168 N 
HETATM   18  H   UNK N   1      27.213  19.183   8.320  0.00  0.00     0.174 HD
ATOM     19  HN  UNK N   1      28.911  19.345   8.028  1.00  0.00     0.174 HD
ATOM     20  HN  UNK N   1      29.888  18.435   6.181  1.00  0.00     0.186 HD
BRANCH  12  21
HETATM   21  O   UNK N   1      29.939  17.237   3.908  0.00  0.00    -0.344 OA
HETATM   22  H   UNK N   1      29.900  17.180   2.973  0.00  0.00     0.219 HD
ENDBRANCH  12  21
ENDBRANCH   4   6
BRANCH   2  23
HETATM   23  O   UNK N   1      24.180  14.612   5.171  0.00  0.00    -0.388 OA
HETATM   24  H   UNK N   1      24.166  13.668   4.950  0.00  0.00     0.210 HD
ENDBRANCH   2  23
BRANCH   3  25
HETATM   25  O   UNK N   1      21.856  16.927   6.722  0.00  0.00    -0.286 OA
BRANCH  25  26
HETATM   26  P   UNK N   1      20.470  16.471   7.719  0.00  0.00     0.402 P 
HETATM   27  O   UNK N   1      21.101  15.771   8.951  0.00  0.00    -0.631 OA
BRANCH  26  28
HETATM   28  O   UNK N   1      19.459  15.237   7.033  0.00  0.00    -0.307 OA
HETATM   29  H   UNK N   1      19.695  14.363   6.685  0.00  0.00     0.222 HD
ENDBRANCH  26  28
BRANCH  26  30
HETATM   30  O   UNK N   1      19.464  17.726   8.406  0.00  0.00    -0.195 OA
BRANCH  30  31
HETATM   31  P   UNK N   1      17.958  17.031   8.920  0.00  0.00     0.399 P 
HETATM   32  O   UNK N   1      17.066  16.802   7.671  0.00  0.00    -0.631 OA
BRANCH  31  33
HETATM   33  O   UNK N   1      17.114  18.052  10.039  0.00  0.00    -0.307 OA
HETATM   34  H   UNK N   1      17.310  18.685  10.746  0.00  0.00     0.222 HD
ENDBRANCH  31  33
BRANCH  31  35
HETATM   35  O   UNK N   1      18.238  15.466   9.614  0.00  0.00    -0.307 OA
HETATM   36  H   UNK N   1      19.131  15.205   9.888  0.00  0.00     0.222 HD
ENDBRANCH  31  35
ENDBRANCH  30  31
ENDBRANCH  26  30
ENDBRANCH  25  26
ENDBRANCH   3  25
BRANCH   1  37
HETATM   37  C   UNK N   1      20.680  16.851   4.171  0.00  0.00     0.215 C 
BRANCH  37  38
HETATM   38  O   UNK N   1      20.060  16.419   2.998  0.00  0.00    -0.294 OA
BRANCH  38  39
HETATM   39  P   UNK N   1      20.095  17.826   1.968  0.00  0.00     0.401 P 
HETATM   40  O   UNK N   1      20.050  17.370   0.482  0.00  0.00    -0.631 OA
BRANCH  39  41
HETATM   41  O   UNK N   1      18.660  18.775   2.206  0.00  0.00    -0.307 OA
HETATM   42  H   UNK N   1      17.798  18.439   1.915  0.00  0.00     0.222 HD
ENDBRANCH  39  41
BRANCH  39  43
HETATM   43  O   UNK N   1      21.490  18.849   2.249  0.00  0.00    -0.195 OA
BRANCH  43  44
HETATM   44  P   UNK N   1      21.032  20.537   2.405  0.00  0.00     0.399 P 
HETATM   45  O   UNK N   1      22.259  21.471   2.570  0.00  0.00    -0.631 OA
BRANCH  44  46
HETATM   46  O   UNK N   1      20.036  20.780   3.805  0.00  0.00    -0.307 OA
HETATM   47  H   UNK N   1      19.134  20.913   4.137  0.00  0.00     0.222 HD
ENDBRANCH  44  46
BRANCH  44  48
HETATM   48  O   UNK N   1      20.189  21.075   0.988  0.00  0.00    -0.307 OA
HETATM   49  H   UNK N   1      19.363  21.585   0.972  0.00  0.00     0.222 HD
ENDBRANCH  44  48
ENDBRANCH  43  44
ENDBRANCH  39  43
ENDBRANCH  38  39
ENDBRANCH  37  38
ENDBRANCH   1  37
TORSDOF 18
ENDMDL
MODEL 7
REMARK VINA RESULT:      -6.6      1.288      2.515
REMARK  18 active torsions:
REMARK  status: ('A' for Active; 'I' for Inactive)
REMARK    1  A    between atoms: C_3  and  C_1 
REMARK    2  A    between atoms: O_31  and  C_1 
REMARK    3  A    between atoms: C_5  and  O_19 
REMARK    4  A    between atoms: C_6  and  O_33 
REMARK    5  A    between atoms: O_20  and  C_8 
REMARK    6  A    between atoms: C_9  and  N_18 
REMARK       I    between atoms: N_11  and  C_10 
REMARK    7  A    between atoms: P_36  and  O_21 
REMARK    8  A    between atoms: P_36  and  O_22 
REMARK    9  A    between atoms: P_37  and  O_24 
REMARK   10  A    between atoms: P_37  and  O_25 
REMARK   11  A    between atoms: P_38  and  O_27 
REMARK   12  A    between atoms: P_39  and  O_29 
REMARK   13  A    between atoms: P_38  and  O_31 
REMARK   14  A    between atoms: P_39  and  O_33 
REMARK   15  A    between atoms: P_36  and  O_34 
REMARK   16  A    between atoms: P_38  and  O_34 
REMARK   17  A    between atoms: P_37  and  O_35 
REMARK   18  A    between atoms: P_39  and  O_35 
ROOT
HETATM    1  C   UNK N   1      35.183  15.386   6.700  0.00  0.00     0.180 C 
HETATM    2  C   UNK N   1      33.769  17.080   7.346  0.00  0.00     0.199 C 
HETATM    3  C   UNK N   1      34.936  16.316   7.913  0.00  0.00     0.197 C 
HETATM    4  C   UNK N   1      32.983  15.935   6.727  0.00  0.00     0.262 C 
HETATM    5  O   UNK N   1      33.926  15.083   6.111  0.00  0.00    -0.353 OA
ENDROOT
BRANCH   4   6
HETATM    6  N   UNK N   1      31.995  16.455   5.781  0.00  0.00    -0.297 N 
HETATM    7  C   UNK N   1      32.070  16.512   4.425  0.00  0.00     0.188 A 
HETATM    8  N   UNK N   1      30.963  17.110   3.896  0.00  0.00    -0.346 N 
HETATM    9  C   UNK N   1      30.204  17.417   4.967  0.00  0.00     0.130 A 
ATOM     10  HN  UNK N   1      30.757  17.284   2.912  1.00  0.00     0.167 HD
HETATM   11  C   UNK N   1      30.823  17.017   6.090  0.00  0.00     0.157 A 
HETATM   12  C   UNK N   1      28.978  18.056   5.042  0.00  0.00     0.186 A 
HETATM   13  N   UNK N   1      30.294  17.202   7.324  0.00  0.00    -0.174 N 
HETATM   14  C   UNK N   1      29.082  17.826   7.415  0.00  0.00     0.679 A 
HETATM   15  H   UNK N   1      30.769  16.897   8.131  0.00  0.00     0.186 HD
HETATM   16  N   UNK N   1      28.554  18.021   8.564  0.00  0.00    -0.234 N 
HETATM   17  N   UNK N   1      28.431  18.251   6.282  0.00  0.00    -0.168 N 
HETATM   18  H   UNK N   1      29.026  17.769   9.390  0.00  0.00     0.174 HD
ATOM     19  HN  UNK N   1      27.628  18.444   8.625  1.00  0.00     0.174 HD
ATOM     20  HN  UNK N   1      27.529  18.719   6.365  1.00  0.00     0.186 HD
BRANCH  12  21
HETATM   21  O   UNK N   1      28.342  18.482   3.939  0.00  0.00    -0.344 OA
HETATM   22  H   UNK N   1      28.794  18.931   3.251  0.00  0.00     0.219 HD
ENDBRANCH  12  21
ENDBRANCH   4   6
BRANCH   2  23
HETATM   23  O   UNK N   1      34.222  17.953   6.346  0.00  0.00    -0.388 OA
HETATM   24  H   UNK N   1      34.358  18.279   5.443  0.00  0.00     0.210 HD
ENDBRANCH   2  23
BRANCH   3  25
HETATM   25  O   UNK N   1      34.549  15.548   9.042  0.00  0.00    -0.286 OA
BRANCH  25  26
HETATM   26  P   UNK N   1      35.550  15.926  10.449  0.00  0.00     0.402 P 
HETATM   27  O   UNK N   1      35.624  17.476  10.459  0.00  0.00    -0.631 OA
BRANCH  26  28
HETATM   28  O   UNK N   1      37.212  15.448  10.305  0.00  0.00    -0.307 OA
HETATM   29  H   UNK N   1      37.856  15.224  10.995  0.00  0.00     0.222 HD
ENDBRANCH  26  28
BRANCH  26  30
HETATM   30  O   UNK N   1      34.966  15.514  12.046  0.00  0.00    -0.195 OA
BRANCH  30  31
HETATM   31  P   UNK N   1      35.429  13.882  12.417  0.00  0.00     0.399 P 
HETATM   32  O   UNK N   1      34.958  13.549  13.858  0.00  0.00    -0.631 OA
BRANCH  31  33
HETATM   33  O   UNK N   1      37.143  13.647  12.313  0.00  0.00    -0.307 OA
HETATM   34  H   UNK N   1      37.785  13.149  11.785  0.00  0.00     0.222 HD
ENDBRANCH  31  33
BRANCH  31  35
HETATM   35  O   UNK N   1      34.598  12.780  11.365  0.00  0.00    -0.307 OA
HETATM   36  H   UNK N   1      34.757  11.826  11.431  0.00  0.00     0.222 HD
ENDBRANCH  31  35
ENDBRANCH  30  31
ENDBRANCH  26  30
ENDBRANCH  25  26
ENDBRANCH   3  25
BRANCH   1  37
HETATM   37  C   UNK N   1      35.895  14.086   7.055  0.00  0.00     0.215 C 
BRANCH  37  38
HETATM   38  O   UNK N   1      35.041  12.982   7.038  0.00  0.00    -0.294 OA
BRANCH  38  39
HETATM   39  P   UNK N   1      35.808  11.846   8.116  0.00  0.00     0.401 P 
HETATM   40  O   UNK N   1      36.756  10.927   7.296  0.00  0.00    -0.631 OA
BRANCH  39  41
HETATM   41  O   UNK N   1      36.833  12.689   9.237  0.00  0.00    -0.307 OA
HETATM   42  H   UNK N   1      37.166  13.574   9.024  0.00  0.00     0.222 HD
ENDBRANCH  39  41
BRANCH  39  43
HETATM   43  O   UNK N   1      34.663  10.883   9.027  0.00  0.00    -0.195 OA
BRANCH  43  44
HETATM   44  P   UNK N   1      33.005  11.321   8.651  0.00  0.00     0.399 P 
HETATM   45  O   UNK N   1      31.974  10.474   9.440  0.00  0.00    -0.631 OA
BRANCH  44  46
HETATM   46  O   UNK N   1      32.666  11.069   6.968  0.00  0.00    -0.307 OA
HETATM   47  H   UNK N   1      32.795  10.491   6.200  0.00  0.00     0.222 HD
ENDBRANCH  44  46
BRANCH  44  48
HETATM   48  O   UNK N   1      32.702  12.978   9.066  0.00  0.00    -0.307 OA
HETATM   49  H   UNK N   1      32.737  13.361   9.957  0.00  0.00     0.222 HD
ENDBRANCH  44  48
ENDBRANCH  43  44
ENDBRANCH  39  43
ENDBRANCH  38  39
ENDBRANCH  37  38
ENDBRANCH   1  37
TORSDOF 18
ENDMDL
MODEL 8
REMARK VINA RESULT:      -6.6      8.528     11.353
REMARK  18 active torsions:
REMARK  status: ('A' for Active; 'I' for Inactive)
REMARK    1  A    between atoms: C_3  and  C_1 
REMARK    2  A    between atoms: O_31  and  C_1 
REMARK    3  A    between atoms: C_5  and  O_19 
REMARK    4  A    between atoms: C_6  and  O_33 
REMARK    5  A    between atoms: O_20  and  C_8 
REMARK    6  A    between atoms: C_9  and  N_18 
REMARK       I    between atoms: N_11  and  C_10 
REMARK    7  A    between atoms: P_36  and  O_21 
REMARK    8  A    between atoms: P_36  and  O_22 
REMARK    9  A    between atoms: P_37  and  O_24 
REMARK   10  A    between atoms: P_37  and  O_25 
REMARK   11  A    between atoms: P_38  and  O_27 
REMARK   12  A    between atoms: P_39  and  O_29 
REMARK   13  A    between atoms: P_38  and  O_31 
REMARK   14  A    between atoms: P_39  and  O_33 
REMARK   15  A    between atoms: P_36  and  O_34 
REMARK   16  A    between atoms: P_38  and  O_34 
REMARK   17  A    between atoms: P_37  and  O_35 
REMARK   18  A    between atoms: P_39  and  O_35 
ROOT
HETATM    1  C   UNK N   1      23.050  16.180   6.206  0.00  0.00     0.180 C 
HETATM    2  C   UNK N   1      20.818  16.725   6.290  0.00  0.00     0.199 C 
HETATM    3  C   UNK N   1      21.797  15.882   7.065  0.00  0.00     0.197 C 
HETATM    4  C   UNK N   1      21.226  16.361   4.872  0.00  0.00     0.262 C 
HETATM    5  O   UNK N   1      22.637  16.320   4.854  0.00  0.00    -0.353 OA
ENDROOT
BRANCH   4   6
HETATM    6  N   UNK N   1      20.681  17.334   3.925  0.00  0.00    -0.297 N 
HETATM    7  C   UNK N   1      19.469  17.329   3.308  0.00  0.00     0.188 A 
HETATM    8  N   UNK N   1      19.345  18.388   2.457  0.00  0.00    -0.346 N 
HETATM    9  C   UNK N   1      20.517  19.046   2.569  0.00  0.00     0.130 A 
ATOM     10  HN  UNK N   1      18.547  18.627   1.869  1.00  0.00     0.167 HD
HETATM   11  C   UNK N   1      21.307  18.416   3.453  0.00  0.00     0.157 A 
HETATM   12  C   UNK N   1      20.968  20.186   1.925  0.00  0.00     0.186 A 
HETATM   13  N   UNK N   1      22.553  18.851   3.762  0.00  0.00    -0.174 N 
HETATM   14  C   UNK N   1      23.012  19.978   3.139  0.00  0.00     0.679 A 
HETATM   15  H   UNK N   1      23.111  18.370   4.415  0.00  0.00     0.186 HD
HETATM   16  N   UNK N   1      24.184  20.416   3.404  0.00  0.00    -0.234 N 
HETATM   17  N   UNK N   1      22.225  20.637   2.226  0.00  0.00    -0.168 N 
HETATM   18  H   UNK N   1      24.781  19.930   4.018  0.00  0.00     0.174 HD
ATOM     19  HN  UNK N   1      24.505  21.283   2.974  1.00  0.00     0.174 HD
ATOM     20  HN  UNK N   1      22.582  21.474   1.766  1.00  0.00     0.186 HD
BRANCH  12  21
HETATM   21  O   UNK N   1      20.208  20.829   1.024  0.00  0.00    -0.344 OA
HETATM   22  H   UNK N   1      19.817  20.382   0.299  0.00  0.00     0.219 HD
ENDBRANCH  12  21
ENDBRANCH   4   6
BRANCH   2  23
HETATM   23  O   UNK N   1      21.072  18.083   6.534  0.00  0.00    -0.388 OA
HETATM   24  H   UNK N   1      21.315  18.996   6.318  0.00  0.00     0.210 HD
ENDBRANCH   2  23
BRANCH   3  25
HETATM   25  O   UNK N   1      21.468  14.505   6.982  0.00  0.00    -0.286 OA
BRANCH  25  26
HETATM   26  P   UNK N   1      21.212  13.809   8.587  0.00  0.00     0.402 P 
HETATM   27  O   UNK N   1      20.983  12.299   8.316  0.00  0.00    -0.631 OA
BRANCH  26  28
HETATM   28  O   UNK N   1      19.741  14.304   9.365  0.00  0.00    -0.307 OA
HETATM   29  H   UNK N   1      19.248  13.883  10.086  0.00  0.00     0.222 HD
ENDBRANCH  26  28
BRANCH  26  30
HETATM   30  O   UNK N   1      22.520  13.843   9.749  0.00  0.00    -0.195 OA
BRANCH  30  31
HETATM   31  P   UNK N   1      22.724  12.256  10.423  0.00  0.00     0.399 P 
HETATM   32  O   UNK N   1      23.798  12.328  11.542  0.00  0.00    -0.631 OA
BRANCH  31  33
HETATM   33  O   UNK N   1      23.223  11.098   9.233  0.00  0.00    -0.307 OA
HETATM   34  H   UNK N   1      22.863  10.335   8.757  0.00  0.00     0.222 HD
ENDBRANCH  31  33
BRANCH  31  35
HETATM   35  O   UNK N   1      21.254  11.748  11.191  0.00  0.00    -0.307 OA
HETATM   36  H   UNK N   1      20.553  12.392  11.381  0.00  0.00     0.222 HD
ENDBRANCH  31  35
ENDBRANCH  30  31
ENDBRANCH  26  30
ENDBRANCH  25  26
ENDBRANCH   3  25
BRANCH   1  37
HETATM   37  C   UNK N   1      24.125  15.104   6.292  0.00  0.00     0.215 C 
BRANCH  37  38
HETATM   38  O   UNK N   1      25.358  15.605   6.713  0.00  0.00    -0.294 OA
BRANCH  38  39
HETATM   39  P   UNK N   1      26.367  15.471   5.297  0.00  0.00     0.401 P 
HETATM   40  O   UNK N   1      26.884  14.011   5.178  0.00  0.00    -0.631 OA
BRANCH  39  41
HETATM   41  O   UNK N   1      25.424  15.749   3.865  0.00  0.00    -0.307 OA
HETATM   42  H   UNK N   1      24.558  16.180   3.927  0.00  0.00     0.222 HD
ENDBRANCH  39  41
BRANCH  39  43
HETATM   43  O   UNK N   1      27.711  16.595   5.303  0.00  0.00    -0.195 OA
BRANCH  43  44
HETATM   44  P   UNK N   1      27.161  18.261   5.231  0.00  0.00     0.399 P 
HETATM   45  O   UNK N   1      27.649  19.099   6.441  0.00  0.00    -0.631 OA
BRANCH  44  46
HETATM   46  O   UNK N   1      25.428  18.341   5.241  0.00  0.00    -0.307 OA
HETATM   47  H   UNK N   1      24.637  18.686   4.799  0.00  0.00     0.222 HD
ENDBRANCH  44  46
BRANCH  44  48
HETATM   48  O   UNK N   1      27.774  19.046   3.810  0.00  0.00    -0.307 OA
HETATM   49  H   UNK N   1      27.315  19.722   3.287  0.00  0.00     0.222 HD
ENDBRANCH  44  48
ENDBRANCH  43  44
ENDBRANCH  39  43
ENDBRANCH  38  39
ENDBRANCH  37  38
ENDBRANCH   1  37
TORSDOF 18
ENDMDL
MODEL 9
REMARK VINA RESULT:      -6.5      8.531     13.231
REMARK  18 active torsions:
REMARK  status: ('A' for Active; 'I' for Inactive)
REMARK    1  A    between atoms: C_3  and  C_1 
REMARK    2  A    between atoms: O_31  and  C_1 
REMARK    3  A    between atoms: C_5  and  O_19 
REMARK    4  A    between atoms: C_6  and  O_33 
REMARK    5  A    between atoms: O_20  and  C_8 
REMARK    6  A    between atoms: C_9  and  N_18 
REMARK       I    between atoms: N_11  and  C_10 
REMARK    7  A    between atoms: P_36  and  O_21 
REMARK    8  A    between atoms: P_36  and  O_22 
REMARK    9  A    between atoms: P_37  and  O_24 
REMARK   10  A    between atoms: P_37  and  O_25 
REMARK   11  A    between atoms: P_38  and  O_27 
REMARK   12  A    between atoms: P_39  and  O_29 
REMARK   13  A    between atoms: P_38  and  O_31 
REMARK   14  A    between atoms: P_39  and  O_33 
REMARK   15  A    between atoms: P_36  and  O_34 
REMARK   16  A    between atoms: P_38  and  O_34 
REMARK   17  A    between atoms: P_37  and  O_35 
REMARK   18  A    between atoms: P_39  and  O_35 
ROOT
HETATM    1  C   UNK N   1      22.133  16.709   4.422  0.00  0.00     0.180 C 
HETATM    2  C   UNK N   1      23.733  15.068   4.607  0.00  0.00     0.199 C 
HETATM    3  C   UNK N   1      22.231  15.169   4.549  0.00  0.00     0.197 C 
HETATM    4  C   UNK N   1      24.035  16.218   5.554  0.00  0.00     0.262 C 
HETATM    5  O   UNK N   1      23.188  17.284   5.180  0.00  0.00    -0.353 OA
ENDROOT
BRANCH   4   6
HETATM    6  N   UNK N   1      25.452  16.575   5.477  0.00  0.00    -0.297 N 
HETATM    7  C   UNK N   1      26.509  15.982   6.092  0.00  0.00     0.188 A 
HETATM    8  N   UNK N   1      27.674  16.634   5.808  0.00  0.00    -0.346 N 
HETATM    9  C   UNK N   1      27.302  17.646   4.999  0.00  0.00     0.130 A 
ATOM     10  HN  UNK N   1      28.613  16.406   6.134  1.00  0.00     0.167 HD
HETATM   11  C   UNK N   1      25.974  17.601   4.799  0.00  0.00     0.157 A 
HETATM   12  C   UNK N   1      28.057  18.648   4.413  0.00  0.00     0.186 A 
HETATM   13  N   UNK N   1      25.319  18.503   4.029  0.00  0.00    -0.174 N 
HETATM   14  C   UNK N   1      26.050  19.496   3.440  0.00  0.00     0.679 A 
HETATM   15  H   UNK N   1      24.344  18.446   3.898  0.00  0.00     0.186 HD
HETATM   16  N   UNK N   1      25.464  20.367   2.709  0.00  0.00    -0.234 N 
HETATM   17  N   UNK N   1      27.409  19.568   3.634  0.00  0.00    -0.168 N 
HETATM   18  H   UNK N   1      24.486  20.362   2.598  0.00  0.00     0.174 HD
ATOM     19  HN  UNK N   1      26.019  21.078   2.232  1.00  0.00     0.174 HD
ATOM     20  HN  UNK N   1      27.941  20.316   3.190  1.00  0.00     0.186 HD
BRANCH  12  21
HETATM   21  O   UNK N   1      29.384  18.729   4.607  0.00  0.00    -0.344 OA
HETATM   22  H   UNK N   1      29.801  18.320   5.340  0.00  0.00     0.219 HD
ENDBRANCH  12  21
ENDBRANCH   4   6
BRANCH   2  23
HETATM   23  O   UNK N   1      24.270  15.331   3.338  0.00  0.00    -0.388 OA
HETATM   24  H   UNK N   1      24.623  15.121   2.460  0.00  0.00     0.210 HD
ENDBRANCH   2  23
BRANCH   3  25
HETATM   25  O   UNK N   1      21.639  14.744   5.767  0.00  0.00    -0.286 OA
BRANCH  25  26
HETATM   26  P   UNK N   1      21.216  13.028   5.710  0.00  0.00     0.402 P 
HETATM   27  O   UNK N   1      20.273  12.829   6.925  0.00  0.00    -0.631 OA
BRANCH  26  28
HETATM   28  O   UNK N   1      22.533  11.948   6.045  0.00  0.00    -0.307 OA
HETATM   29  H   UNK N   1      22.549  10.978   6.072  0.00  0.00     0.222 HD
ENDBRANCH  26  28
BRANCH  26  30
HETATM   30  O   UNK N   1      20.301  12.421   4.349  0.00  0.00    -0.195 OA
BRANCH  30  31
HETATM   31  P   UNK N   1      18.884  13.400   4.133  0.00  0.00     0.399 P 
HETATM   32  O   UNK N   1      17.634  12.482   4.194  0.00  0.00    -0.631 OA
BRANCH  31  33
HETATM   33  O   UNK N   1      18.894  14.243   2.618  0.00  0.00    -0.307 OA
HETATM   34  H   UNK N   1      18.368  14.300   1.807  0.00  0.00     0.222 HD
ENDBRANCH  31  33
BRANCH  31  35
HETATM   35  O   UNK N   1      18.734  14.518   5.452  0.00  0.00    -0.307 OA
HETATM   36  H   UNK N   1      18.017  15.171   5.460  0.00  0.00     0.222 HD
ENDBRANCH  31  35
ENDBRANCH  30  31
ENDBRANCH  26  30
ENDBRANCH  25  26
ENDBRANCH   3  25
BRANCH   1  37
HETATM   37  C   UNK N   1      20.804  17.283   4.899  0.00  0.00     0.215 C 
BRANCH  37  38
HETATM   38  O   UNK N   1      19.729  16.887   4.101  0.00  0.00    -0.294 OA
BRANCH  38  39
HETATM   39  P   UNK N   1      19.954  17.787   2.624  0.00  0.00     0.401 P 
HETATM   40  O   UNK N   1      19.929  16.805   1.421  0.00  0.00    -0.631 OA
BRANCH  39  41
HETATM   41  O   UNK N   1      18.614  18.864   2.372  0.00  0.00    -0.307 OA
HETATM   42  H   UNK N   1      17.727  18.509   2.203  0.00  0.00     0.222 HD
ENDBRANCH  39  41
BRANCH  39  43
HETATM   43  O   UNK N   1      21.432  18.729   2.612  0.00  0.00    -0.195 OA
BRANCH  43  44
HETATM   44  P   UNK N   1      21.100  20.453   2.600  0.00  0.00     0.399 P 
HETATM   45  O   UNK N   1      20.167  20.885   3.761  0.00  0.00    -0.631 OA
BRANCH  44  46
HETATM   46  O   UNK N   1      20.305  20.919   1.130  0.00  0.00    -0.307 OA
HETATM   47  H   UNK N   1      20.406  21.330   0.257  0.00  0.00     0.222 HD
ENDBRANCH  44  46
BRANCH  44  48
HETATM   48  O   UNK N   1      22.567  21.359   2.784  0.00  0.00    -0.307 OA
HETATM   49  H   UNK N   1      22.741  22.245   2.429  0.00  0.00     0.222 HD
ENDBRANCH  44  48
ENDBRANCH  43  44
ENDBRANCH  39  43
ENDBRANCH  38  39
ENDBRANCH  37  38
ENDBRANCH   1  37
TORSDOF 18
ENDMDL
