REMARK  11 active torsions:
REMARK  status: ('A' for Active; 'I' for Inactive)
REMARK    1  A    between atoms: C_6  and  C_7 
REMARK    2  A    between atoms: C_7  and  O_8 
REMARK    3  A    between atoms: O_8  and  P_9 
REMARK    4  A    between atoms: P_9  and  O_10 
REMARK    5  A    between atoms: P_9  and  O_11 
REMARK    6  A    between atoms: C_13  and  C_14 
REMARK    7  A    between atoms: C_14  and  N_15 
REMARK    8  A    between atoms: N_15  and  C_16 
REMARK    9  A    between atoms: C_16  and  C_19 
REMARK   10  A    between atoms: C_19  and  O_20 
REMARK   11  A    between atoms: C_22  and  O_23 
ROOT
HETATM    1  C   UNK N   1      -0.842  -3.950   0.475  0.00  0.00     0.071 C 
HETATM    2  C   UNK N   1      -0.443  -2.558   0.118  0.00  0.00     0.039 A 
HETATM    3  N   UNK N   1      -1.393  -1.595   0.052  0.00  0.00    -0.367 N 
ATOM      4  HN  UNK N   1      -2.363  -1.839   0.250  1.00  0.00     0.165 HD
HETATM    5  C   UNK N   1      -1.086  -0.312  -0.269  0.00  0.00     0.098 A 
HETATM    6  C   UNK N   1       0.232   0.069  -0.532  0.00  0.00    -0.008 A 
HETATM    7  C   UNK N   1       1.253  -0.918  -0.464  0.00  0.00     0.004 A 
HETATM    8  C   UNK N   1       0.898  -2.244  -0.143  0.00  0.00     0.096 A 
ENDROOT
BRANCH   7   9
HETATM    9  C   UNK N   1       2.703  -0.609  -0.707  0.00  0.00     0.157 C 
BRANCH   9  10
HETATM   10  N   UNK N   1       3.229   0.107   0.455  0.00  0.00    -0.401 N 
HETATM   11  H   UNK N   1       2.705   0.825   0.954  0.00  0.00     0.154 HD
BRANCH  10  12
HETATM   12  C   UNK N   1       4.586  -0.308   0.832  0.00  0.00     0.105 C 
HETATM   13  C   UNK N   1       4.683  -1.827   0.964  0.00  0.00     0.049 C 
HETATM   14  C   UNK N   1       4.874   0.274   2.202  0.00  0.00     0.049 C 
BRANCH  12  15
HETATM   15  C   UNK N   1       5.610   0.236  -0.140  0.00  0.00     0.168 C 
HETATM   16  O   UNK N   1       5.685   1.439  -0.337  0.00  0.00    -0.648 OA
BRANCH  15  17
HETATM   17  O   UNK N   1       6.463  -0.592  -0.776  0.00  0.00    -0.775 OA
HETATM   18  H   UNK N   1       6.262  -1.393  -1.218  0.00  0.00     0.167 HD
ENDBRANCH  15  17
ENDBRANCH  12  15
ENDBRANCH  10  12
ENDBRANCH   9  10
ENDBRANCH   7   9
BRANCH   6  19
HETATM   19  C   UNK N   1       0.428   1.523  -0.890  0.00  0.00     0.221 C 
BRANCH  19  20
HETATM   20  O   UNK N   1       1.754   1.942  -0.995  0.00  0.00    -0.292 OA
BRANCH  20  21
HETATM   21  P   UNK N   1       1.849   3.398  -0.041  0.00  0.00     0.391 P 
HETATM   22  O   UNK N   1       2.583   3.049   1.281  0.00  0.00    -0.632 OA
BRANCH  21  23
HETATM   23  O   UNK N   1       2.796   4.611  -0.842  0.00  0.00    -0.307 OA
HETATM   24  H   UNK N   1       3.648   4.492  -1.290  0.00  0.00     0.222 HD
ENDBRANCH  21  23
BRANCH  21  25
HETATM   25  O   UNK N   1       0.290   4.034   0.394  0.00  0.00    -0.307 OA
HETATM   26  H   UNK N   1       0.162   4.964   0.637  0.00  0.00     0.222 HD
ENDBRANCH  21  25
ENDBRANCH  20  21
ENDBRANCH  19  20
ENDBRANCH   6  19
BRANCH   8  27
HETATM   27  O   UNK N   1       1.840  -3.204  -0.078  0.00  0.00    -0.358 OA
HETATM   28  H   UNK N   1       1.589  -4.105  -0.033  0.00  0.00     0.217 HD
ENDBRANCH   8  27
TORSDOF 11
