MODEL 1
REMARK VINA RESULT:      -6.2      0.000      0.000
REMARK  11 active torsions:
REMARK  status: ('A' for Active; 'I' for Inactive)
REMARK    1  A    between atoms: C_8  and  C_5 
REMARK    2  A    between atoms: C_11  and  C_5 
REMARK    3  A    between atoms: C_12  and  C_6 
REMARK    4  A    between atoms: C_6  and  O_22 
REMARK    5  A    between atoms: O_23  and  C_7 
REMARK    6  A    between atoms: C_14  and  C_11 
REMARK    7  A    between atoms: C_11  and  N_18 
REMARK    8  A    between atoms: C_15  and  C_12 
REMARK    9  A    between atoms: C_12  and  N_20 
REMARK   10  A    between atoms: O_24  and  C_13 
REMARK   11  A    between atoms: C_14  and  O_25 
ROOT
HETATM    1  C   UNK N   1      30.362  23.557  -2.603  0.00  0.00     0.166 C 
HETATM    2  O   UNK N   1      30.743  22.955  -1.612  0.00  0.00    -0.648 OA
HETATM    3  O   UNK N   1      30.825  24.800  -2.843  0.00  0.00    -0.775 OA
HETATM    4  H   UNK N   1      31.113  25.683  -2.968  0.00  0.00     0.167 HD
ENDROOT
BRANCH   1   5
HETATM    5  C   UNK N   1      29.370  22.912  -3.542  0.00  0.00     0.210 C 
BRANCH   5   6
HETATM    6  C   UNK N   1      30.057  22.043  -4.614  0.00  0.00     0.147 C 
HETATM    7  C   UNK N   1      29.479  22.265  -6.005  0.00  0.00     0.042 C 
BRANCH   6   8
HETATM    8  O   UNK N   1      31.428  22.300  -4.639  0.00  0.00    -0.393 OA
HETATM    9  H   UNK N   1      32.094  21.683  -4.299  0.00  0.00     0.210 HD
ENDBRANCH   6   8
ENDBRANCH   5   6
BRANCH   5  10
HETATM   10  N   UNK N   1      28.548  23.899  -4.212  0.00  0.00    -0.356 N 
HETATM   11  C   UNK N   1      27.430  24.364  -3.759  0.00  0.00     0.135 C 
ATOM     12  HN  UNK N   1      28.877  24.255  -5.110  1.00  0.00     0.162 HD
BRANCH  11  13
HETATM   13  C   UNK N   1      26.636  25.287  -4.642  0.00  0.00     0.162 C 
BRANCH  13  14
HETATM   14  C   UNK N   1      27.411  25.625  -5.931  0.00  0.00     0.072 C 
BRANCH  14  15
HETATM   15  C   UNK N   1      26.871  25.049  -7.217  0.00  0.00    -0.053 A 
HETATM   16  C   UNK N   1      26.519  23.697  -7.246  0.00  0.00     0.028 A 
HETATM   17  C   UNK N   1      26.122  23.093  -8.444  0.00  0.00     0.041 A 
HETATM   18  C   UNK N   1      26.083  23.844  -9.629  0.00  0.00     0.098 A 
HETATM   19  I   UNK N   1      25.631  21.041  -8.440  0.00  0.00    -0.042 I 
HETATM   20  C   UNK N   1      26.421  25.203  -9.602  0.00  0.00     0.041 A 
HETATM   21  C   UNK N   1      26.811  25.798  -8.402  0.00  0.00     0.028 A 
HETATM   22  I   UNK N   1      26.404  26.376 -11.356  0.00  0.00    -0.042 I 
BRANCH  18  23
HETATM   23  O   UNK N   1      25.727  23.261 -10.787  0.00  0.00    -0.358 OA
HETATM   24  H   UNK N   1      25.338  23.766 -11.474  0.00  0.00     0.217 HD
ENDBRANCH  18  23
ENDBRANCH  14  15
ENDBRANCH  13  14
BRANCH  13  25
HETATM   25  N   UNK N   1      26.404  26.503  -3.878  0.00  0.00    -0.362 N 
HETATM   26  C   UNK N   1      25.548  27.423  -4.193  0.00  0.00     0.107 C 
HETATM   27  C   UNK N   1      24.657  27.305  -5.391  0.00  0.00     0.097 C 
ATOM     28  HN  UNK N   1      26.955  26.642  -3.031  1.00  0.00     0.162 HD
BRANCH  26  29
HETATM   29  O   UNK N   1      25.440  28.511  -3.411  0.00  0.00    -0.350 OA
HETATM   30  H   UNK N   1      26.036  28.992  -2.871  0.00  0.00     0.219 HD
ENDBRANCH  26  29
ENDBRANCH  13  25
ENDBRANCH  11  13
BRANCH  11  31
HETATM   31  O   UNK N   1      26.955  23.973  -2.557  0.00  0.00    -0.348 OA
HETATM   32  H   UNK N   1      26.065  24.049  -2.276  0.00  0.00     0.219 HD
ENDBRANCH  11  31
ENDBRANCH   5  10
ENDBRANCH   1   5
TORSDOF 11
ENDMDL
MODEL 2
REMARK VINA RESULT:      -6.0     12.597     14.513
REMARK  11 active torsions:
REMARK  status: ('A' for Active; 'I' for Inactive)
REMARK    1  A    between atoms: C_8  and  C_5 
REMARK    2  A    between atoms: C_11  and  C_5 
REMARK    3  A    between atoms: C_12  and  C_6 
REMARK    4  A    between atoms: C_6  and  O_22 
REMARK    5  A    between atoms: O_23  and  C_7 
REMARK    6  A    between atoms: C_14  and  C_11 
REMARK    7  A    between atoms: C_11  and  N_18 
REMARK    8  A    between atoms: C_15  and  C_12 
REMARK    9  A    between atoms: C_12  and  N_20 
REMARK   10  A    between atoms: O_24  and  C_13 
REMARK   11  A    between atoms: C_14  and  O_25 
ROOT
HETATM    1  C   UNK N   1      21.020  20.297   0.934  0.00  0.00     0.166 C 
HETATM    2  O   UNK N   1      22.183  20.573   1.182  0.00  0.00    -0.648 OA
HETATM    3  O   UNK N   1      20.463  20.740  -0.211  0.00  0.00    -0.775 OA
HETATM    4  H   UNK N   1      20.073  21.099  -0.983  0.00  0.00     0.167 HD
ENDROOT
BRANCH   1   5
HETATM    5  C   UNK N   1      20.215  19.476   1.914  0.00  0.00     0.210 C 
BRANCH   5   6
HETATM    6  C   UNK N   1      20.299  20.029   3.350  0.00  0.00     0.147 C 
HETATM    7  C   UNK N   1      21.210  19.200   4.244  0.00  0.00     0.042 C 
BRANCH   6   8
HETATM    8  O   UNK N   1      20.748  21.350   3.334  0.00  0.00    -0.393 OA
HETATM    9  H   UNK N   1      20.189  22.102   3.084  0.00  0.00     0.210 HD
ENDBRANCH   6   8
ENDBRANCH   5   6
BRANCH   5  10
HETATM   10  N   UNK N   1      20.645  18.093   1.931  0.00  0.00    -0.356 N 
HETATM   11  C   UNK N   1      20.020  17.115   1.361  0.00  0.00     0.135 C 
ATOM     12  HN  UNK N   1      21.506  17.874   2.432  1.00  0.00     0.162 HD
BRANCH  11  13
HETATM   13  C   UNK N   1      20.532  15.718   1.587  0.00  0.00     0.162 C 
BRANCH  13  14
HETATM   14  C   UNK N   1      19.662  14.684   0.847  0.00  0.00     0.072 C 
BRANCH  14  15
HETATM   15  C   UNK N   1      20.264  13.315   0.643  0.00  0.00    -0.053 A 
HETATM   16  C   UNK N   1      19.404  12.218   0.529  0.00  0.00     0.028 A 
HETATM   17  C   UNK N   1      19.917  10.919   0.454  0.00  0.00     0.041 A 
HETATM   18  C   UNK N   1      21.304  10.710   0.500  0.00  0.00     0.098 A 
HETATM   19  I   UNK N   1      18.576   9.297   0.314  0.00  0.00    -0.042 I 
HETATM   20  C   UNK N   1      22.171  11.806   0.600  0.00  0.00     0.041 A 
HETATM   21  C   UNK N   1      21.650  13.098   0.670  0.00  0.00     0.028 A 
HETATM   22  I   UNK N   1      24.263  11.550   0.700  0.00  0.00    -0.042 I 
BRANCH  18  23
HETATM   23  O   UNK N   1      21.801   9.460   0.455  0.00  0.00    -0.358 OA
HETATM   24  H   UNK N   1      22.244   9.098   1.197  0.00  0.00     0.217 HD
ENDBRANCH  18  23
ENDBRANCH  14  15
ENDBRANCH  13  14
BRANCH  13  25
HETATM   25  N   UNK N   1      20.469  15.475   3.020  0.00  0.00    -0.362 N 
HETATM   26  C   UNK N   1      21.498  15.325   3.791  0.00  0.00     0.107 C 
HETATM   27  C   UNK N   1      22.901  15.428   3.275  0.00  0.00     0.097 C 
ATOM     28  HN  UNK N   1      19.545  15.419   3.450  1.00  0.00     0.162 HD
BRANCH  26  29
HETATM   29  O   UNK N   1      21.307  15.087   5.100  0.00  0.00    -0.350 OA
HETATM   30  H   UNK N   1      20.555  15.062   5.658  0.00  0.00     0.219 HD
ENDBRANCH  26  29
ENDBRANCH  13  25
ENDBRANCH  11  13
BRANCH  11  31
HETATM   31  O   UNK N   1      18.898  17.337   0.643  0.00  0.00    -0.348 OA
HETATM   32  H   UNK N   1      18.790  17.141  -0.266  0.00  0.00     0.219 HD
ENDBRANCH  11  31
ENDBRANCH   5  10
ENDBRANCH   1   5
TORSDOF 11
ENDMDL
MODEL 3
REMARK VINA RESULT:      -5.9      2.867      4.672
REMARK  11 active torsions:
REMARK  status: ('A' for Active; 'I' for Inactive)
REMARK    1  A    between atoms: C_8  and  C_5 
REMARK    2  A    between atoms: C_11  and  C_5 
REMARK    3  A    between atoms: C_12  and  C_6 
REMARK    4  A    between atoms: C_6  and  O_22 
REMARK    5  A    between atoms: O_23  and  C_7 
REMARK    6  A    between atoms: C_14  and  C_11 
REMARK    7  A    between atoms: C_11  and  N_18 
REMARK    8  A    between atoms: C_15  and  C_12 
REMARK    9  A    between atoms: C_12  and  N_20 
REMARK   10  A    between atoms: O_24  and  C_13 
REMARK   11  A    between atoms: C_14  and  O_25 
ROOT
HETATM    1  C   UNK N   1      30.102  24.134  -3.367  0.00  0.00     0.166 C 
HETATM    2  O   UNK N   1      30.273  25.178  -3.975  0.00  0.00    -0.648 OA
HETATM    3  O   UNK N   1      30.785  23.910  -2.227  0.00  0.00    -0.775 OA
HETATM    4  H   UNK N   1      31.306  23.745  -1.467  0.00  0.00     0.167 HD
ENDROOT
BRANCH   1   5
HETATM    5  C   UNK N   1      29.139  23.100  -3.903  0.00  0.00     0.210 C 
BRANCH   5   6
HETATM    6  C   UNK N   1      29.866  21.895  -4.533  0.00  0.00     0.147 C 
HETATM    7  C   UNK N   1      29.855  21.937  -6.055  0.00  0.00     0.042 C 
BRANCH   6   8
HETATM    8  O   UNK N   1      31.185  21.835  -4.084  0.00  0.00    -0.393 OA
HETATM    9  H   UNK N   1      31.884  21.344  -4.541  0.00  0.00     0.210 HD
ENDBRANCH   6   8
ENDBRANCH   5   6
BRANCH   5  10
HETATM   10  N   UNK N   1      28.246  23.664  -4.893  0.00  0.00    -0.356 N 
HETATM   11  C   UNK N   1      27.044  24.077  -4.657  0.00  0.00     0.135 C 
ATOM     12  HN  UNK N   1      28.591  23.739  -5.850  1.00  0.00     0.162 HD
BRANCH  11  13
HETATM   13  C   UNK N   1      26.202  24.514  -5.825  0.00  0.00     0.162 C 
BRANCH  13  14
HETATM   14  C   UNK N   1      25.466  25.832  -5.514  0.00  0.00     0.072 C 
BRANCH  14  15
HETATM   15  C   UNK N   1      26.235  27.109  -5.751  0.00  0.00    -0.053 A 
HETATM   16  C   UNK N   1      27.119  27.164  -6.832  0.00  0.00     0.028 A 
HETATM   17  C   UNK N   1      27.937  28.283  -7.024  0.00  0.00     0.041 A 
HETATM   18  C   UNK N   1      27.878  29.357  -6.122  0.00  0.00     0.098 A 
HETATM   19  I   UNK N   1      29.276  28.303  -8.654  0.00  0.00    -0.042 I 
HETATM   20  C   UNK N   1      26.984  29.312  -5.044  0.00  0.00     0.041 A 
HETATM   21  C   UNK N   1      26.170  28.194  -4.864  0.00  0.00     0.028 A 
HETATM   22  I   UNK N   1      26.870  30.886  -3.643  0.00  0.00    -0.042 I 
BRANCH  18  23
HETATM   23  O   UNK N   1      28.682  30.423  -6.287  0.00  0.00    -0.358 OA
HETATM   24  H   UNK N   1      29.130  30.799  -5.554  0.00  0.00     0.217 HD
ENDBRANCH  18  23
ENDBRANCH  14  15
ENDBRANCH  13  14
BRANCH  13  25
HETATM   25  N   UNK N   1      25.231  23.456  -6.062  0.00  0.00    -0.362 N 
HETATM   26  C   UNK N   1      25.340  22.544  -6.974  0.00  0.00     0.107 C 
HETATM   27  C   UNK N   1      26.530  22.462  -7.881  0.00  0.00     0.097 C 
ATOM     28  HN  UNK N   1      24.405  23.430  -5.464  1.00  0.00     0.162 HD
BRANCH  26  29
HETATM   29  O   UNK N   1      24.363  21.629  -7.103  0.00  0.00    -0.350 OA
HETATM   30  H   UNK N   1      23.488  21.647  -7.436  0.00  0.00     0.219 HD
ENDBRANCH  26  29
ENDBRANCH  13  25
ENDBRANCH  11  13
BRANCH  11  31
HETATM   31  O   UNK N   1      26.536  24.049  -3.406  0.00  0.00    -0.348 OA
HETATM   32  H   UNK N   1      26.482  24.784  -2.827  0.00  0.00     0.219 HD
ENDBRANCH  11  31
ENDBRANCH   5  10
ENDBRANCH   1   5
TORSDOF 11
ENDMDL
MODEL 4
REMARK VINA RESULT:      -5.8     11.488     14.186
REMARK  11 active torsions:
REMARK  status: ('A' for Active; 'I' for Inactive)
REMARK    1  A    between atoms: C_8  and  C_5 
REMARK    2  A    between atoms: C_11  and  C_5 
REMARK    3  A    between atoms: C_12  and  C_6 
REMARK    4  A    between atoms: C_6  and  O_22 
REMARK    5  A    between atoms: O_23  and  C_7 
REMARK    6  A    between atoms: C_14  and  C_11 
REMARK    7  A    between atoms: C_11  and  N_18 
REMARK    8  A    between atoms: C_15  and  C_12 
REMARK    9  A    between atoms: C_12  and  N_20 
REMARK   10  A    between atoms: O_24  and  C_13 
REMARK   11  A    between atoms: C_14  and  O_25 
ROOT
HETATM    1  C   UNK N   1      19.551  18.390   2.341  0.00  0.00     0.166 C 
HETATM    2  O   UNK N   1      19.941  17.570   1.525  0.00  0.00    -0.648 OA
HETATM    3  O   UNK N   1      18.252  18.751   2.351  0.00  0.00    -0.775 OA
HETATM    4  H   UNK N   1      17.360  19.032   2.311  0.00  0.00     0.167 HD
ENDROOT
BRANCH   1   5
HETATM    5  C   UNK N   1      20.526  19.001   3.321  0.00  0.00     0.210 C 
BRANCH   5   6
HETATM    6  C   UNK N   1      21.200  20.269   2.762  0.00  0.00     0.147 C 
HETATM    7  C   UNK N   1      22.718  20.219   2.865  0.00  0.00     0.042 C 
BRANCH   6   8
HETATM    8  O   UNK N   1      20.836  20.464   1.429  0.00  0.00    -0.393 OA
HETATM    9  H   UNK N   1      20.058  20.053   1.022  0.00  0.00     0.210 HD
ENDBRANCH   6   8
ENDBRANCH   5   6
BRANCH   5  10
HETATM   10  N   UNK N   1      21.562  18.062   3.699  0.00  0.00    -0.356 N 
HETATM   11  C   UNK N   1      21.877  17.757   4.915  0.00  0.00     0.135 C 
ATOM     12  HN  UNK N   1      22.082  17.607   2.948  1.00  0.00     0.162 HD
BRANCH  11  13
HETATM   13  C   UNK N   1      23.067  16.862   5.136  0.00  0.00     0.162 C 
BRANCH  13  14
HETATM   14  C   UNK N   1      23.936  16.772   3.866  0.00  0.00     0.072 C 
BRANCH  14  15
HETATM   15  C   UNK N   1      25.330  17.344   3.958  0.00  0.00    -0.053 A 
HETATM   16  C   UNK N   1      26.396  16.582   3.472  0.00  0.00     0.028 A 
HETATM   17  C   UNK N   1      27.714  17.020   3.639  0.00  0.00     0.041 A 
HETATM   18  C   UNK N   1      27.973  18.227   4.304  0.00  0.00     0.098 A 
HETATM   19  I   UNK N   1      29.290  15.817   2.914  0.00  0.00    -0.042 I 
HETATM   20  C   UNK N   1      26.907  19.002   4.780  0.00  0.00     0.041 A 
HETATM   21  C   UNK N   1      25.596  18.559   4.606  0.00  0.00     0.028 A 
HETATM   22  I   UNK N   1      27.237  20.814   5.810  0.00  0.00    -0.042 I 
BRANCH  18  23
HETATM   23  O   UNK N   1      29.241  18.639   4.490  0.00  0.00    -0.358 OA
HETATM   24  H   UNK N   1      29.527  18.932   5.333  0.00  0.00     0.217 HD
ENDBRANCH  18  23
ENDBRANCH  14  15
ENDBRANCH  13  14
BRANCH  13  25
HETATM   25  N   UNK N   1      22.546  15.544   5.467  0.00  0.00    -0.362 N 
HETATM   26  C   UNK N   1      23.161  14.668   6.194  0.00  0.00     0.107 C 
HETATM   27  C   UNK N   1      24.494  14.944   6.819  0.00  0.00     0.097 C 
ATOM     28  HN  UNK N   1      21.628  15.293   5.099  1.00  0.00     0.162 HD
BRANCH  26  29
HETATM   29  O   UNK N   1      22.579  13.476   6.414  0.00  0.00    -0.350 OA
HETATM   30  H   UNK N   1      22.780  12.738   6.955  0.00  0.00     0.219 HD
ENDBRANCH  26  29
ENDBRANCH  13  25
ENDBRANCH  11  13
BRANCH  11  31
HETATM   31  O   UNK N   1      21.202  18.285   5.958  0.00  0.00    -0.348 OA
HETATM   32  H   UNK N   1      20.269  18.345   6.025  0.00  0.00     0.219 HD
ENDBRANCH  11  31
ENDBRANCH   5  10
ENDBRANCH   1   5
TORSDOF 11
ENDMDL
MODEL 5
REMARK VINA RESULT:      -5.8     12.499     14.503
REMARK  11 active torsions:
REMARK  status: ('A' for Active; 'I' for Inactive)
REMARK    1  A    between atoms: C_8  and  C_5 
REMARK    2  A    between atoms: C_11  and  C_5 
REMARK    3  A    between atoms: C_12  and  C_6 
REMARK    4  A    between atoms: C_6  and  O_22 
REMARK    5  A    between atoms: O_23  and  C_7 
REMARK    6  A    between atoms: C_14  and  C_11 
REMARK    7  A    between atoms: C_11  and  N_18 
REMARK    8  A    between atoms: C_15  and  C_12 
REMARK    9  A    between atoms: C_12  and  N_20 
REMARK   10  A    between atoms: O_24  and  C_13 
REMARK   11  A    between atoms: C_14  and  O_25 
ROOT
HETATM    1  C   UNK N   1      34.227  16.834   5.965  0.00  0.00     0.166 C 
HETATM    2  O   UNK N   1      34.328  17.928   6.496  0.00  0.00    -0.648 OA
HETATM    3  O   UNK N   1      35.235  15.946   6.078  0.00  0.00    -0.775 OA
HETATM    4  H   UNK N   1      35.965  15.360   6.120  0.00  0.00     0.167 HD
ENDROOT
BRANCH   1   5
HETATM    5  C   UNK N   1      32.984  16.489   5.178  0.00  0.00     0.210 C 
BRANCH   5   6
HETATM    6  C   UNK N   1      33.058  16.986   3.721  0.00  0.00     0.147 C 
HETATM    7  C   UNK N   1      33.384  15.870   2.738  0.00  0.00     0.042 C 
BRANCH   6   8
HETATM    8  O   UNK N   1      31.853  17.586   3.353  0.00  0.00    -0.393 OA
HETATM    9  H   UNK N   1      31.073  17.088   3.065  0.00  0.00     0.210 HD
ENDBRANCH   6   8
ENDBRANCH   5   6
BRANCH   5  10
HETATM   10  N   UNK N   1      31.794  17.043   5.790  0.00  0.00    -0.356 N 
HETATM   11  C   UNK N   1      31.062  16.438   6.667  0.00  0.00     0.135 C 
ATOM     12  HN  UNK N   1      31.512  17.982   5.507  1.00  0.00     0.162 HD
BRANCH  11  13
HETATM   13  C   UNK N   1      29.784  17.102   7.104  0.00  0.00     0.162 C 
BRANCH  13  14
HETATM   14  C   UNK N   1      29.230  18.020   5.997  0.00  0.00     0.072 C 
BRANCH  14  15
HETATM   15  C   UNK N   1      27.814  17.757   5.545  0.00  0.00    -0.053 A 
HETATM   16  C   UNK N   1      27.165  18.732   4.782  0.00  0.00     0.028 A 
HETATM   17  C   UNK N   1      25.818  18.583   4.438  0.00  0.00     0.041 A 
HETATM   18  C   UNK N   1      25.106  17.452   4.865  0.00  0.00     0.098 A 
HETATM   19  I   UNK N   1      24.877  20.100   3.312  0.00  0.00    -0.042 I 
HETATM   20  C   UNK N   1      25.756  16.464   5.617  0.00  0.00     0.041 A 
HETATM   21  C   UNK N   1      27.101  16.620   5.952  0.00  0.00     0.028 A 
HETATM   22  I   UNK N   1      24.730  14.755   6.308  0.00  0.00    -0.042 I 
BRANCH  18  23
HETATM   23  O   UNK N   1      23.803  17.318   4.559  0.00  0.00    -0.358 OA
HETATM   24  H   UNK N   1      23.328  18.031   4.177  0.00  0.00     0.217 HD
ENDBRANCH  18  23
ENDBRANCH  14  15
ENDBRANCH  13  14
BRANCH  13  25
HETATM   25  N   UNK N   1      30.105  17.894   8.282  0.00  0.00    -0.362 N 
HETATM   26  C   UNK N   1      29.334  18.031   9.313  0.00  0.00     0.107 C 
HETATM   27  C   UNK N   1      28.010  17.336   9.416  0.00  0.00     0.097 C 
ATOM     28  HN  UNK N   1      31.003  18.377   8.297  1.00  0.00     0.162 HD
BRANCH  26  29
HETATM   29  O   UNK N   1      29.738  18.807  10.334  0.00  0.00    -0.350 OA
HETATM   30  H   UNK N   1      30.028  18.639  11.208  0.00  0.00     0.219 HD
ENDBRANCH  26  29
ENDBRANCH  13  25
ENDBRANCH  11  13
BRANCH  11  31
HETATM   31  O   UNK N   1      31.398  15.212   7.121  0.00  0.00    -0.348 OA
HETATM   32  H   UNK N   1      31.453  14.965   8.023  0.00  0.00     0.219 HD
ENDBRANCH  11  31
ENDBRANCH   5  10
ENDBRANCH   1   5
TORSDOF 11
ENDMDL
MODEL 6
REMARK VINA RESULT:      -5.7     11.470     14.314
REMARK  11 active torsions:
REMARK  status: ('A' for Active; 'I' for Inactive)
REMARK    1  A    between atoms: C_8  and  C_5 
REMARK    2  A    between atoms: C_11  and  C_5 
REMARK    3  A    between atoms: C_12  and  C_6 
REMARK    4  A    between atoms: C_6  and  O_22 
REMARK    5  A    between atoms: O_23  and  C_7 
REMARK    6  A    between atoms: C_14  and  C_11 
REMARK    7  A    between atoms: C_11  and  N_18 
REMARK    8  A    between atoms: C_15  and  C_12 
REMARK    9  A    between atoms: C_12  and  N_20 
REMARK   10  A    between atoms: O_24  and  C_13 
REMARK   11  A    between atoms: C_14  and  O_25 
ROOT
HETATM    1  C   UNK N   1      20.327  17.400   3.328  0.00  0.00     0.166 C 
HETATM    2  O   UNK N   1      20.888  16.655   2.540  0.00  0.00    -0.648 OA
HETATM    3  O   UNK N   1      19.048  17.158   3.675  0.00  0.00    -0.775 OA
HETATM    4  H   UNK N   1      18.143  17.008   3.865  0.00  0.00     0.167 HD
ENDROOT
BRANCH   1   5
HETATM    5  C   UNK N   1      21.065  18.590   3.894  0.00  0.00     0.210 C 
BRANCH   5   6
HETATM    6  C   UNK N   1      20.742  19.894   3.138  0.00  0.00     0.147 C 
HETATM    7  C   UNK N   1      21.986  20.567   2.574  0.00  0.00     0.042 C 
BRANCH   6   8
HETATM    8  O   UNK N   1      19.845  19.642   2.100  0.00  0.00    -0.393 OA
HETATM    9  H   UNK N   1      19.006  20.115   1.991  0.00  0.00     0.210 HD
ENDBRANCH   6   8
ENDBRANCH   5   6
BRANCH   5  10
HETATM   10  N   UNK N   1      22.500  18.391   3.869  0.00  0.00    -0.356 N 
HETATM   11  C   UNK N   1      23.213  18.013   4.878  0.00  0.00     0.135 C 
ATOM     12  HN  UNK N   1      22.983  18.563   2.987  1.00  0.00     0.162 HD
BRANCH  11  13
HETATM   13  C   UNK N   1      24.709  17.981   4.718  0.00  0.00     0.162 C 
BRANCH  13  14
HETATM   14  C   UNK N   1      25.305  16.699   5.330  0.00  0.00     0.072 C 
BRANCH  14  15
HETATM   15  C   UNK N   1      26.786  16.711   5.619  0.00  0.00    -0.053 A 
HETATM   16  C   UNK N   1      27.215  17.107   6.889  0.00  0.00     0.028 A 
HETATM   17  C   UNK N   1      28.579  17.244   7.167  0.00  0.00     0.041 A 
HETATM   18  C   UNK N   1      29.527  16.991   6.164  0.00  0.00     0.098 A 
HETATM   19  I   UNK N   1      29.172  17.876   9.091  0.00  0.00    -0.042 I 
HETATM   20  C   UNK N   1      29.104  16.579   4.894  0.00  0.00     0.041 A 
HETATM   21  C   UNK N   1      27.742  16.442   4.627  0.00  0.00     0.028 A 
HETATM   22  I   UNK N   1      30.483  16.208   3.340  0.00  0.00    -0.042 I 
BRANCH  18  23
HETATM   23  O   UNK N   1      30.839  17.147   6.419  0.00  0.00    -0.358 OA
HETATM   24  H   UNK N   1      31.447  17.285   5.719  0.00  0.00     0.217 HD
ENDBRANCH  18  23
ENDBRANCH  14  15
ENDBRANCH  13  14
BRANCH  13  25
HETATM   25  N   UNK N   1      25.231  19.146   5.418  0.00  0.00    -0.362 N 
HETATM   26  C   UNK N   1      25.851  20.131   4.852  0.00  0.00     0.107 C 
HETATM   27  C   UNK N   1      26.066  20.193   3.371  0.00  0.00     0.097 C 
ATOM     28  HN  UNK N   1      25.097  19.189   6.428  1.00  0.00     0.162 HD
BRANCH  26  29
HETATM   29  O   UNK N   1      26.301  21.144   5.614  0.00  0.00    -0.350 OA
HETATM   30  H   UNK N   1      26.003  21.553   6.402  0.00  0.00     0.219 HD
ENDBRANCH  26  29
ENDBRANCH  13  25
ENDBRANCH  11  13
BRANCH  11  31
HETATM   31  O   UNK N   1      22.635  17.724   6.064  0.00  0.00    -0.348 OA
HETATM   32  H   UNK N   1      21.956  17.092   6.196  0.00  0.00     0.219 HD
ENDBRANCH  11  31
ENDBRANCH   5  10
ENDBRANCH   1   5
TORSDOF 11
ENDMDL
MODEL 7
REMARK VINA RESULT:      -5.7      2.289      5.269
REMARK  11 active torsions:
REMARK  status: ('A' for Active; 'I' for Inactive)
REMARK    1  A    between atoms: C_8  and  C_5 
REMARK    2  A    between atoms: C_11  and  C_5 
REMARK    3  A    between atoms: C_12  and  C_6 
REMARK    4  A    between atoms: C_6  and  O_22 
REMARK    5  A    between atoms: O_23  and  C_7 
REMARK    6  A    between atoms: C_14  and  C_11 
REMARK    7  A    between atoms: C_11  and  N_18 
REMARK    8  A    between atoms: C_15  and  C_12 
REMARK    9  A    between atoms: C_12  and  N_20 
REMARK   10  A    between atoms: O_24  and  C_13 
REMARK   11  A    between atoms: C_14  and  O_25 
ROOT
HETATM    1  C   UNK N   1      26.156  27.815  -3.486  0.00  0.00     0.166 C 
HETATM    2  O   UNK N   1      25.941  27.009  -2.595  0.00  0.00    -0.648 OA
HETATM    3  O   UNK N   1      25.836  29.110  -3.302  0.00  0.00    -0.775 OA
HETATM    4  H   UNK N   1      25.559  29.997  -3.180  0.00  0.00     0.167 HD
ENDROOT
BRANCH   1   5
HETATM    5  C   UNK N   1      26.765  27.351  -4.789  0.00  0.00     0.210 C 
BRANCH   5   6
HETATM    6  C   UNK N   1      25.750  27.366  -5.949  0.00  0.00     0.147 C 
HETATM    7  C   UNK N   1      25.983  26.238  -6.945  0.00  0.00     0.042 C 
BRANCH   6   8
HETATM    8  O   UNK N   1      24.448  27.280  -5.453  0.00  0.00    -0.393 OA
HETATM    9  H   UNK N   1      24.155  27.722  -4.641  0.00  0.00     0.210 HD
ENDBRANCH   6   8
ENDBRANCH   5   6
BRANCH   5  10
HETATM   10  N   UNK N   1      27.312  26.015  -4.678  0.00  0.00    -0.356 N 
HETATM   11  C   UNK N   1      28.568  25.736  -4.549  0.00  0.00     0.135 C 
ATOM     12  HN  UNK N   1      26.656  25.234  -4.704  1.00  0.00     0.162 HD
BRANCH  11  13
HETATM   13  C   UNK N   1      28.981  24.290  -4.579  0.00  0.00     0.162 C 
BRANCH  13  14
HETATM   14  C   UNK N   1      27.870  23.410  -5.186  0.00  0.00     0.072 C 
BRANCH  14  15
HETATM   15  C   UNK N   1      28.256  22.554  -6.368  0.00  0.00    -0.053 A 
HETATM   16  C   UNK N   1      29.485  21.890  -6.338  0.00  0.00     0.028 A 
HETATM   17  C   UNK N   1      29.935  21.178  -7.456  0.00  0.00     0.041 A 
HETATM   18  C   UNK N   1      29.153  21.135  -8.620  0.00  0.00     0.098 A 
HETATM   19  I   UNK N   1      31.813  20.220  -7.369  0.00  0.00    -0.042 I 
HETATM   20  C   UNK N   1      27.914  21.787  -8.651  0.00  0.00     0.041 A 
HETATM   21  C   UNK N   1      27.472  22.490  -7.530  0.00  0.00     0.028 A 
HETATM   22  I   UNK N   1      26.707  21.776 -10.382  0.00  0.00    -0.042 I 
BRANCH  18  23
HETATM   23  O   UNK N   1      29.594  20.474  -9.706  0.00  0.00    -0.358 OA
HETATM   24  H   UNK N   1      29.095  20.478 -10.500  0.00  0.00     0.217 HD
ENDBRANCH  18  23
ENDBRANCH  14  15
ENDBRANCH  13  14
BRANCH  13  25
HETATM   25  N   UNK N   1      29.221  23.892  -3.200  0.00  0.00    -0.362 N 
HETATM   26  C   UNK N   1      30.327  23.383  -2.760  0.00  0.00     0.107 C 
HETATM   27  C   UNK N   1      31.519  23.181  -3.644  0.00  0.00     0.097 C 
ATOM     28  HN  UNK N   1      28.463  24.026  -2.531  1.00  0.00     0.162 HD
BRANCH  26  29
HETATM   29  O   UNK N   1      30.418  23.040  -1.463  0.00  0.00    -0.350 OA
HETATM   30  H   UNK N   1      31.128  22.937  -0.861  0.00  0.00     0.219 HD
ENDBRANCH  26  29
ENDBRANCH  13  25
ENDBRANCH  11  13
BRANCH  11  31
HETATM   31  O   UNK N   1      29.489  26.720  -4.462  0.00  0.00    -0.348 OA
HETATM   32  H   UNK N   1      30.395  26.634  -4.685  0.00  0.00     0.219 HD
ENDBRANCH  11  31
ENDBRANCH   5  10
ENDBRANCH   1   5
TORSDOF 11
ENDMDL
MODEL 8
REMARK VINA RESULT:      -5.7     11.722     15.170
REMARK  11 active torsions:
REMARK  status: ('A' for Active; 'I' for Inactive)
REMARK    1  A    between atoms: C_8  and  C_5 
REMARK    2  A    between atoms: C_11  and  C_5 
REMARK    3  A    between atoms: C_12  and  C_6 
REMARK    4  A    between atoms: C_6  and  O_22 
REMARK    5  A    between atoms: O_23  and  C_7 
REMARK    6  A    between atoms: C_14  and  C_11 
REMARK    7  A    between atoms: C_11  and  N_18 
REMARK    8  A    between atoms: C_15  and  C_12 
REMARK    9  A    between atoms: C_12  and  N_20 
REMARK   10  A    between atoms: O_24  and  C_13 
REMARK   11  A    between atoms: C_14  and  O_25 
ROOT
HETATM    1  C   UNK N   1      24.578  17.816   4.812  0.00  0.00     0.166 C 
HETATM    2  O   UNK N   1      23.832  17.882   3.848  0.00  0.00    -0.648 OA
HETATM    3  O   UNK N   1      24.328  16.916   5.784  0.00  0.00    -0.775 OA
HETATM    4  H   UNK N   1      24.113  16.324   6.477  0.00  0.00     0.167 HD
ENDROOT
BRANCH   1   5
HETATM    5  C   UNK N   1      25.763  18.748   4.913  0.00  0.00     0.210 C 
BRANCH   5   6
HETATM    6  C   UNK N   1      26.244  19.235   3.532  0.00  0.00     0.147 C 
HETATM    7  C   UNK N   1      25.645  20.580   3.144  0.00  0.00     0.042 C 
BRANCH   6   8
HETATM    8  O   UNK N   1      27.636  19.328   3.510  0.00  0.00    -0.393 OA
HETATM    9  H   UNK N   1      28.115  20.125   3.235  0.00  0.00     0.210 HD
ENDBRANCH   6   8
ENDBRANCH   5   6
BRANCH   5  10
HETATM   10  N   UNK N   1      26.879  18.122   5.591  0.00  0.00    -0.356 N 
HETATM   11  C   UNK N   1      27.505  18.622   6.606  0.00  0.00     0.135 C 
ATOM     12  HN  UNK N   1      27.196  17.218   5.241  1.00  0.00     0.162 HD
BRANCH  11  13
HETATM   13  C   UNK N   1      28.728  17.905   7.109  0.00  0.00     0.162 C 
BRANCH  13  14
HETATM   14  C   UNK N   1      29.258  16.909   6.059  0.00  0.00     0.072 C 
BRANCH  14  15
HETATM   15  C   UNK N   1      30.757  16.814   5.911  0.00  0.00    -0.053 A 
HETATM   16  C   UNK N   1      31.277  16.071   4.847  0.00  0.00     0.028 A 
HETATM   17  C   UNK N   1      32.655  15.860   4.736  0.00  0.00     0.041 A 
HETATM   18  C   UNK N   1      33.525  16.389   5.701  0.00  0.00     0.098 A 
HETATM   19  I   UNK N   1      33.385  14.705   3.128  0.00  0.00    -0.042 I 
HETATM   20  C   UNK N   1      33.011  17.147   6.761  0.00  0.00     0.041 A 
HETATM   21  C   UNK N   1      31.635  17.355   6.862  0.00  0.00     0.028 A 
HETATM   22  I   UNK N   1      34.269  17.946   8.255  0.00  0.00    -0.042 I 
BRANCH  18  23
HETATM   23  O   UNK N   1      34.849  16.166   5.612  0.00  0.00    -0.358 OA
HETATM   24  H   UNK N   1      35.179  15.294   5.514  0.00  0.00     0.217 HD
ENDBRANCH  18  23
ENDBRANCH  14  15
ENDBRANCH  13  14
BRANCH  13  25
HETATM   25  N   UNK N   1      28.329  17.184   8.308  0.00  0.00    -0.362 N 
HETATM   26  C   UNK N   1      28.735  17.459   9.506  0.00  0.00     0.107 C 
HETATM   27  C   UNK N   1      29.656  18.607   9.791  0.00  0.00     0.097 C 
ATOM     28  HN  UNK N   1      27.679  16.405   8.197  1.00  0.00     0.162 HD
BRANCH  26  29
HETATM   29  O   UNK N   1      28.304  16.706  10.533  0.00  0.00    -0.350 OA
HETATM   30  H   UNK N   1      28.441  15.817  10.795  0.00  0.00     0.219 HD
ENDBRANCH  26  29
ENDBRANCH  13  25
ENDBRANCH  11  13
BRANCH  11  31
HETATM   31  O   UNK N   1      27.113  19.794   7.151  0.00  0.00    -0.348 OA
HETATM   32  H   UNK N   1      27.273  20.060   8.035  0.00  0.00     0.219 HD
ENDBRANCH  11  31
ENDBRANCH   5  10
ENDBRANCH   1   5
TORSDOF 11
ENDMDL
MODEL 9
REMARK VINA RESULT:      -5.7     11.464     14.310
REMARK  11 active torsions:
REMARK  status: ('A' for Active; 'I' for Inactive)
REMARK    1  A    between atoms: C_8  and  C_5 
REMARK    2  A    between atoms: C_11  and  C_5 
REMARK    3  A    between atoms: C_12  and  C_6 
REMARK    4  A    between atoms: C_6  and  O_22 
REMARK    5  A    between atoms: O_23  and  C_7 
REMARK    6  A    between atoms: C_14  and  C_11 
REMARK    7  A    between atoms: C_11  and  N_18 
REMARK    8  A    between atoms: C_15  and  C_12 
REMARK    9  A    between atoms: C_12  and  N_20 
REMARK   10  A    between atoms: O_24  and  C_13 
REMARK   11  A    between atoms: C_14  and  O_25 
ROOT
HETATM    1  C   UNK N   1      20.448  17.314   3.343  0.00  0.00     0.166 C 
HETATM    2  O   UNK N   1      21.002  16.690   2.452  0.00  0.00    -0.648 OA
HETATM    3  O   UNK N   1      19.236  16.916   3.777  0.00  0.00    -0.775 OA
HETATM    4  H   UNK N   1      18.371  16.661   4.031  0.00  0.00     0.167 HD
ENDROOT
BRANCH   1   5
HETATM    5  C   UNK N   1      21.117  18.530   3.940  0.00  0.00     0.210 C 
BRANCH   5   6
HETATM    6  C   UNK N   1      20.672  19.838   3.257  0.00  0.00     0.147 C 
HETATM    7  C   UNK N   1      21.822  20.558   2.566  0.00  0.00     0.042 C 
BRANCH   6   8
HETATM    8  O   UNK N   1      19.666  19.580   2.326  0.00  0.00    -0.393 OA
HETATM    9  H   UNK N   1      18.807  20.030   2.328  0.00  0.00     0.210 HD
ENDBRANCH   6   8
ENDBRANCH   5   6
BRANCH   5  10
HETATM   10  N   UNK N   1      22.560  18.440   3.857  0.00  0.00    -0.356 N 
HETATM   11  C   UNK N   1      23.340  18.113   4.835  0.00  0.00     0.135 C 
ATOM     12  HN  UNK N   1      22.995  18.652   2.959  1.00  0.00     0.162 HD
BRANCH  11  13
HETATM   13  C   UNK N   1      24.826  18.195   4.617  0.00  0.00     0.162 C 
BRANCH  13  14
HETATM   14  C   UNK N   1      25.532  16.924   5.127  0.00  0.00     0.072 C 
BRANCH  14  15
HETATM   15  C   UNK N   1      26.985  17.065   5.512  0.00  0.00    -0.053 A 
HETATM   16  C   UNK N   1      27.960  16.754   4.560  0.00  0.00     0.028 A 
HETATM   17  C   UNK N   1      29.316  16.760   4.906  0.00  0.00     0.041 A 
HETATM   18  C   UNK N   1      29.704  17.071   6.218  0.00  0.00     0.098 A 
HETATM   19  I   UNK N   1      30.746  16.252   3.439  0.00  0.00    -0.042 I 
HETATM   20  C   UNK N   1      28.731  17.398   7.172  0.00  0.00     0.041 A 
HETATM   21  C   UNK N   1      27.382  17.394   6.817  0.00  0.00     0.028 A 
HETATM   22  I   UNK N   1      29.254  17.851   9.165  0.00  0.00    -0.042 I 
BRANCH  18  23
HETATM   23  O   UNK N   1      31.004  17.052   6.560  0.00  0.00    -0.358 OA
HETATM   24  H   UNK N   1      31.368  16.310   7.004  0.00  0.00     0.217 HD
ENDBRANCH  18  23
ENDBRANCH  14  15
ENDBRANCH  13  14
BRANCH  13  25
HETATM   25  N   UNK N   1      25.297  19.351   5.365  0.00  0.00    -0.362 N 
HETATM   26  C   UNK N   1      25.997  20.319   4.866  0.00  0.00     0.107 C 
HETATM   27  C   UNK N   1      26.371  20.367   3.416  0.00  0.00     0.097 C 
ATOM     28  HN  UNK N   1      25.057  19.403   6.355  1.00  0.00     0.162 HD
BRANCH  26  29
HETATM   29  O   UNK N   1      26.387  21.325   5.668  0.00  0.00    -0.350 OA
HETATM   30  H   UNK N   1      26.708  22.193   5.522  0.00  0.00     0.219 HD
ENDBRANCH  26  29
ENDBRANCH  13  25
ENDBRANCH  11  13
BRANCH  11  31
HETATM   31  O   UNK N   1      22.832  17.777   6.041  0.00  0.00    -0.348 OA
HETATM   32  H   UNK N   1      23.244  17.209   6.662  0.00  0.00     0.219 HD
ENDBRANCH  11  31
ENDBRANCH   5  10
ENDBRANCH   1   5
TORSDOF 11
ENDMDL
