MODEL 1
REMARK VINA RESULT:      -5.2      0.000      0.000
REMARK WARNING: 32 MAX_TORS EXCEEDED!!!
REMARK  45 active torsions:
REMARK  status: ('A' for Active; 'I' for Inactive)
REMARK    1  A    between atoms: C_2  and  C_3 
REMARK    2  A    between atoms: C_3  and  C_4 
REMARK    3  A    between atoms: C_4  and  C_5 
REMARK    4  A    between atoms: C_5  and  C_6 
REMARK    5  A    between atoms: C_6  and  C_7 
REMARK    6  A    between atoms: C_7  and  C_8 
REMARK    7  A    between atoms: C_8  and  C_9 
REMARK    8  A    between atoms: C_9  and  C_10 
REMARK    9  A    between atoms: C_10  and  C_11 
REMARK   10  A    between atoms: C_11  and  C_12 
REMARK   11  A    between atoms: C_12  and  C_13 
REMARK   12  A    between atoms: C_13  and  C_14 
REMARK   13  A    between atoms: C_14  and  C_15 
REMARK   14  A    between atoms: C_15  and  C_16 
REMARK   15  A    between atoms: C_16  and  C_17 
REMARK   16  A    between atoms: C_17  and  C_18 
REMARK   17  A    between atoms: C_18  and  O_20 
REMARK   18  A    between atoms: O_20  and  C_21 
REMARK   19  A    between atoms: C_21  and  C_22 
REMARK   20  A    between atoms: C_22  and  C_23 
REMARK   21  A    between atoms: C_22  and  O_32 
REMARK   22  A    between atoms: C_23  and  O_24 
REMARK   23  A    between atoms: P_25  and  O_24 
REMARK   24  A    between atoms: P_25  and  O_26 
REMARK   25  A    between atoms: P_25  and  O_28 
REMARK   26  A    between atoms: O_28  and  C_29 
REMARK   27  A    between atoms: C_29  and  C_30 
REMARK   28  A    between atoms: C_30  and  N_31 
REMARK   29  A    between atoms: O_32  and  C_33 
REMARK   30  A    between atoms: C_33  and  C_35 
REMARK   31  A    between atoms: C_35  and  C_36 
REMARK   32  A    between atoms: C_36  and  C_37 
REMARK   33  A    between atoms: C_37  and  C_38 
REMARK   34  A    between atoms: C_38  and  C_39 
REMARK   35  A    between atoms: C_39  and  C_40 
REMARK   36  A    between atoms: C_40  and  C_41 
REMARK   37  A    between atoms: C_41  and  C_42 
REMARK   38  A    between atoms: C_42  and  C_43 
REMARK   39  A    between atoms: C_43  and  C_44 
REMARK   40  A    between atoms: C_44  and  C_45 
REMARK   41  A    between atoms: C_45  and  C_46 
REMARK   42  A    between atoms: C_46  and  C_47 
REMARK   43  A    between atoms: C_47  and  C_48 
REMARK   44  A    between atoms: C_48  and  C_49 
REMARK   45  A    between atoms: C_49  and  C_50 
ROOT
HETATM    1  C   UNK N   1      21.204  19.022   4.009  0.00  0.00     0.180 C 
ENDROOT
BRANCH   1   2
HETATM    2  C   UNK N   1      20.070  18.632   3.063  0.00  0.00     0.213 C 
BRANCH   2   3
HETATM    3  O   UNK N   1      20.543  18.467   1.779  0.00  0.00    -0.319 OA
BRANCH   3   4
HETATM    4  C   UNK N   1      20.379  17.311   1.091  0.00  0.00     0.258 C 
HETATM    5  O   UNK N   1      20.309  17.339  -0.126  0.00  0.00    -0.265 OA
BRANCH   4   6
HETATM    6  C   UNK N   1      20.278  16.002   1.812  0.00  0.00     0.111 C 
BRANCH   6   7
HETATM    7  C   UNK N   1      21.664  15.476   2.111  0.00  0.00     0.010 C 
BRANCH   7   8
HETATM    8  C   UNK N   1      21.666  13.969   1.959  0.00  0.00     0.000 C 
BRANCH   8   9
HETATM    9  C   UNK N   1      22.375  13.596   0.672  0.00  0.00     0.000 C 
BRANCH   9  10
HETATM   10  C   UNK N   1      23.889  13.733   0.811  0.00  0.00     0.000 C 
BRANCH  10  11
HETATM   11  C   UNK N   1      24.469  12.885   1.937  0.00  0.00     0.000 C 
BRANCH  11  12
HETATM   12  C   UNK N   1      25.774  12.227   1.519  0.00  0.00     0.000 C 
BRANCH  12  13
HETATM   13  C   UNK N   1      26.871  12.575   2.511  0.00  0.00     0.000 C 
BRANCH  13  14
HETATM   14  C   UNK N   1      27.602  13.832   2.073  0.00  0.00     0.000 C 
BRANCH  14  15
HETATM   15  C   UNK N   1      28.186  14.533   3.282  0.00  0.00     0.000 C 
BRANCH  15  16
HETATM   16  C   UNK N   1      27.586  15.915   3.408  0.00  0.00     0.000 C 
BRANCH  16  17
HETATM   17  C   UNK N   1      26.435  16.012   2.438  0.00  0.00     0.000 C 
BRANCH  17  18
HETATM   18  C   UNK N   1      25.166  16.427   3.147  0.00  0.00     0.000 C 
BRANCH  18  19
HETATM   19  C   UNK N   1      25.312  16.034   4.601  0.00  0.00     0.000 C 
BRANCH  19  20
HETATM   20  C   UNK N   1      24.290  14.986   4.979  0.00  0.00    -0.000 C 
BRANCH  20  21
HETATM   21  C   UNK N   1      24.801  14.244   6.196  0.00  0.00    -0.005 C 
HETATM   22  C   UNK N   1      25.968  14.992   6.800  0.00  0.00     0.005 C 
ENDBRANCH  20  21
ENDBRANCH  19  20
ENDBRANCH  18  19
ENDBRANCH  17  18
ENDBRANCH  16  17
ENDBRANCH  15  16
ENDBRANCH  14  15
ENDBRANCH  13  14
ENDBRANCH  12  13
ENDBRANCH  11  12
ENDBRANCH  10  11
ENDBRANCH   9  10
ENDBRANCH   8   9
ENDBRANCH   7   8
ENDBRANCH   6   7
ENDBRANCH   4   6
ENDBRANCH   3   4
ENDBRANCH   2   3
ENDBRANCH   1   2
BRANCH   1  23
HETATM   23  C   UNK N   1      21.316  17.997   5.137  0.00  0.00     0.215 C 
BRANCH  23  24
HETATM   24  O   UNK N   1      20.127  17.272   5.265  0.00  0.00    -0.294 OA
BRANCH  24  25
HETATM   25  P   UNK N   1      20.224  16.531   6.838  0.00  0.00     0.393 P 
HETATM   26  O   UNK N   1      21.076  17.816   7.022  0.00  0.00    -0.631 OA
BRANCH  25  27
HETATM   27  O   UNK N   1      20.959  15.497   5.650  0.00  0.00    -0.307 OA
HETATM   28  H   UNK N   1      20.978  15.727   4.708  0.00  0.00     0.222 HD
ENDBRANCH  25  27
BRANCH  25  29
HETATM   29  O   UNK N   1      21.731  15.898   7.433  0.00  0.00    -0.295 OA
BRANCH  29  30
HETATM   30  C   UNK N   1      21.469  14.567   7.777  0.00  0.00     0.207 C 
BRANCH  30  31
HETATM   31  C   UNK N   1      21.459  14.422   9.289  0.00  0.00     0.256 C 
BRANCH  31  32
HETATM   32  N   UNK N   1      22.577  13.601   9.714  0.00  0.00    -0.077 N 
HETATM   33  H   UNK N   1      23.377  13.456   9.097  0.00  0.00     0.274 HD
HETATM   34  H   UNK N   1      22.564  13.165  10.637  0.00  0.00     0.274 HD
HETATM   35  H   UNK N   1      23.361  13.023  10.018  0.00  0.00     0.274 HD
ENDBRANCH  31  32
ENDBRANCH  30  31
ENDBRANCH  29  30
ENDBRANCH  25  29
ENDBRANCH  24  25
ENDBRANCH  23  24
ENDBRANCH   1  23
BRANCH   1  36
HETATM   36  O   UNK N   1      22.381  19.149   3.295  0.00  0.00    -0.312 OA
BRANCH  36  37
HETATM   37  C   UNK N   1      22.875  20.358   2.937  0.00  0.00     0.259 C 
HETATM   38  O   UNK N   1      22.133  21.322   2.846  0.00  0.00    -0.265 OA
BRANCH  37  39
HETATM   39  C   UNK N   1      24.347  20.533   2.747  0.00  0.00     0.111 C 
BRANCH  39  40
HETATM   40  C   UNK N   1      25.121  19.885   3.881  0.00  0.00     0.010 C 
BRANCH  40  41
HETATM   41  C   UNK N   1      26.620  20.027   3.671  0.00  0.00     0.000 C 
BRANCH  41  42
HETATM   42  C   UNK N   1      27.346  20.153   4.999  0.00  0.00     0.000 C 
BRANCH  42  43
HETATM   43  C   UNK N   1      28.273  18.965   5.192  0.00  0.00     0.000 C 
BRANCH  43  44
HETATM   44  C   UNK N   1      27.863  18.146   6.410  0.00  0.00     0.000 C 
BRANCH  44  45
HETATM   45  C   UNK N   1      28.283  18.790   7.726  0.00  0.00     0.000 C 
BRANCH  45  46
HETATM   46  C   UNK N   1      28.167  17.804   8.872  0.00  0.00     0.000 C 
BRANCH  46  47
HETATM   47  C   UNK N   1      29.434  17.832   9.702  0.00  0.00     0.000 C 
BRANCH  47  48
HETATM   48  C   UNK N   1      30.527  18.532   8.919  0.00  0.00     0.000 C 
BRANCH  48  49
HETATM   49  C   UNK N   1      31.659  17.572   8.606  0.00  0.00     0.000 C 
BRANCH  49  50
HETATM   50  C   UNK N   1      31.786  17.426   7.104  0.00  0.00     0.000 C 
BRANCH  50  51
HETATM   51  C   UNK N   1      31.043  16.195   6.639  0.00  0.00     0.000 C 
BRANCH  51  52
HETATM   52  C   UNK N   1      30.894  16.270   5.136  0.00  0.00     0.000 C 
BRANCH  52  53
HETATM   53  C   UNK N   1      31.665  17.454   4.600  0.00  0.00    -0.000 C 
BRANCH  53  54
HETATM   54  C   UNK N   1      32.167  17.129   3.210  0.00  0.00    -0.005 C 
HETATM   55  C   UNK N   1      33.187  16.015   3.289  0.00  0.00     0.005 C 
ENDBRANCH  53  54
ENDBRANCH  52  53
ENDBRANCH  51  52
ENDBRANCH  50  51
ENDBRANCH  49  50
ENDBRANCH  48  49
ENDBRANCH  47  48
ENDBRANCH  46  47
ENDBRANCH  45  46
ENDBRANCH  44  45
ENDBRANCH  43  44
ENDBRANCH  42  43
ENDBRANCH  41  42
ENDBRANCH  40  41
ENDBRANCH  39  40
ENDBRANCH  37  39
ENDBRANCH  36  37
ENDBRANCH   1  36
TORSDOF 45
ENDMDL
MODEL 2
REMARK VINA RESULT:      -5.1      1.229      2.274
REMARK WARNING: 32 MAX_TORS EXCEEDED!!!
REMARK  45 active torsions:
REMARK  status: ('A' for Active; 'I' for Inactive)
REMARK    1  A    between atoms: C_2  and  C_3 
REMARK    2  A    between atoms: C_3  and  C_4 
REMARK    3  A    between atoms: C_4  and  C_5 
REMARK    4  A    between atoms: C_5  and  C_6 
REMARK    5  A    between atoms: C_6  and  C_7 
REMARK    6  A    between atoms: C_7  and  C_8 
REMARK    7  A    between atoms: C_8  and  C_9 
REMARK    8  A    between atoms: C_9  and  C_10 
REMARK    9  A    between atoms: C_10  and  C_11 
REMARK   10  A    between atoms: C_11  and  C_12 
REMARK   11  A    between atoms: C_12  and  C_13 
REMARK   12  A    between atoms: C_13  and  C_14 
REMARK   13  A    between atoms: C_14  and  C_15 
REMARK   14  A    between atoms: C_15  and  C_16 
REMARK   15  A    between atoms: C_16  and  C_17 
REMARK   16  A    between atoms: C_17  and  C_18 
REMARK   17  A    between atoms: C_18  and  O_20 
REMARK   18  A    between atoms: O_20  and  C_21 
REMARK   19  A    between atoms: C_21  and  C_22 
REMARK   20  A    between atoms: C_22  and  C_23 
REMARK   21  A    between atoms: C_22  and  O_32 
REMARK   22  A    between atoms: C_23  and  O_24 
REMARK   23  A    between atoms: P_25  and  O_24 
REMARK   24  A    between atoms: P_25  and  O_26 
REMARK   25  A    between atoms: P_25  and  O_28 
REMARK   26  A    between atoms: O_28  and  C_29 
REMARK   27  A    between atoms: C_29  and  C_30 
REMARK   28  A    between atoms: C_30  and  N_31 
REMARK   29  A    between atoms: O_32  and  C_33 
REMARK   30  A    between atoms: C_33  and  C_35 
REMARK   31  A    between atoms: C_35  and  C_36 
REMARK   32  A    between atoms: C_36  and  C_37 
REMARK   33  A    between atoms: C_37  and  C_38 
REMARK   34  A    between atoms: C_38  and  C_39 
REMARK   35  A    between atoms: C_39  and  C_40 
REMARK   36  A    between atoms: C_40  and  C_41 
REMARK   37  A    between atoms: C_41  and  C_42 
REMARK   38  A    between atoms: C_42  and  C_43 
REMARK   39  A    between atoms: C_43  and  C_44 
REMARK   40  A    between atoms: C_44  and  C_45 
REMARK   41  A    between atoms: C_45  and  C_46 
REMARK   42  A    between atoms: C_46  and  C_47 
REMARK   43  A    between atoms: C_47  and  C_48 
REMARK   44  A    between atoms: C_48  and  C_49 
REMARK   45  A    between atoms: C_49  and  C_50 
ROOT
HETATM    1  C   UNK N   1      21.263  18.410   3.815  0.00  0.00     0.180 C 
ENDROOT
BRANCH   1   2
HETATM    2  C   UNK N   1      20.578  17.735   2.627  0.00  0.00     0.213 C 
BRANCH   2   3
HETATM    3  O   UNK N   1      21.187  16.534   2.334  0.00  0.00    -0.319 OA
BRANCH   3   4
HETATM    4  C   UNK N   1      20.915  15.844   1.200  0.00  0.00     0.258 C 
HETATM    5  O   UNK N   1      20.438  16.425   0.240  0.00  0.00    -0.265 OA
BRANCH   4   6
HETATM    6  C   UNK N   1      21.189  14.374   1.117  0.00  0.00     0.111 C 
BRANCH   6   7
HETATM    7  C   UNK N   1      22.487  14.056   1.825  0.00  0.00     0.010 C 
BRANCH   7   8
HETATM    8  C   UNK N   1      23.636  14.216   0.851  0.00  0.00     0.000 C 
BRANCH   8   9
HETATM    9  C   UNK N   1      24.934  14.346   1.624  0.00  0.00     0.000 C 
BRANCH   9  10
HETATM   10  C   UNK N   1      25.691  13.021   1.665  0.00  0.00     0.000 C 
BRANCH  10  11
HETATM   11  C   UNK N   1      26.258  12.694   3.042  0.00  0.00     0.000 C 
BRANCH  11  12
HETATM   12  C   UNK N   1      25.325  13.161   4.149  0.00  0.00     0.000 C 
BRANCH  12  13
HETATM   13  C   UNK N   1      26.072  13.210   5.471  0.00  0.00     0.000 C 
BRANCH  13  14
HETATM   14  C   UNK N   1      25.742  14.488   6.219  0.00  0.00     0.000 C 
BRANCH  14  15
HETATM   15  C   UNK N   1      24.586  15.196   5.543  0.00  0.00     0.000 C 
BRANCH  15  16
HETATM   16  C   UNK N   1      24.885  16.675   5.438  0.00  0.00     0.000 C 
BRANCH  16  17
HETATM   17  C   UNK N   1      26.364  16.831   5.180  0.00  0.00     0.000 C 
BRANCH  17  18
HETATM   18  C   UNK N   1      26.680  16.615   3.718  0.00  0.00     0.000 C 
BRANCH  18  19
HETATM   19  C   UNK N   1      28.137  16.216   3.625  0.00  0.00     0.000 C 
BRANCH  19  20
HETATM   20  C   UNK N   1      28.823  16.375   4.962  0.00  0.00    -0.000 C 
BRANCH  20  21
HETATM   21  C   UNK N   1      29.470  15.054   5.323  0.00  0.00    -0.005 C 
HETATM   22  C   UNK N   1      29.524  14.160   4.104  0.00  0.00     0.005 C 
ENDBRANCH  20  21
ENDBRANCH  19  20
ENDBRANCH  18  19
ENDBRANCH  17  18
ENDBRANCH  16  17
ENDBRANCH  15  16
ENDBRANCH  14  15
ENDBRANCH  13  14
ENDBRANCH  12  13
ENDBRANCH  11  12
ENDBRANCH  10  11
ENDBRANCH   9  10
ENDBRANCH   8   9
ENDBRANCH   7   8
ENDBRANCH   6   7
ENDBRANCH   4   6
ENDBRANCH   3   4
ENDBRANCH   2   3
ENDBRANCH   1   2
BRANCH   1  23
HETATM   23  C   UNK N   1      21.319  17.448   5.000  0.00  0.00     0.215 C 
BRANCH  23  24
HETATM   24  O   UNK N   1      20.033  17.026   5.354  0.00  0.00    -0.294 OA
BRANCH  24  25
HETATM   25  P   UNK N   1      20.270  15.497   6.154  0.00  0.00     0.393 P 
HETATM   26  O   UNK N   1      18.724  15.644   6.166  0.00  0.00    -0.631 OA
BRANCH  25  27
HETATM   27  O   UNK N   1      20.993  16.773   7.087  0.00  0.00    -0.307 OA
HETATM   28  H   UNK N   1      21.926  16.751   7.352  0.00  0.00     0.222 HD
ENDBRANCH  25  27
BRANCH  25  29
HETATM   29  O   UNK N   1      19.889  15.307   7.841  0.00  0.00    -0.295 OA
BRANCH  29  30
HETATM   30  C   UNK N   1      21.055  14.810   8.434  0.00  0.00     0.207 C 
BRANCH  30  31
HETATM   31  C   UNK N   1      20.693  13.952   9.634  0.00  0.00     0.256 C 
BRANCH  31  32
HETATM   32  N   UNK N   1      21.898  13.427  10.248  0.00  0.00    -0.077 N 
HETATM   33  H   UNK N   1      22.237  13.807  11.132  0.00  0.00     0.274 HD
HETATM   34  H   UNK N   1      22.411  12.671   9.791  0.00  0.00     0.274 HD
HETATM   35  H   UNK N   1      22.746  13.054  10.675  0.00  0.00     0.274 HD
ENDBRANCH  31  32
ENDBRANCH  30  31
ENDBRANCH  29  30
ENDBRANCH  25  29
ENDBRANCH  24  25
ENDBRANCH  23  24
ENDBRANCH   1  23
BRANCH   1  36
HETATM   36  O   UNK N   1      22.518  18.851   3.436  0.00  0.00    -0.312 OA
BRANCH  36  37
HETATM   37  C   UNK N   1      22.746  20.136   3.073  0.00  0.00     0.259 C 
HETATM   38  O   UNK N   1      21.822  20.930   3.015  0.00  0.00    -0.265 OA
BRANCH  37  39
HETATM   39  C   UNK N   1      24.145  20.605   2.838  0.00  0.00     0.111 C 
BRANCH  39  40
HETATM   40  C   UNK N   1      25.091  20.035   3.880  0.00  0.00     0.010 C 
BRANCH  40  41
HETATM   41  C   UNK N   1      26.541  20.219   3.461  0.00  0.00     0.000 C 
BRANCH  41  42
HETATM   42  C   UNK N   1      27.446  20.346   4.675  0.00  0.00     0.000 C 
BRANCH  42  43
HETATM   43  C   UNK N   1      26.719  21.092   5.781  0.00  0.00     0.000 C 
BRANCH  43  44
HETATM   44  C   UNK N   1      27.202  20.638   7.153  0.00  0.00     0.000 C 
BRANCH  44  45
HETATM   45  C   UNK N   1      28.003  19.342   7.100  0.00  0.00     0.000 C 
BRANCH  45  46
HETATM   46  C   UNK N   1      28.061  18.687   8.466  0.00  0.00     0.000 C 
BRANCH  46  47
HETATM   47  C   UNK N   1      28.993  17.494   8.422  0.00  0.00     0.000 C 
BRANCH  47  48
HETATM   48  C   UNK N   1      30.378  17.927   8.859  0.00  0.00     0.000 C 
BRANCH  48  49
HETATM   49  C   UNK N   1      31.401  17.614   7.784  0.00  0.00     0.000 C 
BRANCH  49  50
HETATM   50  C   UNK N   1      32.780  17.993   8.283  0.00  0.00     0.000 C 
BRANCH  50  51
HETATM   51  C   UNK N   1      33.803  17.772   7.193  0.00  0.00     0.000 C 
BRANCH  51  52
HETATM   52  C   UNK N   1      33.230  16.792   6.195  0.00  0.00     0.000 C 
BRANCH  52  53
HETATM   53  C   UNK N   1      33.472  17.290   4.788  0.00  0.00    -0.000 C 
BRANCH  53  54
HETATM   54  C   UNK N   1      32.144  17.646   4.156  0.00  0.00    -0.005 C 
HETATM   55  C   UNK N   1      31.984  16.893   2.854  0.00  0.00     0.005 C 
ENDBRANCH  53  54
ENDBRANCH  52  53
ENDBRANCH  51  52
ENDBRANCH  50  51
ENDBRANCH  49  50
ENDBRANCH  48  49
ENDBRANCH  47  48
ENDBRANCH  46  47
ENDBRANCH  45  46
ENDBRANCH  44  45
ENDBRANCH  43  44
ENDBRANCH  42  43
ENDBRANCH  41  42
ENDBRANCH  40  41
ENDBRANCH  39  40
ENDBRANCH  37  39
ENDBRANCH  36  37
ENDBRANCH   1  36
TORSDOF 45
ENDMDL
MODEL 3
REMARK VINA RESULT:      -5.1      2.167      6.744
REMARK WARNING: 32 MAX_TORS EXCEEDED!!!
REMARK  45 active torsions:
REMARK  status: ('A' for Active; 'I' for Inactive)
REMARK    1  A    between atoms: C_2  and  C_3 
REMARK    2  A    between atoms: C_3  and  C_4 
REMARK    3  A    between atoms: C_4  and  C_5 
REMARK    4  A    between atoms: C_5  and  C_6 
REMARK    5  A    between atoms: C_6  and  C_7 
REMARK    6  A    between atoms: C_7  and  C_8 
REMARK    7  A    between atoms: C_8  and  C_9 
REMARK    8  A    between atoms: C_9  and  C_10 
REMARK    9  A    between atoms: C_10  and  C_11 
REMARK   10  A    between atoms: C_11  and  C_12 
REMARK   11  A    between atoms: C_12  and  C_13 
REMARK   12  A    between atoms: C_13  and  C_14 
REMARK   13  A    between atoms: C_14  and  C_15 
REMARK   14  A    between atoms: C_15  and  C_16 
REMARK   15  A    between atoms: C_16  and  C_17 
REMARK   16  A    between atoms: C_17  and  C_18 
REMARK   17  A    between atoms: C_18  and  O_20 
REMARK   18  A    between atoms: O_20  and  C_21 
REMARK   19  A    between atoms: C_21  and  C_22 
REMARK   20  A    between atoms: C_22  and  C_23 
REMARK   21  A    between atoms: C_22  and  O_32 
REMARK   22  A    between atoms: C_23  and  O_24 
REMARK   23  A    between atoms: P_25  and  O_24 
REMARK   24  A    between atoms: P_25  and  O_26 
REMARK   25  A    between atoms: P_25  and  O_28 
REMARK   26  A    between atoms: O_28  and  C_29 
REMARK   27  A    between atoms: C_29  and  C_30 
REMARK   28  A    between atoms: C_30  and  N_31 
REMARK   29  A    between atoms: O_32  and  C_33 
REMARK   30  A    between atoms: C_33  and  C_35 
REMARK   31  A    between atoms: C_35  and  C_36 
REMARK   32  A    between atoms: C_36  and  C_37 
REMARK   33  A    between atoms: C_37  and  C_38 
REMARK   34  A    between atoms: C_38  and  C_39 
REMARK   35  A    between atoms: C_39  and  C_40 
REMARK   36  A    between atoms: C_40  and  C_41 
REMARK   37  A    between atoms: C_41  and  C_42 
REMARK   38  A    between atoms: C_42  and  C_43 
REMARK   39  A    between atoms: C_43  and  C_44 
REMARK   40  A    between atoms: C_44  and  C_45 
REMARK   41  A    between atoms: C_45  and  C_46 
REMARK   42  A    between atoms: C_46  and  C_47 
REMARK   43  A    between atoms: C_47  and  C_48 
REMARK   44  A    between atoms: C_48  and  C_49 
REMARK   45  A    between atoms: C_49  and  C_50 
ROOT
HETATM    1  C   UNK N   1      20.036  15.880   7.046  0.00  0.00     0.180 C 
ENDROOT
BRANCH   1   2
HETATM    2  C   UNK N   1      21.337  16.646   6.807  0.00  0.00     0.213 C 
BRANCH   2   3
HETATM    3  O   UNK N   1      21.073  17.931   6.385  0.00  0.00    -0.319 OA
BRANCH   3   4
HETATM    4  C   UNK N   1      21.493  18.397   5.183  0.00  0.00     0.258 C 
HETATM    5  O   UNK N   1      20.970  19.390   4.707  0.00  0.00    -0.265 OA
BRANCH   4   6
HETATM    6  C   UNK N   1      22.588  17.702   4.435  0.00  0.00     0.111 C 
BRANCH   6   7
HETATM    7  C   UNK N   1      23.899  18.422   4.663  0.00  0.00     0.010 C 
BRANCH   7   8
HETATM    8  C   UNK N   1      24.026  19.550   3.661  0.00  0.00     0.000 C 
BRANCH   8   9
HETATM    9  C   UNK N   1      25.487  19.737   3.300  0.00  0.00     0.000 C 
BRANCH   9  10
HETATM   10  C   UNK N   1      26.265  20.376   4.449  0.00  0.00     0.000 C 
BRANCH  10  11
HETATM   11  C   UNK N   1      27.742  19.998   4.458  0.00  0.00     0.000 C 
BRANCH  11  12
HETATM   12  C   UNK N   1      28.156  19.420   5.802  0.00  0.00     0.000 C 
BRANCH  12  13
HETATM   13  C   UNK N   1      27.325  18.188   6.116  0.00  0.00     0.000 C 
BRANCH  13  14
HETATM   14  C   UNK N   1      28.128  17.204   6.947  0.00  0.00     0.000 C 
BRANCH  14  15
HETATM   15  C   UNK N   1      28.985  17.955   7.945  0.00  0.00     0.000 C 
BRANCH  15  16
HETATM   16  C   UNK N   1      30.386  17.384   7.945  0.00  0.00     0.000 C 
BRANCH  16  17
HETATM   17  C   UNK N   1      30.568  16.603   6.667  0.00  0.00     0.000 C 
BRANCH  17  18
HETATM   18  C   UNK N   1      31.714  17.161   5.855  0.00  0.00     0.000 C 
BRANCH  18  19
HETATM   19  C   UNK N   1      31.162  17.548   4.500  0.00  0.00     0.000 C 
BRANCH  19  20
HETATM   20  C   UNK N   1      32.139  17.199   3.402  0.00  0.00    -0.000 C 
BRANCH  20  21
HETATM   21  C   UNK N   1      33.167  16.242   3.968  0.00  0.00    -0.005 C 
HETATM   22  C   UNK N   1      33.461  15.151   2.962  0.00  0.00     0.005 C 
ENDBRANCH  20  21
ENDBRANCH  19  20
ENDBRANCH  18  19
ENDBRANCH  17  18
ENDBRANCH  16  17
ENDBRANCH  15  16
ENDBRANCH  14  15
ENDBRANCH  13  14
ENDBRANCH  12  13
ENDBRANCH  11  12
ENDBRANCH  10  11
ENDBRANCH   9  10
ENDBRANCH   8   9
ENDBRANCH   7   8
ENDBRANCH   6   7
ENDBRANCH   4   6
ENDBRANCH   3   4
ENDBRANCH   2   3
ENDBRANCH   1   2
BRANCH   1  23
HETATM   23  C   UNK N   1      19.257  15.757   5.738  0.00  0.00     0.215 C 
BRANCH  23  24
HETATM   24  O   UNK N   1      19.187  14.422   5.328  0.00  0.00    -0.294 OA
BRANCH  24  25
HETATM   25  P   UNK N   1      19.517  14.462   3.619  0.00  0.00     0.393 P 
HETATM   26  O   UNK N   1      20.933  14.266   4.227  0.00  0.00    -0.631 OA
BRANCH  25  27
HETATM   27  O   UNK N   1      18.858  15.987   4.131  0.00  0.00    -0.307 OA
HETATM   28  H   UNK N   1      18.133  16.045   4.773  0.00  0.00     0.222 HD
ENDBRANCH  25  27
BRANCH  25  29
HETATM   29  O   UNK N   1      20.412  15.778   2.916  0.00  0.00    -0.295 OA
BRANCH  29  30
HETATM   30  C   UNK N   1      20.029  15.816   1.570  0.00  0.00     0.207 C 
BRANCH  30  31
HETATM   31  C   UNK N   1      20.029  17.252   1.078  0.00  0.00     0.256 C 
BRANCH  31  32
HETATM   32  N   UNK N   1      19.484  18.126   2.100  0.00  0.00    -0.077 N 
HETATM   33  H   UNK N   1      20.097  18.741   2.635  0.00  0.00     0.274 HD
HETATM   34  H   UNK N   1      18.481  18.124   2.286  0.00  0.00     0.274 HD
HETATM   35  H   UNK N   1      19.096  18.738   2.818  0.00  0.00     0.274 HD
ENDBRANCH  31  32
ENDBRANCH  30  31
ENDBRANCH  29  30
ENDBRANCH  25  29
ENDBRANCH  24  25
ENDBRANCH  23  24
ENDBRANCH   1  23
BRANCH   1  36
HETATM   36  O   UNK N   1      20.320  14.649   7.608  0.00  0.00    -0.312 OA
BRANCH  36  37
HETATM   37  C   UNK N   1      20.359  14.466   8.949  0.00  0.00     0.259 C 
HETATM   38  O   UNK N   1      19.330  14.507   9.604  0.00  0.00    -0.265 OA
BRANCH  37  39
HETATM   39  C   UNK N   1      21.650  14.115   9.615  0.00  0.00     0.111 C 
BRANCH  39  40
HETATM   40  C   UNK N   1      21.753  12.617   9.842  0.00  0.00     0.010 C 
BRANCH  40  41
HETATM   41  C   UNK N   1      23.003  12.050   9.186  0.00  0.00     0.000 C 
BRANCH  41  42
HETATM   42  C   UNK N   1      24.121  13.078   9.169  0.00  0.00     0.000 C 
BRANCH  42  43
HETATM   43  C   UNK N   1      24.846  13.028   7.835  0.00  0.00     0.000 C 
BRANCH  43  44
HETATM   44  C   UNK N   1      25.315  14.416   7.416  0.00  0.00     0.000 C 
BRANCH  44  45
HETATM   45  C   UNK N   1      25.807  14.465   5.975  0.00  0.00     0.000 C 
BRANCH  45  46
HETATM   46  C   UNK N   1      24.727  13.997   5.019  0.00  0.00     0.000 C 
BRANCH  46  47
HETATM   47  C   UNK N   1      25.305  13.845   3.627  0.00  0.00     0.000 C 
BRANCH  47  48
HETATM   48  C   UNK N   1      24.990  15.086   2.818  0.00  0.00     0.000 C 
BRANCH  48  49
HETATM   49  C   UNK N   1      26.239  15.610   2.134  0.00  0.00     0.000 C 
BRANCH  49  50
HETATM   50  C   UNK N   1      26.967  16.547   3.075  0.00  0.00     0.000 C 
BRANCH  50  51
HETATM   51  C   UNK N   1      28.321  15.977   3.427  0.00  0.00     0.000 C 
BRANCH  51  52
HETATM   52  C   UNK N   1      28.807  15.149   2.259  0.00  0.00     0.000 C 
BRANCH  52  53
HETATM   53  C   UNK N   1      29.477  13.891   2.762  0.00  0.00    -0.000 C 
BRANCH  53  54
HETATM   54  C   UNK N   1      29.344  13.829   4.268  0.00  0.00    -0.005 C 
HETATM   55  C   UNK N   1      30.686  13.494   4.881  0.00  0.00     0.005 C 
ENDBRANCH  53  54
ENDBRANCH  52  53
ENDBRANCH  51  52
ENDBRANCH  50  51
ENDBRANCH  49  50
ENDBRANCH  48  49
ENDBRANCH  47  48
ENDBRANCH  46  47
ENDBRANCH  45  46
ENDBRANCH  44  45
ENDBRANCH  43  44
ENDBRANCH  42  43
ENDBRANCH  41  42
ENDBRANCH  40  41
ENDBRANCH  39  40
ENDBRANCH  37  39
ENDBRANCH  36  37
ENDBRANCH   1  36
TORSDOF 45
ENDMDL
MODEL 4
REMARK VINA RESULT:      -4.9      1.404      2.320
REMARK WARNING: 32 MAX_TORS EXCEEDED!!!
REMARK  45 active torsions:
REMARK  status: ('A' for Active; 'I' for Inactive)
REMARK    1  A    between atoms: C_2  and  C_3 
REMARK    2  A    between atoms: C_3  and  C_4 
REMARK    3  A    between atoms: C_4  and  C_5 
REMARK    4  A    between atoms: C_5  and  C_6 
REMARK    5  A    between atoms: C_6  and  C_7 
REMARK    6  A    between atoms: C_7  and  C_8 
REMARK    7  A    between atoms: C_8  and  C_9 
REMARK    8  A    between atoms: C_9  and  C_10 
REMARK    9  A    between atoms: C_10  and  C_11 
REMARK   10  A    between atoms: C_11  and  C_12 
REMARK   11  A    between atoms: C_12  and  C_13 
REMARK   12  A    between atoms: C_13  and  C_14 
REMARK   13  A    between atoms: C_14  and  C_15 
REMARK   14  A    between atoms: C_15  and  C_16 
REMARK   15  A    between atoms: C_16  and  C_17 
REMARK   16  A    between atoms: C_17  and  C_18 
REMARK   17  A    between atoms: C_18  and  O_20 
REMARK   18  A    between atoms: O_20  and  C_21 
REMARK   19  A    between atoms: C_21  and  C_22 
REMARK   20  A    between atoms: C_22  and  C_23 
REMARK   21  A    between atoms: C_22  and  O_32 
REMARK   22  A    between atoms: C_23  and  O_24 
REMARK   23  A    between atoms: P_25  and  O_24 
REMARK   24  A    between atoms: P_25  and  O_26 
REMARK   25  A    between atoms: P_25  and  O_28 
REMARK   26  A    between atoms: O_28  and  C_29 
REMARK   27  A    between atoms: C_29  and  C_30 
REMARK   28  A    between atoms: C_30  and  N_31 
REMARK   29  A    between atoms: O_32  and  C_33 
REMARK   30  A    between atoms: C_33  and  C_35 
REMARK   31  A    between atoms: C_35  and  C_36 
REMARK   32  A    between atoms: C_36  and  C_37 
REMARK   33  A    between atoms: C_37  and  C_38 
REMARK   34  A    between atoms: C_38  and  C_39 
REMARK   35  A    between atoms: C_39  and  C_40 
REMARK   36  A    between atoms: C_40  and  C_41 
REMARK   37  A    between atoms: C_41  and  C_42 
REMARK   38  A    between atoms: C_42  and  C_43 
REMARK   39  A    between atoms: C_43  and  C_44 
REMARK   40  A    between atoms: C_44  and  C_45 
REMARK   41  A    between atoms: C_45  and  C_46 
REMARK   42  A    between atoms: C_46  and  C_47 
REMARK   43  A    between atoms: C_47  and  C_48 
REMARK   44  A    between atoms: C_48  and  C_49 
REMARK   45  A    between atoms: C_49  and  C_50 
ROOT
HETATM    1  C   UNK N   1      21.619  19.465   3.581  0.00  0.00     0.180 C 
ENDROOT
BRANCH   1   2
HETATM    2  C   UNK N   1      20.863  18.833   2.414  0.00  0.00     0.213 C 
BRANCH   2   3
HETATM    3  O   UNK N   1      20.920  17.458   2.485  0.00  0.00    -0.319 OA
BRANCH   3   4
HETATM    4  C   UNK N   1      20.436  16.662   1.500  0.00  0.00     0.258 C 
HETATM    5  O   UNK N   1      20.423  17.067   0.350  0.00  0.00    -0.265 OA
BRANCH   4   6
HETATM    6  C   UNK N   1      19.914  15.294   1.813  0.00  0.00     0.111 C 
BRANCH   6   7
HETATM    7  C   UNK N   1      20.608  14.271   0.940  0.00  0.00     0.010 C 
BRANCH   7   8
HETATM    8  C   UNK N   1      21.803  13.714   1.685  0.00  0.00     0.000 C 
BRANCH   8   9
HETATM    9  C   UNK N   1      23.035  13.824   0.807  0.00  0.00     0.000 C 
BRANCH   9  10
HETATM   10  C   UNK N   1      24.257  14.254   1.616  0.00  0.00     0.000 C 
BRANCH  10  11
HETATM   11  C   UNK N   1      23.913  15.177   2.781  0.00  0.00     0.000 C 
BRANCH  11  12
HETATM   12  C   UNK N   1      25.082  16.085   3.131  0.00  0.00     0.000 C 
BRANCH  12  13
HETATM   13  C   UNK N   1      26.173  15.954   2.082  0.00  0.00     0.000 C 
BRANCH  13  14
HETATM   14  C   UNK N   1      27.506  15.646   2.740  0.00  0.00     0.000 C 
BRANCH  14  15
HETATM   15  C   UNK N   1      28.028  14.314   2.243  0.00  0.00     0.000 C 
BRANCH  15  16
HETATM   16  C   UNK N   1      27.560  13.208   3.163  0.00  0.00     0.000 C 
BRANCH  16  17
HETATM   17  C   UNK N   1      27.565  13.745   4.573  0.00  0.00     0.000 C 
BRANCH  17  18
HETATM   18  C   UNK N   1      26.322  13.314   5.317  0.00  0.00     0.000 C 
BRANCH  18  19
HETATM   19  C   UNK N   1      25.880  11.991   4.731  0.00  0.00     0.000 C 
BRANCH  19  20
HETATM   20  C   UNK N   1      24.376  11.942   4.588  0.00  0.00    -0.000 C 
BRANCH  20  21
HETATM   21  C   UNK N   1      23.774  12.922   5.573  0.00  0.00    -0.005 C 
HETATM   22  C   UNK N   1      22.276  12.988   5.380  0.00  0.00     0.005 C 
ENDBRANCH  20  21
ENDBRANCH  19  20
ENDBRANCH  18  19
ENDBRANCH  17  18
ENDBRANCH  16  17
ENDBRANCH  15  16
ENDBRANCH  14  15
ENDBRANCH  13  14
ENDBRANCH  12  13
ENDBRANCH  11  12
ENDBRANCH  10  11
ENDBRANCH   9  10
ENDBRANCH   8   9
ENDBRANCH   7   8
ENDBRANCH   6   7
ENDBRANCH   4   6
ENDBRANCH   3   4
ENDBRANCH   2   3
ENDBRANCH   1   2
BRANCH   1  23
HETATM   23  C   UNK N   1      21.090  18.914   4.904  0.00  0.00     0.215 C 
BRANCH  23  24
HETATM   24  O   UNK N   1      22.064  18.138   5.541  0.00  0.00    -0.294 OA
BRANCH  24  25
HETATM   25  P   UNK N   1      21.201  16.756   6.156  0.00  0.00     0.393 P 
HETATM   26  O   UNK N   1      20.977  17.812   7.272  0.00  0.00    -0.631 OA
BRANCH  25  27
HETATM   27  O   UNK N   1      22.894  16.386   6.021  0.00  0.00    -0.307 OA
HETATM   28  H   UNK N   1      23.369  15.891   6.707  0.00  0.00     0.222 HD
ENDBRANCH  25  27
BRANCH  25  29
HETATM   29  O   UNK N   1      21.755  15.921   7.577  0.00  0.00    -0.295 OA
BRANCH  29  30
HETATM   30  C   UNK N   1      20.676  15.937   8.467  0.00  0.00     0.207 C 
BRANCH  30  31
HETATM   31  C   UNK N   1      20.398  14.528   8.961  0.00  0.00     0.256 C 
BRANCH  31  32
HETATM   32  N   UNK N   1      21.475  14.088   9.829  0.00  0.00    -0.077 N 
HETATM   33  H   UNK N   1      21.427  13.180  10.293  0.00  0.00     0.274 HD
HETATM   34  H   UNK N   1      22.284  14.691   9.978  0.00  0.00     0.274 HD
HETATM   35  H   UNK N   1      22.234  13.783  10.439  0.00  0.00     0.274 HD
ENDBRANCH  31  32
ENDBRANCH  30  31
ENDBRANCH  29  30
ENDBRANCH  25  29
ENDBRANCH  24  25
ENDBRANCH  23  24
ENDBRANCH   1  23
BRANCH   1  36
HETATM   36  O   UNK N   1      22.976  19.247   3.425  0.00  0.00    -0.312 OA
BRANCH  36  37
HETATM   37  C   UNK N   1      23.824  20.240   3.065  0.00  0.00     0.259 C 
HETATM   38  O   UNK N   1      23.409  21.377   2.915  0.00  0.00    -0.265 OA
BRANCH  37  39
HETATM   39  C   UNK N   1      25.288  19.962   2.947  0.00  0.00     0.111 C 
BRANCH  39  40
HETATM   40  C   UNK N   1      25.885  19.618   4.300  0.00  0.00     0.010 C 
BRANCH  40  41
HETATM   41  C   UNK N   1      27.306  20.148   4.420  0.00  0.00     0.000 C 
BRANCH  41  42
HETATM   42  C   UNK N   1      28.254  19.058   4.891  0.00  0.00     0.000 C 
BRANCH  42  43
HETATM   43  C   UNK N   1      27.457  17.856   5.369  0.00  0.00     0.000 C 
BRANCH  43  44
HETATM   44  C   UNK N   1      28.207  17.105   6.463  0.00  0.00     0.000 C 
BRANCH  44  45
HETATM   45  C   UNK N   1      28.833  18.034   7.497  0.00  0.00     0.000 C 
BRANCH  45  46
HETATM   46  C   UNK N   1      30.255  17.614   7.811  0.00  0.00     0.000 C 
BRANCH  46  47
HETATM   47  C   UNK N   1      30.867  16.935   6.603  0.00  0.00     0.000 C 
BRANCH  47  48
HETATM   48  C   UNK N   1      32.374  17.075   6.662  0.00  0.00     0.000 C 
BRANCH  48  49
HETATM   49  C   UNK N   1      32.926  17.502   5.316  0.00  0.00     0.000 C 
BRANCH  49  50
HETATM   50  C   UNK N   1      31.786  17.631   4.328  0.00  0.00     0.000 C 
BRANCH  50  51
HETATM   51  C   UNK N   1      32.191  17.054   2.992  0.00  0.00     0.000 C 
BRANCH  51  52
HETATM   52  C   UNK N   1      32.599  15.613   3.200  0.00  0.00     0.000 C 
BRANCH  52  53
HETATM   53  C   UNK N   1      31.373  14.729   3.226  0.00  0.00    -0.000 C 
BRANCH  53  54
HETATM   54  C   UNK N   1      31.292  14.036   4.568  0.00  0.00    -0.005 C 
HETATM   55  C   UNK N   1      31.163  12.543   4.360  0.00  0.00     0.005 C 
ENDBRANCH  53  54
ENDBRANCH  52  53
ENDBRANCH  51  52
ENDBRANCH  50  51
ENDBRANCH  49  50
ENDBRANCH  48  49
ENDBRANCH  47  48
ENDBRANCH  46  47
ENDBRANCH  45  46
ENDBRANCH  44  45
ENDBRANCH  43  44
ENDBRANCH  42  43
ENDBRANCH  41  42
ENDBRANCH  40  41
ENDBRANCH  39  40
ENDBRANCH  37  39
ENDBRANCH  36  37
ENDBRANCH   1  36
TORSDOF 45
ENDMDL
MODEL 5
REMARK VINA RESULT:      -4.9      1.484      6.529
REMARK WARNING: 32 MAX_TORS EXCEEDED!!!
REMARK  45 active torsions:
REMARK  status: ('A' for Active; 'I' for Inactive)
REMARK    1  A    between atoms: C_2  and  C_3 
REMARK    2  A    between atoms: C_3  and  C_4 
REMARK    3  A    between atoms: C_4  and  C_5 
REMARK    4  A    between atoms: C_5  and  C_6 
REMARK    5  A    between atoms: C_6  and  C_7 
REMARK    6  A    between atoms: C_7  and  C_8 
REMARK    7  A    between atoms: C_8  and  C_9 
REMARK    8  A    between atoms: C_9  and  C_10 
REMARK    9  A    between atoms: C_10  and  C_11 
REMARK   10  A    between atoms: C_11  and  C_12 
REMARK   11  A    between atoms: C_12  and  C_13 
REMARK   12  A    between atoms: C_13  and  C_14 
REMARK   13  A    between atoms: C_14  and  C_15 
REMARK   14  A    between atoms: C_15  and  C_16 
REMARK   15  A    between atoms: C_16  and  C_17 
REMARK   16  A    between atoms: C_17  and  C_18 
REMARK   17  A    between atoms: C_18  and  O_20 
REMARK   18  A    between atoms: O_20  and  C_21 
REMARK   19  A    between atoms: C_21  and  C_22 
REMARK   20  A    between atoms: C_22  and  C_23 
REMARK   21  A    between atoms: C_22  and  O_32 
REMARK   22  A    between atoms: C_23  and  O_24 
REMARK   23  A    between atoms: P_25  and  O_24 
REMARK   24  A    between atoms: P_25  and  O_26 
REMARK   25  A    between atoms: P_25  and  O_28 
REMARK   26  A    between atoms: O_28  and  C_29 
REMARK   27  A    between atoms: C_29  and  C_30 
REMARK   28  A    between atoms: C_30  and  N_31 
REMARK   29  A    between atoms: O_32  and  C_33 
REMARK   30  A    between atoms: C_33  and  C_35 
REMARK   31  A    between atoms: C_35  and  C_36 
REMARK   32  A    between atoms: C_36  and  C_37 
REMARK   33  A    between atoms: C_37  and  C_38 
REMARK   34  A    between atoms: C_38  and  C_39 
REMARK   35  A    between atoms: C_39  and  C_40 
REMARK   36  A    between atoms: C_40  and  C_41 
REMARK   37  A    between atoms: C_41  and  C_42 
REMARK   38  A    between atoms: C_42  and  C_43 
REMARK   39  A    between atoms: C_43  and  C_44 
REMARK   40  A    between atoms: C_44  and  C_45 
REMARK   41  A    between atoms: C_45  and  C_46 
REMARK   42  A    between atoms: C_46  and  C_47 
REMARK   43  A    between atoms: C_47  and  C_48 
REMARK   44  A    between atoms: C_48  and  C_49 
REMARK   45  A    between atoms: C_49  and  C_50 
ROOT
HETATM    1  C   UNK N   1      22.191  18.183   4.741  0.00  0.00     0.180 C 
ENDROOT
BRANCH   1   2
HETATM    2  C   UNK N   1      23.675  18.518   4.879  0.00  0.00     0.213 C 
BRANCH   2   3
HETATM    3  O   UNK N   1      24.242  18.728   3.641  0.00  0.00    -0.319 OA
BRANCH   3   4
HETATM    4  C   UNK N   1      24.851  19.894   3.312  0.00  0.00     0.258 C 
HETATM    5  O   UNK N   1      24.218  20.762   2.737  0.00  0.00    -0.265 OA
BRANCH   4   6
HETATM    6  C   UNK N   1      26.293  20.122   3.646  0.00  0.00     0.111 C 
BRANCH   6   7
HETATM    7  C   UNK N   1      26.401  20.902   4.938  0.00  0.00     0.010 C 
BRANCH   7   8
HETATM    8  C   UNK N   1      27.757  20.644   5.560  0.00  0.00     0.000 C 
BRANCH   8   9
HETATM    9  C   UNK N   1      28.209  19.238   5.213  0.00  0.00     0.000 C 
BRANCH   9  10
HETATM   10  C   UNK N   1      28.113  18.309   6.421  0.00  0.00     0.000 C 
BRANCH  10  11
HETATM   11  C   UNK N   1      28.055  19.055   7.750  0.00  0.00     0.000 C 
BRANCH  11  12
HETATM   12  C   UNK N   1      28.640  18.220   8.878  0.00  0.00     0.000 C 
BRANCH  12  13
HETATM   13  C   UNK N   1      29.925  18.856   9.381  0.00  0.00     0.000 C 
BRANCH  13  14
HETATM   14  C   UNK N   1      31.131  18.170   8.766  0.00  0.00     0.000 C 
BRANCH  14  15
HETATM   15  C   UNK N   1      30.818  16.710   8.511  0.00  0.00     0.000 C 
BRANCH  15  16
HETATM   16  C   UNK N   1      31.519  16.252   7.252  0.00  0.00     0.000 C 
BRANCH  16  17
HETATM   17  C   UNK N   1      32.296  17.422   6.701  0.00  0.00     0.000 C 
BRANCH  17  18
HETATM   18  C   UNK N   1      33.643  16.977   6.181  0.00  0.00     0.000 C 
BRANCH  18  19
HETATM   19  C   UNK N   1      33.457  16.566   4.736  0.00  0.00     0.000 C 
BRANCH  19  20
HETATM   20  C   UNK N   1      32.636  17.591   3.988  0.00  0.00    -0.000 C 
BRANCH  20  21
HETATM   21  C   UNK N   1      31.851  16.875   2.909  0.00  0.00    -0.005 C 
HETATM   22  C   UNK N   1      30.857  15.927   3.543  0.00  0.00     0.005 C 
ENDBRANCH  20  21
ENDBRANCH  19  20
ENDBRANCH  18  19
ENDBRANCH  17  18
ENDBRANCH  16  17
ENDBRANCH  15  16
ENDBRANCH  14  15
ENDBRANCH  13  14
ENDBRANCH  12  13
ENDBRANCH  11  12
ENDBRANCH  10  11
ENDBRANCH   9  10
ENDBRANCH   8   9
ENDBRANCH   7   8
ENDBRANCH   6   7
ENDBRANCH   4   6
ENDBRANCH   3   4
ENDBRANCH   2   3
ENDBRANCH   1   2
BRANCH   1  23
HETATM   23  C   UNK N   1      21.756  17.263   5.881  0.00  0.00     0.215 C 
BRANCH  23  24
HETATM   24  O   UNK N   1      21.146  17.997   6.903  0.00  0.00    -0.294 OA
BRANCH  24  25
HETATM   25  P   UNK N   1      20.157  16.842   7.751  0.00  0.00     0.393 P 
HETATM   26  O   UNK N   1      20.324  17.973   8.802  0.00  0.00    -0.631 OA
BRANCH  25  27
HETATM   27  O   UNK N   1      21.704  16.141   7.384  0.00  0.00    -0.307 OA
HETATM   28  H   UNK N   1      22.493  16.684   7.233  0.00  0.00     0.222 HD
ENDBRANCH  25  27
BRANCH  25  29
HETATM   29  O   UNK N   1      20.777  15.982   9.130  0.00  0.00    -0.295 OA
BRANCH  29  30
HETATM   30  C   UNK N   1      20.469  14.637   8.903  0.00  0.00     0.207 C 
BRANCH  30  31
HETATM   31  C   UNK N   1      21.278  13.760   9.842  0.00  0.00     0.256 C 
BRANCH  31  32
HETATM   32  N   UNK N   1      20.389  12.919  10.623  0.00  0.00    -0.077 N 
HETATM   33  H   UNK N   1      20.708  12.015  10.973  0.00  0.00     0.274 HD
HETATM   34  H   UNK N   1      19.439  13.233  10.822  0.00  0.00     0.274 HD
HETATM   35  H   UNK N   1      19.760  12.331  11.170  0.00  0.00     0.274 HD
ENDBRANCH  31  32
ENDBRANCH  30  31
ENDBRANCH  29  30
ENDBRANCH  25  29
ENDBRANCH  24  25
ENDBRANCH  23  24
ENDBRANCH   1  23
BRANCH   1  36
HETATM   36  O   UNK N   1      21.454  19.352   4.698  0.00  0.00    -0.312 OA
BRANCH  36  37
HETATM   37  C   UNK N   1      20.729  19.703   3.609  0.00  0.00     0.259 C 
HETATM   38  O   UNK N   1      20.870  20.806   3.108  0.00  0.00    -0.265 OA
BRANCH  37  39
HETATM   39  C   UNK N   1      19.825  18.703   2.963  0.00  0.00     0.111 C 
BRANCH  39  40
HETATM   40  C   UNK N   1      20.338  18.320   1.586  0.00  0.00     0.010 C 
BRANCH  40  41
HETATM   41  C   UNK N   1      20.338  16.810   1.404  0.00  0.00     0.000 C 
BRANCH  41  42
HETATM   42  C   UNK N   1      19.981  16.106   2.702  0.00  0.00     0.000 C 
BRANCH  42  43
HETATM   43  C   UNK N   1      20.976  14.989   2.971  0.00  0.00     0.000 C 
BRANCH  43  44
HETATM   44  C   UNK N   1      22.349  15.334   2.408  0.00  0.00     0.000 C 
BRANCH  44  45
HETATM   45  C   UNK N   1      23.491  14.764   3.241  0.00  0.00     0.000 C 
BRANCH  45  46
HETATM   46  C   UNK N   1      23.463  13.248   3.230  0.00  0.00     0.000 C 
BRANCH  46  47
HETATM   47  C   UNK N   1      23.724  12.721   4.626  0.00  0.00     0.000 C 
BRANCH  47  48
HETATM   48  C   UNK N   1      23.880  13.889   5.578  0.00  0.00     0.000 C 
BRANCH  48  49
HETATM   49  C   UNK N   1      25.206  13.810   6.310  0.00  0.00     0.000 C 
BRANCH  49  50
HETATM   50  C   UNK N   1      25.667  15.209   6.660  0.00  0.00     0.000 C 
BRANCH  50  51
HETATM   51  C   UNK N   1      26.087  15.944   5.408  0.00  0.00     0.000 C 
BRANCH  51  52
HETATM   52  C   UNK N   1      27.151  15.126   4.712  0.00  0.00     0.000 C 
BRANCH  52  53
HETATM   53  C   UNK N   1      27.129  15.409   3.227  0.00  0.00    -0.000 C 
BRANCH  53  54
HETATM   54  C   UNK N   1      27.127  14.096   2.474  0.00  0.00    -0.005 C 
HETATM   55  C   UNK N   1      27.369  12.958   3.440  0.00  0.00     0.005 C 
ENDBRANCH  53  54
ENDBRANCH  52  53
ENDBRANCH  51  52
ENDBRANCH  50  51
ENDBRANCH  49  50
ENDBRANCH  48  49
ENDBRANCH  47  48
ENDBRANCH  46  47
ENDBRANCH  45  46
ENDBRANCH  44  45
ENDBRANCH  43  44
ENDBRANCH  42  43
ENDBRANCH  41  42
ENDBRANCH  40  41
ENDBRANCH  39  40
ENDBRANCH  37  39
ENDBRANCH  36  37
ENDBRANCH   1  36
TORSDOF 45
ENDMDL
MODEL 6
REMARK VINA RESULT:      -4.8      2.212      4.266
REMARK WARNING: 32 MAX_TORS EXCEEDED!!!
REMARK  45 active torsions:
REMARK  status: ('A' for Active; 'I' for Inactive)
REMARK    1  A    between atoms: C_2  and  C_3 
REMARK    2  A    between atoms: C_3  and  C_4 
REMARK    3  A    between atoms: C_4  and  C_5 
REMARK    4  A    between atoms: C_5  and  C_6 
REMARK    5  A    between atoms: C_6  and  C_7 
REMARK    6  A    between atoms: C_7  and  C_8 
REMARK    7  A    between atoms: C_8  and  C_9 
REMARK    8  A    between atoms: C_9  and  C_10 
REMARK    9  A    between atoms: C_10  and  C_11 
REMARK   10  A    between atoms: C_11  and  C_12 
REMARK   11  A    between atoms: C_12  and  C_13 
REMARK   12  A    between atoms: C_13  and  C_14 
REMARK   13  A    between atoms: C_14  and  C_15 
REMARK   14  A    between atoms: C_15  and  C_16 
REMARK   15  A    between atoms: C_16  and  C_17 
REMARK   16  A    between atoms: C_17  and  C_18 
REMARK   17  A    between atoms: C_18  and  O_20 
REMARK   18  A    between atoms: O_20  and  C_21 
REMARK   19  A    between atoms: C_21  and  C_22 
REMARK   20  A    between atoms: C_22  and  C_23 
REMARK   21  A    between atoms: C_22  and  O_32 
REMARK   22  A    between atoms: C_23  and  O_24 
REMARK   23  A    between atoms: P_25  and  O_24 
REMARK   24  A    between atoms: P_25  and  O_26 
REMARK   25  A    between atoms: P_25  and  O_28 
REMARK   26  A    between atoms: O_28  and  C_29 
REMARK   27  A    between atoms: C_29  and  C_30 
REMARK   28  A    between atoms: C_30  and  N_31 
REMARK   29  A    between atoms: O_32  and  C_33 
REMARK   30  A    between atoms: C_33  and  C_35 
REMARK   31  A    between atoms: C_35  and  C_36 
REMARK   32  A    between atoms: C_36  and  C_37 
REMARK   33  A    between atoms: C_37  and  C_38 
REMARK   34  A    between atoms: C_38  and  C_39 
REMARK   35  A    between atoms: C_39  and  C_40 
REMARK   36  A    between atoms: C_40  and  C_41 
REMARK   37  A    between atoms: C_41  and  C_42 
REMARK   38  A    between atoms: C_42  and  C_43 
REMARK   39  A    between atoms: C_43  and  C_44 
REMARK   40  A    between atoms: C_44  and  C_45 
REMARK   41  A    between atoms: C_45  and  C_46 
REMARK   42  A    between atoms: C_46  and  C_47 
REMARK   43  A    between atoms: C_47  and  C_48 
REMARK   44  A    between atoms: C_48  and  C_49 
REMARK   45  A    between atoms: C_49  and  C_50 
ROOT
HETATM    1  C   UNK N   1      20.414  16.244   5.889  0.00  0.00     0.180 C 
ENDROOT
BRANCH   1   2
HETATM    2  C   UNK N   1      19.446  16.249   4.706  0.00  0.00     0.213 C 
BRANCH   2   3
HETATM    3  O   UNK N   1      20.136  16.239   3.514  0.00  0.00    -0.319 OA
BRANCH   3   4
HETATM    4  C   UNK N   1      20.009  17.229   2.596  0.00  0.00     0.258 C 
HETATM    5  O   UNK N   1      19.844  18.378   2.969  0.00  0.00    -0.265 OA
BRANCH   4   6
HETATM    6  C   UNK N   1      20.063  16.923   1.131  0.00  0.00     0.111 C 
BRANCH   6   7
HETATM    7  C   UNK N   1      20.388  15.461   0.926  0.00  0.00     0.010 C 
BRANCH   7   8
HETATM    8  C   UNK N   1      19.129  14.726   0.514  0.00  0.00     0.000 C 
BRANCH   8   9
HETATM    9  C   UNK N   1      19.232  13.276   0.945  0.00  0.00     0.000 C 
BRANCH   9  10
HETATM   10  C   UNK N   1      20.513  12.630   0.422  0.00  0.00     0.000 C 
BRANCH  10  11
HETATM   11  C   UNK N   1      21.212  11.756   1.458  0.00  0.00     0.000 C 
BRANCH  11  12
HETATM   12  C   UNK N   1      22.703  12.051   1.515  0.00  0.00     0.000 C 
BRANCH  12  13
HETATM   13  C   UNK N   1      23.108  12.906   0.327  0.00  0.00     0.000 C 
BRANCH  13  14
HETATM   14  C   UNK N   1      23.785  14.180   0.798  0.00  0.00     0.000 C 
BRANCH  14  15
HETATM   15  C   UNK N   1      23.799  14.225   2.312  0.00  0.00     0.000 C 
BRANCH  15  16
HETATM   16  C   UNK N   1      24.537  15.461   2.778  0.00  0.00     0.000 C 
BRANCH  16  17
HETATM   17  C   UNK N   1      25.860  15.511   2.055  0.00  0.00     0.000 C 
BRANCH  17  18
HETATM   18  C   UNK N   1      26.912  14.725   2.803  0.00  0.00     0.000 C 
BRANCH  18  19
HETATM   19  C   UNK N   1      28.198  14.826   2.012  0.00  0.00     0.000 C 
BRANCH  19  20
HETATM   20  C   UNK N   1      29.291  14.005   2.657  0.00  0.00    -0.000 C 
BRANCH  20  21
HETATM   21  C   UNK N   1      28.850  13.648   4.061  0.00  0.00    -0.005 C 
HETATM   22  C   UNK N   1      29.748  14.328   5.069  0.00  0.00     0.005 C 
ENDBRANCH  20  21
ENDBRANCH  19  20
ENDBRANCH  18  19
ENDBRANCH  17  18
ENDBRANCH  16  17
ENDBRANCH  15  16
ENDBRANCH  14  15
ENDBRANCH  13  14
ENDBRANCH  12  13
ENDBRANCH  11  12
ENDBRANCH  10  11
ENDBRANCH   9  10
ENDBRANCH   8   9
ENDBRANCH   7   8
ENDBRANCH   6   7
ENDBRANCH   4   6
ENDBRANCH   3   4
ENDBRANCH   2   3
ENDBRANCH   1   2
BRANCH   1  23
HETATM   23  C   UNK N   1      20.394  14.878   6.572  0.00  0.00     0.215 C 
BRANCH  23  24
HETATM   24  O   UNK N   1      19.840  14.974   7.853  0.00  0.00    -0.294 OA
BRANCH  24  25
HETATM   25  P   UNK N   1      20.964  14.140   8.889  0.00  0.00     0.393 P 
HETATM   26  O   UNK N   1      20.813  13.155   7.698  0.00  0.00    -0.631 OA
BRANCH  25  27
HETATM   27  O   UNK N   1      19.438  14.328   9.699  0.00  0.00    -0.307 OA
HETATM   28  H   UNK N   1      18.799  13.601   9.768  0.00  0.00     0.222 HD
ENDBRANCH  25  27
BRANCH  25  29
HETATM   29  O   UNK N   1      20.512  12.661   9.684  0.00  0.00    -0.295 OA
BRANCH  29  30
HETATM   30  C   UNK N   1      21.226  12.648  10.887  0.00  0.00     0.207 C 
BRANCH  30  31
HETATM   31  C   UNK N   1      22.652  12.195  10.632  0.00  0.00     0.256 C 
BRANCH  31  32
HETATM   32  N   UNK N   1      23.400  12.191  11.875  0.00  0.00    -0.077 N 
HETATM   33  H   UNK N   1      22.943  11.945  12.754  0.00  0.00     0.274 HD
HETATM   34  H   UNK N   1      24.391  12.437  11.871  0.00  0.00     0.274 HD
HETATM   35  H   UNK N   1      23.931  12.191  12.747  0.00  0.00     0.274 HD
ENDBRANCH  31  32
ENDBRANCH  30  31
ENDBRANCH  29  30
ENDBRANCH  25  29
ENDBRANCH  24  25
ENDBRANCH  23  24
ENDBRANCH   1  23
BRANCH   1  36
HETATM   36  O   UNK N   1      21.678  16.597   5.454  0.00  0.00    -0.312 OA
BRANCH  36  37
HETATM   37  C   UNK N   1      22.171  17.847   5.621  0.00  0.00     0.259 C 
HETATM   38  O   UNK N   1      21.477  18.718   6.119  0.00  0.00    -0.265 OA
BRANCH  37  39
HETATM   39  C   UNK N   1      23.598  18.136   5.286  0.00  0.00     0.111 C 
BRANCH  39  40
HETATM   40  C   UNK N   1      23.697  19.059   4.084  0.00  0.00     0.010 C 
BRANCH  40  41
HETATM   41  C   UNK N   1      25.065  18.956   3.427  0.00  0.00     0.000 C 
BRANCH  41  42
HETATM   42  C   UNK N   1      25.792  20.289   3.473  0.00  0.00     0.000 C 
BRANCH  42  43
HETATM   43  C   UNK N   1      27.222  20.078   3.939  0.00  0.00     0.000 C 
BRANCH  43  44
HETATM   44  C   UNK N   1      27.445  20.696   5.314  0.00  0.00     0.000 C 
BRANCH  44  45
HETATM   45  C   UNK N   1      27.462  19.660   6.433  0.00  0.00     0.000 C 
BRANCH  45  46
HETATM   46  C   UNK N   1      28.306  18.462   6.046  0.00  0.00     0.000 C 
BRANCH  46  47
HETATM   47  C   UNK N   1      27.793  17.225   6.754  0.00  0.00     0.000 C 
BRANCH  47  48
HETATM   48  C   UNK N   1      26.771  16.534   5.875  0.00  0.00     0.000 C 
BRANCH  48  49
HETATM   49  C   UNK N   1      26.386  15.188   6.457  0.00  0.00     0.000 C 
BRANCH  49  50
HETATM   50  C   UNK N   1      24.877  15.097   6.547  0.00  0.00     0.000 C 
BRANCH  50  51
HETATM   51  C   UNK N   1      24.436  13.658   6.411  0.00  0.00     0.000 C 
BRANCH  51  52
HETATM   52  C   UNK N   1      25.404  12.950   5.490  0.00  0.00     0.000 C 
BRANCH  52  53
HETATM   53  C   UNK N   1      25.065  11.478   5.421  0.00  0.00    -0.000 C 
BRANCH  53  54
HETATM   54  C   UNK N   1      26.076  10.779   4.538  0.00  0.00    -0.005 C 
HETATM   55  C   UNK N   1      26.003  11.348   3.138  0.00  0.00     0.005 C 
ENDBRANCH  53  54
ENDBRANCH  52  53
ENDBRANCH  51  52
ENDBRANCH  50  51
ENDBRANCH  49  50
ENDBRANCH  48  49
ENDBRANCH  47  48
ENDBRANCH  46  47
ENDBRANCH  45  46
ENDBRANCH  44  45
ENDBRANCH  43  44
ENDBRANCH  42  43
ENDBRANCH  41  42
ENDBRANCH  40  41
ENDBRANCH  39  40
ENDBRANCH  37  39
ENDBRANCH  36  37
ENDBRANCH   1  36
TORSDOF 45
ENDMDL
MODEL 7
REMARK VINA RESULT:      -4.8      2.354      3.678
REMARK WARNING: 32 MAX_TORS EXCEEDED!!!
REMARK  45 active torsions:
REMARK  status: ('A' for Active; 'I' for Inactive)
REMARK    1  A    between atoms: C_2  and  C_3 
REMARK    2  A    between atoms: C_3  and  C_4 
REMARK    3  A    between atoms: C_4  and  C_5 
REMARK    4  A    between atoms: C_5  and  C_6 
REMARK    5  A    between atoms: C_6  and  C_7 
REMARK    6  A    between atoms: C_7  and  C_8 
REMARK    7  A    between atoms: C_8  and  C_9 
REMARK    8  A    between atoms: C_9  and  C_10 
REMARK    9  A    between atoms: C_10  and  C_11 
REMARK   10  A    between atoms: C_11  and  C_12 
REMARK   11  A    between atoms: C_12  and  C_13 
REMARK   12  A    between atoms: C_13  and  C_14 
REMARK   13  A    between atoms: C_14  and  C_15 
REMARK   14  A    between atoms: C_15  and  C_16 
REMARK   15  A    between atoms: C_16  and  C_17 
REMARK   16  A    between atoms: C_17  and  C_18 
REMARK   17  A    between atoms: C_18  and  O_20 
REMARK   18  A    between atoms: O_20  and  C_21 
REMARK   19  A    between atoms: C_21  and  C_22 
REMARK   20  A    between atoms: C_22  and  C_23 
REMARK   21  A    between atoms: C_22  and  O_32 
REMARK   22  A    between atoms: C_23  and  O_24 
REMARK   23  A    between atoms: P_25  and  O_24 
REMARK   24  A    between atoms: P_25  and  O_26 
REMARK   25  A    between atoms: P_25  and  O_28 
REMARK   26  A    between atoms: O_28  and  C_29 
REMARK   27  A    between atoms: C_29  and  C_30 
REMARK   28  A    between atoms: C_30  and  N_31 
REMARK   29  A    between atoms: O_32  and  C_33 
REMARK   30  A    between atoms: C_33  and  C_35 
REMARK   31  A    between atoms: C_35  and  C_36 
REMARK   32  A    between atoms: C_36  and  C_37 
REMARK   33  A    between atoms: C_37  and  C_38 
REMARK   34  A    between atoms: C_38  and  C_39 
REMARK   35  A    between atoms: C_39  and  C_40 
REMARK   36  A    between atoms: C_40  and  C_41 
REMARK   37  A    between atoms: C_41  and  C_42 
REMARK   38  A    between atoms: C_42  and  C_43 
REMARK   39  A    between atoms: C_43  and  C_44 
REMARK   40  A    between atoms: C_44  and  C_45 
REMARK   41  A    between atoms: C_45  and  C_46 
REMARK   42  A    between atoms: C_46  and  C_47 
REMARK   43  A    between atoms: C_47  and  C_48 
REMARK   44  A    between atoms: C_48  and  C_49 
REMARK   45  A    between atoms: C_49  and  C_50 
ROOT
HETATM    1  C   UNK N   1      21.064  17.060   4.477  0.00  0.00     0.180 C 
ENDROOT
BRANCH   1   2
HETATM    2  C   UNK N   1      20.807  16.108   3.310  0.00  0.00     0.213 C 
BRANCH   2   3
HETATM    3  O   UNK N   1      21.776  16.255   2.342  0.00  0.00    -0.319 OA
BRANCH   3   4
HETATM    4  C   UNK N   1      22.520  15.212   1.898  0.00  0.00     0.258 C 
HETATM    5  O   UNK N   1      22.253  14.695   0.826  0.00  0.00    -0.265 OA
BRANCH   4   6
HETATM    6  C   UNK N   1      23.660  14.686   2.714  0.00  0.00     0.111 C 
BRANCH   6   7
HETATM    7  C   UNK N   1      24.435  15.839   3.311  0.00  0.00     0.010 C 
BRANCH   7   8
HETATM    8  C   UNK N   1      25.622  16.152   2.424  0.00  0.00     0.000 C 
BRANCH   8   9
HETATM    9  C   UNK N   1      26.361  14.867   2.105  0.00  0.00     0.000 C 
BRANCH   9  10
HETATM   10  C   UNK N   1      27.837  14.965   2.484  0.00  0.00     0.000 C 
BRANCH  10  11
HETATM   11  C   UNK N   1      28.096  15.912   3.651  0.00  0.00     0.000 C 
BRANCH  11  12
HETATM   12  C   UNK N   1      28.186  15.156   4.967  0.00  0.00     0.000 C 
BRANCH  12  13
HETATM   13  C   UNK N   1      26.997  15.503   5.847  0.00  0.00     0.000 C 
BRANCH  13  14
HETATM   14  C   UNK N   1      26.113  14.285   6.047  0.00  0.00     0.000 C 
BRANCH  14  15
HETATM   15  C   UNK N   1      24.963  14.631   6.970  0.00  0.00     0.000 C 
BRANCH  15  16
HETATM   16  C   UNK N   1      23.842  13.634   6.782  0.00  0.00     0.000 C 
BRANCH  16  17
HETATM   17  C   UNK N   1      23.189  13.413   8.125  0.00  0.00     0.000 C 
BRANCH  17  18
HETATM   18  C   UNK N   1      22.351  12.155   8.115  0.00  0.00     0.000 C 
BRANCH  18  19
HETATM   19  C   UNK N   1      23.261  11.009   7.730  0.00  0.00     0.000 C 
BRANCH  19  20
HETATM   20  C   UNK N   1      22.771  10.335   6.469  0.00  0.00    -0.000 C 
BRANCH  20  21
HETATM   21  C   UNK N   1      23.766   9.257   6.091  0.00  0.00    -0.005 C 
HETATM   22  C   UNK N   1      24.045   8.375   7.288  0.00  0.00     0.005 C 
ENDBRANCH  20  21
ENDBRANCH  19  20
ENDBRANCH  18  19
ENDBRANCH  17  18
ENDBRANCH  16  17
ENDBRANCH  15  16
ENDBRANCH  14  15
ENDBRANCH  13  14
ENDBRANCH  12  13
ENDBRANCH  11  12
ENDBRANCH  10  11
ENDBRANCH   9  10
ENDBRANCH   8   9
ENDBRANCH   7   8
ENDBRANCH   6   7
ENDBRANCH   4   6
ENDBRANCH   3   4
ENDBRANCH   2   3
ENDBRANCH   1   2
BRANCH   1  23
HETATM   23  C   UNK N   1      21.422  16.262   5.731  0.00  0.00     0.215 C 
BRANCH  23  24
HETATM   24  O   UNK N   1      21.676  17.119   6.806  0.00  0.00    -0.294 OA
BRANCH  24  25
HETATM   25  P   UNK N   1      20.104  17.510   7.445  0.00  0.00     0.393 P 
HETATM   26  O   UNK N   1      20.806  18.895   7.418  0.00  0.00    -0.631 OA
BRANCH  25  27
HETATM   27  O   UNK N   1      20.938  16.444   8.535  0.00  0.00    -0.307 OA
HETATM   28  H   UNK N   1      20.770  16.449   9.490  0.00  0.00     0.222 HD
ENDBRANCH  25  27
BRANCH  25  29
HETATM   29  O   UNK N   1      19.921  18.054   9.088  0.00  0.00    -0.295 OA
BRANCH  29  30
HETATM   30  C   UNK N   1      18.651  17.622   9.486  0.00  0.00     0.207 C 
BRANCH  30  31
HETATM   31  C   UNK N   1      18.033  18.646  10.422  0.00  0.00     0.256 C 
BRANCH  31  32
HETATM   32  N   UNK N   1      18.992  19.696  10.710  0.00  0.00    -0.077 N 
HETATM   33  H   UNK N   1      19.599  20.058   9.975  0.00  0.00     0.274 HD
HETATM   34  H   UNK N   1      19.061  20.074  11.656  0.00  0.00     0.274 HD
HETATM   35  H   UNK N   1      19.665  20.434  10.918  0.00  0.00     0.274 HD
ENDBRANCH  31  32
ENDBRANCH  30  31
ENDBRANCH  29  30
ENDBRANCH  25  29
ENDBRANCH  24  25
ENDBRANCH  23  24
ENDBRANCH   1  23
BRANCH   1  36
HETATM   36  O   UNK N   1      22.050  17.964   4.130  0.00  0.00    -0.312 OA
BRANCH  36  37
HETATM   37  C   UNK N   1      21.769  19.260   3.852  0.00  0.00     0.259 C 
HETATM   38  O   UNK N   1      20.736  19.764   4.260  0.00  0.00    -0.265 OA
BRANCH  37  39
HETATM   39  C   UNK N   1      22.771  20.100   3.128  0.00  0.00     0.111 C 
BRANCH  39  40
HETATM   40  C   UNK N   1      24.183  19.755   3.565  0.00  0.00     0.010 C 
BRANCH  40  41
HETATM   41  C   UNK N   1      25.212  20.466   2.698  0.00  0.00     0.000 C 
BRANCH  41  42
HETATM   42  C   UNK N   1      26.598  20.373   3.312  0.00  0.00     0.000 C 
BRANCH  42  43
HETATM   43  C   UNK N   1      26.499  19.814   4.721  0.00  0.00     0.000 C 
BRANCH  43  44
HETATM   44  C   UNK N   1      27.790  20.052   5.494  0.00  0.00     0.000 C 
BRANCH  44  45
HETATM   45  C   UNK N   1      28.208  18.851   6.334  0.00  0.00     0.000 C 
BRANCH  45  46
HETATM   46  C   UNK N   1      28.099  19.162   7.814  0.00  0.00     0.000 C 
BRANCH  46  47
HETATM   47  C   UNK N   1      28.835  18.107   8.614  0.00  0.00     0.000 C 
BRANCH  47  48
HETATM   48  C   UNK N   1      29.650  17.245   7.672  0.00  0.00     0.000 C 
BRANCH  48  49
HETATM   49  C   UNK N   1      31.108  17.225   8.090  0.00  0.00     0.000 C 
BRANCH  49  50
HETATM   50  C   UNK N   1      31.980  17.389   6.864  0.00  0.00     0.000 C 
BRANCH  50  51
HETATM   51  C   UNK N   1      31.355  16.680   5.685  0.00  0.00     0.000 C 
BRANCH  51  52
HETATM   52  C   UNK N   1      31.449  17.587   4.480  0.00  0.00     0.000 C 
BRANCH  52  53
HETATM   53  C   UNK N   1      31.684  16.765   3.233  0.00  0.00    -0.000 C 
BRANCH  53  54
HETATM   54  C   UNK N   1      33.161  16.456   3.116  0.00  0.00    -0.005 C 
HETATM   55  C   UNK N   1      33.350  14.980   2.845  0.00  0.00     0.005 C 
ENDBRANCH  53  54
ENDBRANCH  52  53
ENDBRANCH  51  52
ENDBRANCH  50  51
ENDBRANCH  49  50
ENDBRANCH  48  49
ENDBRANCH  47  48
ENDBRANCH  46  47
ENDBRANCH  45  46
ENDBRANCH  44  45
ENDBRANCH  43  44
ENDBRANCH  42  43
ENDBRANCH  41  42
ENDBRANCH  40  41
ENDBRANCH  39  40
ENDBRANCH  37  39
ENDBRANCH  36  37
ENDBRANCH   1  36
TORSDOF 45
ENDMDL
MODEL 8
REMARK VINA RESULT:      -4.8      1.739      7.496
REMARK WARNING: 32 MAX_TORS EXCEEDED!!!
REMARK  45 active torsions:
REMARK  status: ('A' for Active; 'I' for Inactive)
REMARK    1  A    between atoms: C_2  and  C_3 
REMARK    2  A    between atoms: C_3  and  C_4 
REMARK    3  A    between atoms: C_4  and  C_5 
REMARK    4  A    between atoms: C_5  and  C_6 
REMARK    5  A    between atoms: C_6  and  C_7 
REMARK    6  A    between atoms: C_7  and  C_8 
REMARK    7  A    between atoms: C_8  and  C_9 
REMARK    8  A    between atoms: C_9  and  C_10 
REMARK    9  A    between atoms: C_10  and  C_11 
REMARK   10  A    between atoms: C_11  and  C_12 
REMARK   11  A    between atoms: C_12  and  C_13 
REMARK   12  A    between atoms: C_13  and  C_14 
REMARK   13  A    between atoms: C_14  and  C_15 
REMARK   14  A    between atoms: C_15  and  C_16 
REMARK   15  A    between atoms: C_16  and  C_17 
REMARK   16  A    between atoms: C_17  and  C_18 
REMARK   17  A    between atoms: C_18  and  O_20 
REMARK   18  A    between atoms: O_20  and  C_21 
REMARK   19  A    between atoms: C_21  and  C_22 
REMARK   20  A    between atoms: C_22  and  C_23 
REMARK   21  A    between atoms: C_22  and  O_32 
REMARK   22  A    between atoms: C_23  and  O_24 
REMARK   23  A    between atoms: P_25  and  O_24 
REMARK   24  A    between atoms: P_25  and  O_26 
REMARK   25  A    between atoms: P_25  and  O_28 
REMARK   26  A    between atoms: O_28  and  C_29 
REMARK   27  A    between atoms: C_29  and  C_30 
REMARK   28  A    between atoms: C_30  and  N_31 
REMARK   29  A    between atoms: O_32  and  C_33 
REMARK   30  A    between atoms: C_33  and  C_35 
REMARK   31  A    between atoms: C_35  and  C_36 
REMARK   32  A    between atoms: C_36  and  C_37 
REMARK   33  A    between atoms: C_37  and  C_38 
REMARK   34  A    between atoms: C_38  and  C_39 
REMARK   35  A    between atoms: C_39  and  C_40 
REMARK   36  A    between atoms: C_40  and  C_41 
REMARK   37  A    between atoms: C_41  and  C_42 
REMARK   38  A    between atoms: C_42  and  C_43 
REMARK   39  A    between atoms: C_43  and  C_44 
REMARK   40  A    between atoms: C_44  and  C_45 
REMARK   41  A    between atoms: C_45  and  C_46 
REMARK   42  A    between atoms: C_46  and  C_47 
REMARK   43  A    between atoms: C_47  and  C_48 
REMARK   44  A    between atoms: C_48  and  C_49 
REMARK   45  A    between atoms: C_49  and  C_50 
ROOT
HETATM    1  C   UNK N   1      21.277  18.466   2.813  0.00  0.00     0.180 C 
ENDROOT
BRANCH   1   2
HETATM    2  C   UNK N   1      21.626  19.954   2.806  0.00  0.00     0.213 C 
BRANCH   2   3
HETATM    3  O   UNK N   1      22.724  20.199   3.603  0.00  0.00    -0.319 OA
BRANCH   3   4
HETATM    4  C   UNK N   1      23.977  20.297   3.096  0.00  0.00     0.258 C 
HETATM    5  O   UNK N   1      24.158  20.894   2.048  0.00  0.00    -0.265 OA
BRANCH   4   6
HETATM    6  C   UNK N   1      25.139  19.675   3.807  0.00  0.00     0.111 C 
BRANCH   6   7
HETATM    7  C   UNK N   1      26.418  20.372   3.402  0.00  0.00     0.010 C 
BRANCH   7   8
HETATM    8  C   UNK N   1      27.533  19.945   4.334  0.00  0.00     0.000 C 
BRANCH   8   9
HETATM    9  C   UNK N   1      27.568  20.874   5.532  0.00  0.00     0.000 C 
BRANCH   9  10
HETATM   10  C   UNK N   1      27.604  20.090   6.842  0.00  0.00     0.000 C 
BRANCH  10  11
HETATM   11  C   UNK N   1      28.146  18.674   6.681  0.00  0.00     0.000 C 
BRANCH  11  12
HETATM   12  C   UNK N   1      28.183  17.941   8.013  0.00  0.00     0.000 C 
BRANCH  12  13
HETATM   13  C   UNK N   1      29.176  18.613   8.946  0.00  0.00     0.000 C 
BRANCH  13  14
HETATM   14  C   UNK N   1      30.343  17.686   9.234  0.00  0.00     0.000 C 
BRANCH  14  15
HETATM   15  C   UNK N   1      31.170  17.496   7.979  0.00  0.00     0.000 C 
BRANCH  15  16
HETATM   16  C   UNK N   1      31.690  16.077   7.922  0.00  0.00     0.000 C 
BRANCH  16  17
HETATM   17  C   UNK N   1      32.721  16.005   6.823  0.00  0.00     0.000 C 
BRANCH  17  18
HETATM   18  C   UNK N   1      33.290  17.374   6.528  0.00  0.00     0.000 C 
BRANCH  18  19
HETATM   19  C   UNK N   1      33.435  17.490   5.027  0.00  0.00     0.000 C 
BRANCH  19  20
HETATM   20  C   UNK N   1      32.089  17.699   4.372  0.00  0.00    -0.000 C 
BRANCH  20  21
HETATM   21  C   UNK N   1      32.085  16.962   3.049  0.00  0.00    -0.005 C 
HETATM   22  C   UNK N   1      33.278  16.036   2.975  0.00  0.00     0.005 C 
ENDBRANCH  20  21
ENDBRANCH  19  20
ENDBRANCH  18  19
ENDBRANCH  17  18
ENDBRANCH  16  17
ENDBRANCH  15  16
ENDBRANCH  14  15
ENDBRANCH  13  14
ENDBRANCH  12  13
ENDBRANCH  11  12
ENDBRANCH  10  11
ENDBRANCH   9  10
ENDBRANCH   8   9
ENDBRANCH   7   8
ENDBRANCH   6   7
ENDBRANCH   4   6
ENDBRANCH   3   4
ENDBRANCH   2   3
ENDBRANCH   1   2
BRANCH   1  23
HETATM   23  C   UNK N   1      21.106  17.978   4.250  0.00  0.00     0.215 C 
BRANCH  23  24
HETATM   24  O   UNK N   1      22.144  17.109   4.603  0.00  0.00    -0.294 OA
BRANCH  24  25
HETATM   25  P   UNK N   1      21.787  16.630   6.239  0.00  0.00     0.393 P 
HETATM   26  O   UNK N   1      20.389  16.582   5.565  0.00  0.00    -0.631 OA
BRANCH  25  27
HETATM   27  O   UNK N   1      22.399  18.257   6.218  0.00  0.00    -0.307 OA
HETATM   28  H   UNK N   1      23.111  18.547   6.810  0.00  0.00     0.222 HD
ENDBRANCH  25  27
BRANCH  25  29
HETATM   29  O   UNK N   1      20.837  17.651   7.278  0.00  0.00    -0.295 OA
BRANCH  29  30
HETATM   30  C   UNK N   1      20.199  16.786   8.174  0.00  0.00     0.207 C 
BRANCH  30  31
HETATM   31  C   UNK N   1      19.151  17.548   8.965  0.00  0.00     0.256 C 
BRANCH  31  32
HETATM   32  N   UNK N   1      19.606  18.903   9.213  0.00  0.00    -0.077 N 
HETATM   33  H   UNK N   1      18.938  19.672   9.263  0.00  0.00     0.274 HD
HETATM   34  H   UNK N   1      20.602  19.088   9.336  0.00  0.00     0.274 HD
HETATM   35  H   UNK N   1      19.932  19.854   9.387  0.00  0.00     0.274 HD
ENDBRANCH  31  32
ENDBRANCH  30  31
ENDBRANCH  29  30
ENDBRANCH  25  29
ENDBRANCH  24  25
ENDBRANCH  23  24
ENDBRANCH   1  23
BRANCH   1  36
HETATM   36  O   UNK N   1      20.147  18.253   2.046  0.00  0.00    -0.312 OA
BRANCH  36  37
HETATM   37  C   UNK N   1      20.100  17.295   1.089  0.00  0.00     0.259 C 
HETATM   38  O   UNK N   1      20.436  17.555  -0.055  0.00  0.00    -0.265 OA
BRANCH  37  39
HETATM   39  C   UNK N   1      19.730  15.894   1.455  0.00  0.00     0.111 C 
BRANCH  39  40
HETATM   40  C   UNK N   1      19.216  15.136   0.244  0.00  0.00     0.010 C 
BRANCH  40  41
HETATM   41  C   UNK N   1      18.486  13.869   0.663  0.00  0.00     0.000 C 
BRANCH  41  42
HETATM   42  C   UNK N   1      19.301  12.634   0.322  0.00  0.00     0.000 C 
BRANCH  42  43
HETATM   43  C   UNK N   1      19.653  11.883   1.595  0.00  0.00     0.000 C 
BRANCH  43  44
HETATM   44  C   UNK N   1      21.154  11.927   1.856  0.00  0.00     0.000 C 
BRANCH  44  45
HETATM   45  C   UNK N   1      21.550  13.004   2.859  0.00  0.00     0.000 C 
BRANCH  45  46
HETATM   46  C   UNK N   1      22.436  14.049   2.209  0.00  0.00     0.000 C 
BRANCH  46  47
HETATM   47  C   UNK N   1      22.736  13.648   0.779  0.00  0.00     0.000 C 
BRANCH  47  48
HETATM   48  C   UNK N   1      24.236  13.643   0.568  0.00  0.00     0.000 C 
BRANCH  48  49
HETATM   49  C   UNK N   1      24.857  12.393   1.161  0.00  0.00     0.000 C 
BRANCH  49  50
HETATM   50  C   UNK N   1      26.145  12.763   1.866  0.00  0.00     0.000 C 
BRANCH  50  51
HETATM   51  C   UNK N   1      25.845  13.616   3.077  0.00  0.00     0.000 C 
BRANCH  51  52
HETATM   52  C   UNK N   1      26.856  13.286   4.152  0.00  0.00     0.000 C 
BRANCH  52  53
HETATM   53  C   UNK N   1      27.070  14.488   5.043  0.00  0.00    -0.000 C 
BRANCH  53  54
HETATM   54  C   UNK N   1      26.303  15.664   4.480  0.00  0.00    -0.005 C 
HETATM   55  C   UNK N   1      25.621  16.410   5.605  0.00  0.00     0.005 C 
ENDBRANCH  53  54
ENDBRANCH  52  53
ENDBRANCH  51  52
ENDBRANCH  50  51
ENDBRANCH  49  50
ENDBRANCH  48  49
ENDBRANCH  47  48
ENDBRANCH  46  47
ENDBRANCH  45  46
ENDBRANCH  44  45
ENDBRANCH  43  44
ENDBRANCH  42  43
ENDBRANCH  41  42
ENDBRANCH  40  41
ENDBRANCH  39  40
ENDBRANCH  37  39
ENDBRANCH  36  37
ENDBRANCH   1  36
TORSDOF 45
ENDMDL
MODEL 9
REMARK VINA RESULT:      -4.8      3.195      7.399
REMARK WARNING: 32 MAX_TORS EXCEEDED!!!
REMARK  45 active torsions:
REMARK  status: ('A' for Active; 'I' for Inactive)
REMARK    1  A    between atoms: C_2  and  C_3 
REMARK    2  A    between atoms: C_3  and  C_4 
REMARK    3  A    between atoms: C_4  and  C_5 
REMARK    4  A    between atoms: C_5  and  C_6 
REMARK    5  A    between atoms: C_6  and  C_7 
REMARK    6  A    between atoms: C_7  and  C_8 
REMARK    7  A    between atoms: C_8  and  C_9 
REMARK    8  A    between atoms: C_9  and  C_10 
REMARK    9  A    between atoms: C_10  and  C_11 
REMARK   10  A    between atoms: C_11  and  C_12 
REMARK   11  A    between atoms: C_12  and  C_13 
REMARK   12  A    between atoms: C_13  and  C_14 
REMARK   13  A    between atoms: C_14  and  C_15 
REMARK   14  A    between atoms: C_15  and  C_16 
REMARK   15  A    between atoms: C_16  and  C_17 
REMARK   16  A    between atoms: C_17  and  C_18 
REMARK   17  A    between atoms: C_18  and  O_20 
REMARK   18  A    between atoms: O_20  and  C_21 
REMARK   19  A    between atoms: C_21  and  C_22 
REMARK   20  A    between atoms: C_22  and  C_23 
REMARK   21  A    between atoms: C_22  and  O_32 
REMARK   22  A    between atoms: C_23  and  O_24 
REMARK   23  A    between atoms: P_25  and  O_24 
REMARK   24  A    between atoms: P_25  and  O_26 
REMARK   25  A    between atoms: P_25  and  O_28 
REMARK   26  A    between atoms: O_28  and  C_29 
REMARK   27  A    between atoms: C_29  and  C_30 
REMARK   28  A    between atoms: C_30  and  N_31 
REMARK   29  A    between atoms: O_32  and  C_33 
REMARK   30  A    between atoms: C_33  and  C_35 
REMARK   31  A    between atoms: C_35  and  C_36 
REMARK   32  A    between atoms: C_36  and  C_37 
REMARK   33  A    between atoms: C_37  and  C_38 
REMARK   34  A    between atoms: C_38  and  C_39 
REMARK   35  A    between atoms: C_39  and  C_40 
REMARK   36  A    between atoms: C_40  and  C_41 
REMARK   37  A    between atoms: C_41  and  C_42 
REMARK   38  A    between atoms: C_42  and  C_43 
REMARK   39  A    between atoms: C_43  and  C_44 
REMARK   40  A    between atoms: C_44  and  C_45 
REMARK   41  A    between atoms: C_45  and  C_46 
REMARK   42  A    between atoms: C_46  and  C_47 
REMARK   43  A    between atoms: C_47  and  C_48 
REMARK   44  A    between atoms: C_48  and  C_49 
REMARK   45  A    between atoms: C_49  and  C_50 
ROOT
HETATM    1  C   UNK N   1      22.833  18.960   4.230  0.00  0.00     0.180 C 
ENDROOT
BRANCH   1   2
HETATM    2  C   UNK N   1      22.238  17.938   5.198  0.00  0.00     0.213 C 
BRANCH   2   3
HETATM    3  O   UNK N   1      21.946  18.528   6.409  0.00  0.00    -0.319 OA
BRANCH   3   4
HETATM    4  C   UNK N   1      20.966  18.064   7.221  0.00  0.00     0.258 C 
HETATM    5  O   UNK N   1      20.411  18.828   7.993  0.00  0.00    -0.265 OA
BRANCH   4   6
HETATM    6  C   UNK N   1      20.561  16.622   7.183  0.00  0.00     0.111 C 
BRANCH   6   7
HETATM    7  C   UNK N   1      20.660  16.027   8.570  0.00  0.00     0.010 C 
BRANCH   7   8
HETATM    8  C   UNK N   1      20.591  14.518   8.467  0.00  0.00     0.000 C 
BRANCH   8   9
HETATM    9  C   UNK N   1      20.593  13.920   9.861  0.00  0.00     0.000 C 
BRANCH   9  10
HETATM   10  C   UNK N   1      21.370  12.607   9.901  0.00  0.00     0.000 C 
BRANCH  10  11
HETATM   11  C   UNK N   1      22.664  12.698  10.704  0.00  0.00     0.000 C 
BRANCH  11  12
HETATM   12  C   UNK N   1      23.843  12.145   9.918  0.00  0.00     0.000 C 
BRANCH  12  13
HETATM   13  C   UNK N   1      23.471  12.011   8.451  0.00  0.00     0.000 C 
BRANCH  13  14
HETATM   14  C   UNK N   1      24.560  12.601   7.572  0.00  0.00     0.000 C 
BRANCH  14  15
HETATM   15  C   UNK N   1      24.413  14.107   7.513  0.00  0.00     0.000 C 
BRANCH  15  16
HETATM   16  C   UNK N   1      23.545  14.488   6.335  0.00  0.00     0.000 C 
BRANCH  16  17
HETATM   17  C   UNK N   1      24.427  14.562   5.113  0.00  0.00     0.000 C 
BRANCH  17  18
HETATM   18  C   UNK N   1      25.813  15.041   5.478  0.00  0.00     0.000 C 
BRANCH  18  19
HETATM   19  C   UNK N   1      26.688  14.865   4.257  0.00  0.00     0.000 C 
BRANCH  19  20
HETATM   20  C   UNK N   1      27.756  13.824   4.506  0.00  0.00    -0.000 C 
BRANCH  20  21
HETATM   21  C   UNK N   1      28.102  13.174   3.183  0.00  0.00    -0.005 C 
HETATM   22  C   UNK N   1      28.042  14.202   2.076  0.00  0.00     0.005 C 
ENDBRANCH  20  21
ENDBRANCH  19  20
ENDBRANCH  18  19
ENDBRANCH  17  18
ENDBRANCH  16  17
ENDBRANCH  15  16
ENDBRANCH  14  15
ENDBRANCH  13  14
ENDBRANCH  12  13
ENDBRANCH  11  12
ENDBRANCH  10  11
ENDBRANCH   9  10
ENDBRANCH   8   9
ENDBRANCH   7   8
ENDBRANCH   6   7
ENDBRANCH   4   6
ENDBRANCH   3   4
ENDBRANCH   2   3
ENDBRANCH   1   2
BRANCH   1  23
HETATM   23  C   UNK N   1      24.239  18.529   3.817  0.00  0.00     0.215 C 
BRANCH  23  24
HETATM   24  O   UNK N   1      25.090  18.490   4.926  0.00  0.00    -0.294 OA
BRANCH  24  25
HETATM   25  P   UNK N   1      26.675  18.812   4.282  0.00  0.00     0.393 P 
HETATM   26  O   UNK N   1      26.986  18.418   5.752  0.00  0.00    -0.631 OA
BRANCH  25  27
HETATM   27  O   UNK N   1      25.716  20.261   4.248  0.00  0.00    -0.307 OA
HETATM   28  H   UNK N   1      24.750  20.241   4.327  0.00  0.00     0.222 HD
ENDBRANCH  25  27
BRANCH  25  29
HETATM   29  O   UNK N   1      27.605  20.171   4.845  0.00  0.00    -0.295 OA
BRANCH  29  30
HETATM   30  C   UNK N   1      26.678  21.049   5.417  0.00  0.00     0.207 C 
BRANCH  30  31
HETATM   31  C   UNK N   1      27.116  21.409   6.826  0.00  0.00     0.256 C 
BRANCH  31  32
HETATM   32  N   UNK N   1      26.147  20.914   7.787  0.00  0.00    -0.077 N 
HETATM   33  H   UNK N   1      25.600  20.077   7.586  0.00  0.00     0.274 HD
HETATM   34  H   UNK N   1      26.012  21.408   8.670  0.00  0.00     0.274 HD
HETATM   35  H   UNK N   1      25.468  20.571   8.466  0.00  0.00     0.274 HD
ENDBRANCH  31  32
ENDBRANCH  30  31
ENDBRANCH  29  30
ENDBRANCH  25  29
ENDBRANCH  24  25
ENDBRANCH  23  24
ENDBRANCH   1  23
BRANCH   1  36
HETATM   36  O   UNK N   1      21.990  19.117   3.146  0.00  0.00    -0.312 OA
BRANCH  36  37
HETATM   37  C   UNK N   1      20.675  19.408   3.296  0.00  0.00     0.259 C 
HETATM   38  O   UNK N   1      20.335  20.442   3.846  0.00  0.00    -0.265 OA
BRANCH  37  39
HETATM   39  C   UNK N   1      19.641  18.507   2.702  0.00  0.00     0.111 C 
BRANCH  39  40
HETATM   40  C   UNK N   1      20.207  17.737   1.522  0.00  0.00     0.010 C 
BRANCH  40  41
HETATM   41  C   UNK N   1      20.021  16.239   1.708  0.00  0.00     0.000 C 
BRANCH  41  42
HETATM   42  C   UNK N   1      21.096  15.667   2.617  0.00  0.00     0.000 C 
BRANCH  42  43
HETATM   43  C   UNK N   1      20.872  14.175   2.800  0.00  0.00     0.000 C 
BRANCH  43  44
HETATM   44  C   UNK N   1      20.800  13.812   4.278  0.00  0.00     0.000 C 
BRANCH  44  45
HETATM   45  C   UNK N   1      20.396  12.362   4.513  0.00  0.00     0.000 C 
BRANCH  45  46
HETATM   46  C   UNK N   1      20.817  11.900   5.894  0.00  0.00     0.000 C 
BRANCH  46  47
HETATM   47  C   UNK N   1      21.427  10.516   5.807  0.00  0.00     0.000 C 
BRANCH  47  48
HETATM   48  C   UNK N   1      22.339  10.449   4.599  0.00  0.00     0.000 C 
BRANCH  48  49
HETATM   49  C   UNK N   1      23.788  10.316   5.028  0.00  0.00     0.000 C 
BRANCH  49  50
HETATM   50  C   UNK N   1      24.661  11.123   4.091  0.00  0.00     0.000 C 
BRANCH  50  51
HETATM   51  C   UNK N   1      23.835  11.653   2.942  0.00  0.00     0.000 C 
BRANCH  51  52
HETATM   52  C   UNK N   1      24.774  12.239   1.912  0.00  0.00     0.000 C 
BRANCH  52  53
HETATM   53  C   UNK N   1      24.073  12.342   0.576  0.00  0.00    -0.000 C 
BRANCH  53  54
HETATM   54  C   UNK N   1      23.632  13.773   0.359  0.00  0.00    -0.005 C 
HETATM   55  C   UNK N   1      24.481  14.698   1.204  0.00  0.00     0.005 C 
ENDBRANCH  53  54
ENDBRANCH  52  53
ENDBRANCH  51  52
ENDBRANCH  50  51
ENDBRANCH  49  50
ENDBRANCH  48  49
ENDBRANCH  47  48
ENDBRANCH  46  47
ENDBRANCH  45  46
ENDBRANCH  44  45
ENDBRANCH  43  44
ENDBRANCH  42  43
ENDBRANCH  41  42
ENDBRANCH  40  41
ENDBRANCH  39  40
ENDBRANCH  37  39
ENDBRANCH  36  37
ENDBRANCH   1  36
TORSDOF 45
ENDMDL
