MODEL 1
REMARK VINA RESULT:      -5.0      0.000      0.000
REMARK  7 active torsions:
REMARK  status: ('A' for Active; 'I' for Inactive)
REMARK    1  A    between atoms: C_1  and  C_2 
REMARK    2  A    between atoms: C_1  and  C_3 
REMARK    3  A    between atoms: C_2  and  C_4 
REMARK    4  A    between atoms: C_3  and  C_5 
REMARK    5  A    between atoms: C_3  and  N_6 
REMARK    6  A    between atoms: C_4  and  N_7 
REMARK    7  A    between atoms: C_5  and  O_8 
REMARK       I    between atoms: N_7  and  C_10 
REMARK       I    between atoms: C_10  and  N_11 
ROOT
HETATM    1  C   UNK N   1      31.505  16.381   7.521  0.00  0.00     0.023 C 
ENDROOT
BRANCH   1   2
HETATM    2  C   UNK N   1      32.174  17.274   8.553  0.00  0.00     0.037 C 
BRANCH   2   3
HETATM    3  C   UNK N   1      33.682  17.063   8.564  0.00  0.00     0.173 C 
BRANCH   3   4
HETATM    4  C   UNK N   1      34.387  18.127   7.768  0.00  0.00     0.163 C 
HETATM    5  O   UNK N   1      34.385  18.082   6.548  0.00  0.00    -0.648 OA
BRANCH   4   6
HETATM    6  O   UNK N   1      35.044  19.126   8.393  0.00  0.00    -0.775 OA
HETATM    7  H   UNK N   1      34.731  19.475   9.204  0.00  0.00     0.167 HD
ENDBRANCH   4   6
ENDBRANCH   3   4
BRANCH   3   8
HETATM    8  N   UNK N   1      34.147  17.060   9.939  0.00  0.00    -0.418 N 
HETATM    9  H   UNK N   1      33.480  17.076  10.710  0.00  0.00     0.150 HD
HETATM   10  H   UNK N   1      35.149  17.041  10.136  0.00  0.00     0.150 HD
ENDBRANCH   3   8
ENDBRANCH   2   3
ENDBRANCH   1   2
BRANCH   1  11
HETATM   11  C   UNK N   1      30.324  17.105   6.888  0.00  0.00     0.138 C 
BRANCH  11  12
HETATM   12  N   UNK N   1      29.633  17.929   7.853  0.00  0.00    -0.227 N 
HETATM   13  C   UNK N   1      28.237  17.818   8.099  0.00  0.00     0.665 C 
HETATM   14  N   UNK N   1      27.652  18.550   9.151  0.00  0.00    -0.235 N 
HETATM   15  N   UNK N   1      27.510  17.025   7.397  0.00  0.00    -0.235 N 
HETATM   16  H   UNK N   1      28.160  19.211   9.676  0.00  0.00     0.174 HD
HETATM   17  H   UNK N   1      26.704  18.396   9.370  0.00  0.00     0.174 HD
HETATM   18  H   UNK N   1      26.628  16.726   7.716  0.00  0.00     0.174 HD
ATOM     19  HN  UNK N   1      27.852  16.700   6.492  1.00  0.00     0.174 HD
HETATM   20  H   UNK N   1      30.150  18.594   8.362  0.00  0.00     0.177 HD
ENDBRANCH  11  12
ENDBRANCH   1  11
TORSDOF 7
ENDMDL
MODEL 2
REMARK VINA RESULT:      -4.7      3.330      6.430
REMARK  7 active torsions:
REMARK  status: ('A' for Active; 'I' for Inactive)
REMARK    1  A    between atoms: C_1  and  C_2 
REMARK    2  A    between atoms: C_1  and  C_3 
REMARK    3  A    between atoms: C_2  and  C_4 
REMARK    4  A    between atoms: C_3  and  C_5 
REMARK    5  A    between atoms: C_3  and  N_6 
REMARK    6  A    between atoms: C_4  and  N_7 
REMARK    7  A    between atoms: C_5  and  O_8 
REMARK       I    between atoms: N_7  and  C_10 
REMARK       I    between atoms: C_10  and  N_11 
ROOT
HETATM    1  C   UNK N   1      34.636  15.139  10.205  0.00  0.00     0.023 C 
ENDROOT
BRANCH   1   2
HETATM    2  C   UNK N   1      34.496  15.866   8.878  0.00  0.00     0.037 C 
BRANCH   2   3
HETATM    3  C   UNK N   1      33.978  17.283   9.082  0.00  0.00     0.173 C 
BRANCH   3   4
HETATM    4  C   UNK N   1      34.614  18.242   8.112  0.00  0.00     0.163 C 
HETATM    5  O   UNK N   1      34.493  18.067   6.910  0.00  0.00    -0.648 OA
BRANCH   4   6
HETATM    6  O   UNK N   1      35.339  19.287   8.561  0.00  0.00    -0.775 OA
HETATM    7  H   UNK N   1      36.229  19.406   8.295  0.00  0.00     0.167 HD
ENDBRANCH   4   6
ENDBRANCH   3   4
BRANCH   3   8
HETATM    8  N   UNK N   1      32.534  17.283   8.928  0.00  0.00    -0.418 N 
HETATM    9  H   UNK N   1      31.933  16.970   9.690  0.00  0.00     0.150 HD
HETATM   10  H   UNK N   1      32.117  17.598   8.051  0.00  0.00     0.150 HD
ENDBRANCH   3   8
ENDBRANCH   2   3
ENDBRANCH   1   2
BRANCH   1  11
HETATM   11  C   UNK N   1      36.108  14.969  10.558  0.00  0.00     0.138 C 
BRANCH  11  12
HETATM   12  N   UNK N   1      36.361  15.315  11.937  0.00  0.00    -0.227 N 
HETATM   13  C   UNK N   1      36.407  14.348  12.978  0.00  0.00     0.665 C 
HETATM   14  N   UNK N   1      36.797  14.733  14.276  0.00  0.00    -0.235 N 
HETATM   15  N   UNK N   1      36.134  13.116  12.736  0.00  0.00    -0.235 N 
HETATM   16  H   UNK N   1      36.959  15.674  14.517  0.00  0.00     0.174 HD
HETATM   17  H   UNK N   1      36.913  14.039  14.964  0.00  0.00     0.174 HD
HETATM   18  H   UNK N   1      36.422  12.400  13.350  0.00  0.00     0.174 HD
ATOM     19  HN  UNK N   1      35.611  12.873  11.895  1.00  0.00     0.174 HD
HETATM   20  H   UNK N   1      36.508  16.261  12.168  0.00  0.00     0.177 HD
ENDBRANCH  11  12
ENDBRANCH   1  11
TORSDOF 7
ENDMDL
MODEL 3
REMARK VINA RESULT:      -4.6      2.058      2.581
REMARK  7 active torsions:
REMARK  status: ('A' for Active; 'I' for Inactive)
REMARK    1  A    between atoms: C_1  and  C_2 
REMARK    2  A    between atoms: C_1  and  C_3 
REMARK    3  A    between atoms: C_2  and  C_4 
REMARK    4  A    between atoms: C_3  and  C_5 
REMARK    5  A    between atoms: C_3  and  N_6 
REMARK    6  A    between atoms: C_4  and  N_7 
REMARK    7  A    between atoms: C_5  and  O_8 
REMARK       I    between atoms: N_7  and  C_10 
REMARK       I    between atoms: C_10  and  N_11 
ROOT
HETATM    1  C   UNK N   1      32.197  15.995   8.832  0.00  0.00     0.023 C 
ENDROOT
BRANCH   1   2
HETATM    2  C   UNK N   1      33.693  16.018   8.567  0.00  0.00     0.037 C 
BRANCH   2   3
HETATM    3  C   UNK N   1      34.471  15.516   9.776  0.00  0.00     0.173 C 
BRANCH   3   4
HETATM    4  C   UNK N   1      35.479  16.534  10.238  0.00  0.00     0.163 C 
HETATM    5  O   UNK N   1      35.303  17.719  10.003  0.00  0.00    -0.648 OA
BRANCH   4   6
HETATM    6  O   UNK N   1      36.590  16.146  10.896  0.00  0.00    -0.775 OA
HETATM    7  H   UNK N   1      36.538  15.564  11.629  0.00  0.00     0.167 HD
ENDBRANCH   4   6
ENDBRANCH   3   4
BRANCH   3   8
HETATM    8  N   UNK N   1      33.535  15.202  10.842  0.00  0.00    -0.418 N 
HETATM    9  H   UNK N   1      33.341  15.884  11.575  0.00  0.00     0.150 HD
HETATM   10  H   UNK N   1      33.069  14.295  10.857  0.00  0.00     0.150 HD
ENDBRANCH   3   8
ENDBRANCH   2   3
ENDBRANCH   1   2
BRANCH   1  11
HETATM   11  C   UNK N   1      31.571  17.320   8.416  0.00  0.00     0.138 C 
BRANCH  11  12
HETATM   12  N   UNK N   1      30.129  17.244   8.421  0.00  0.00    -0.227 N 
HETATM   13  C   UNK N   1      29.319  18.027   9.288  0.00  0.00     0.665 C 
HETATM   14  N   UNK N   1      27.918  18.009   9.144  0.00  0.00    -0.235 N 
HETATM   15  N   UNK N   1      29.857  18.784  10.177  0.00  0.00    -0.235 N 
HETATM   16  H   UNK N   1      27.463  17.402   8.516  0.00  0.00     0.174 HD
HETATM   17  H   UNK N   1      27.375  18.624   9.689  0.00  0.00     0.174 HD
HETATM   18  H   UNK N   1      29.354  19.525  10.587  0.00  0.00     0.174 HD
ATOM     19  HN  UNK N   1      30.821  18.615  10.463  1.00  0.00     0.174 HD
HETATM   20  H   UNK N   1      29.686  16.624   7.797  0.00  0.00     0.177 HD
ENDBRANCH  11  12
ENDBRANCH   1  11
TORSDOF 7
ENDMDL
MODEL 4
REMARK VINA RESULT:      -4.6      2.494      3.453
REMARK  7 active torsions:
REMARK  status: ('A' for Active; 'I' for Inactive)
REMARK    1  A    between atoms: C_1  and  C_2 
REMARK    2  A    between atoms: C_1  and  C_3 
REMARK    3  A    between atoms: C_2  and  C_4 
REMARK    4  A    between atoms: C_3  and  C_5 
REMARK    5  A    between atoms: C_3  and  N_6 
REMARK    6  A    between atoms: C_4  and  N_7 
REMARK    7  A    between atoms: C_5  and  O_8 
REMARK       I    between atoms: N_7  and  C_10 
REMARK       I    between atoms: C_10  and  N_11 
ROOT
HETATM    1  C   UNK N   1      30.983  16.810   7.979  0.00  0.00     0.023 C 
ENDROOT
BRANCH   1   2
HETATM    2  C   UNK N   1      31.996  17.790   8.548  0.00  0.00     0.037 C 
BRANCH   2   3
HETATM    3  C   UNK N   1      33.405  17.215   8.490  0.00  0.00     0.173 C 
BRANCH   3   4
HETATM    4  C   UNK N   1      34.326  18.109   7.703  0.00  0.00     0.163 C 
HETATM    5  O   UNK N   1      34.948  18.995   8.267  0.00  0.00    -0.648 OA
BRANCH   4   6
HETATM    6  O   UNK N   1      34.457  17.951   6.370  0.00  0.00    -0.775 OA
HETATM    7  H   UNK N   1      33.885  17.383   5.893  0.00  0.00     0.167 HD
ENDBRANCH   4   6
ENDBRANCH   3   4
BRANCH   3   8
HETATM    8  N   UNK N   1      33.898  17.038   9.844  0.00  0.00    -0.418 N 
HETATM    9  H   UNK N   1      33.866  17.809  10.510  0.00  0.00     0.150 HD
HETATM   10  H   UNK N   1      34.280  16.136  10.131  0.00  0.00     0.150 HD
ENDBRANCH   3   8
ENDBRANCH   2   3
ENDBRANCH   1   2
BRANCH   1  11
HETATM   11  C   UNK N   1      30.703  17.135   6.517  0.00  0.00     0.138 C 
BRANCH  11  12
HETATM   12  N   UNK N   1      31.705  16.561   5.650  0.00  0.00    -0.227 N 
HETATM   13  C   UNK N   1      32.018  17.101   4.373  0.00  0.00     0.665 C 
HETATM   14  N   UNK N   1      33.101  16.580   3.638  0.00  0.00    -0.235 N 
HETATM   15  N   UNK N   1      31.346  18.088   3.898  0.00  0.00    -0.235 N 
HETATM   16  H   UNK N   1      33.605  15.788   3.938  0.00  0.00     0.174 HD
HETATM   17  H   UNK N   1      33.364  17.020   2.798  0.00  0.00     0.174 HD
HETATM   18  H   UNK N   1      31.705  18.646   3.170  0.00  0.00     0.174 HD
ATOM     19  HN  UNK N   1      30.424  18.298   4.282  1.00  0.00     0.174 HD
HETATM   20  H   UNK N   1      32.193  15.763   5.956  0.00  0.00     0.177 HD
ENDBRANCH  11  12
ENDBRANCH   1  11
TORSDOF 7
ENDMDL
MODEL 5
REMARK VINA RESULT:      -4.5      4.952      7.712
REMARK  7 active torsions:
REMARK  status: ('A' for Active; 'I' for Inactive)
REMARK    1  A    between atoms: C_1  and  C_2 
REMARK    2  A    between atoms: C_1  and  C_3 
REMARK    3  A    between atoms: C_2  and  C_4 
REMARK    4  A    between atoms: C_3  and  C_5 
REMARK    5  A    between atoms: C_3  and  N_6 
REMARK    6  A    between atoms: C_4  and  N_7 
REMARK    7  A    between atoms: C_5  and  O_8 
REMARK       I    between atoms: N_7  and  C_10 
REMARK       I    between atoms: C_10  and  N_11 
ROOT
HETATM    1  C   UNK N   1      34.931  13.154  11.706  0.00  0.00     0.023 C 
ENDROOT
BRANCH   1   2
HETATM    2  C   UNK N   1      35.370  13.909  10.463  0.00  0.00     0.037 C 
BRANCH   2   3
HETATM    3  C   UNK N   1      34.731  15.290  10.406  0.00  0.00     0.173 C 
BRANCH   3   4
HETATM    4  C   UNK N   1      35.761  16.375  10.562  0.00  0.00     0.163 C 
HETATM    5  O   UNK N   1      35.469  17.535  10.322  0.00  0.00    -0.648 OA
BRANCH   4   6
HETATM    6  O   UNK N   1      37.018  16.074  10.948  0.00  0.00    -0.775 OA
HETATM    7  H   UNK N   1      37.176  15.478  11.652  0.00  0.00     0.167 HD
ENDBRANCH   4   6
ENDBRANCH   3   4
BRANCH   3   8
HETATM    8  N   UNK N   1      34.025  15.431   9.145  0.00  0.00    -0.418 N 
HETATM    9  H   UNK N   1      33.709  14.607   8.636  0.00  0.00     0.150 HD
HETATM   10  H   UNK N   1      33.844  16.361   8.766  0.00  0.00     0.150 HD
ENDBRANCH   3   8
ENDBRANCH   2   3
ENDBRANCH   1   2
BRANCH   1  11
HETATM   11  C   UNK N   1      36.144  12.779  12.549  0.00  0.00     0.138 C 
BRANCH  11  12
HETATM   12  N   UNK N   1      36.747  13.946  13.149  0.00  0.00    -0.227 N 
HETATM   13  C   UNK N   1      36.641  14.239  14.536  0.00  0.00     0.665 C 
HETATM   14  N   UNK N   1      37.369  15.315  15.082  0.00  0.00    -0.235 N 
HETATM   15  N   UNK N   1      35.918  13.507  15.305  0.00  0.00    -0.235 N 
HETATM   16  H   UNK N   1      37.889  15.935  14.520  0.00  0.00     0.174 HD
HETATM   17  H   UNK N   1      37.360  15.451  16.057  0.00  0.00     0.174 HD
HETATM   18  H   UNK N   1      36.045  13.514  16.282  0.00  0.00     0.174 HD
ATOM     19  HN  UNK N   1      35.199  12.908  14.898  1.00  0.00     0.174 HD
HETATM   20  H   UNK N   1      37.253  14.565  12.574  0.00  0.00     0.177 HD
ENDBRANCH  11  12
ENDBRANCH   1  11
TORSDOF 7
ENDMDL
MODEL 6
REMARK VINA RESULT:      -4.5      3.267      5.697
REMARK  7 active torsions:
REMARK  status: ('A' for Active; 'I' for Inactive)
REMARK    1  A    between atoms: C_1  and  C_2 
REMARK    2  A    between atoms: C_1  and  C_3 
REMARK    3  A    between atoms: C_2  and  C_4 
REMARK    4  A    between atoms: C_3  and  C_5 
REMARK    5  A    between atoms: C_3  and  N_6 
REMARK    6  A    between atoms: C_4  and  N_7 
REMARK    7  A    between atoms: C_5  and  O_8 
REMARK       I    between atoms: N_7  and  C_10 
REMARK       I    between atoms: C_10  and  N_11 
ROOT
HETATM    1  C   UNK N   1      32.141  17.820   8.326  0.00  0.00     0.023 C 
ENDROOT
BRANCH   1   2
HETATM    2  C   UNK N   1      30.660  17.539   8.138  0.00  0.00     0.037 C 
BRANCH   2   3
HETATM    3  C   UNK N   1      29.834  18.206   9.230  0.00  0.00     0.173 C 
BRANCH   3   4
HETATM    4  C   UNK N   1      28.457  18.559   8.734  0.00  0.00     0.163 C 
HETATM    5  O   UNK N   1      28.325  19.259   7.743  0.00  0.00    -0.648 OA
BRANCH   4   6
HETATM    6  O   UNK N   1      27.362  18.124   9.391  0.00  0.00    -0.775 OA
HETATM    7  H   UNK N   1      26.667  18.712   9.611  0.00  0.00     0.167 HD
ENDBRANCH   4   6
ENDBRANCH   3   4
BRANCH   3   8
HETATM    8  N   UNK N   1      29.753  17.312  10.372  0.00  0.00    -0.418 N 
HETATM    9  H   UNK N   1      28.848  16.977  10.701  0.00  0.00     0.150 HD
HETATM   10  H   UNK N   1      30.606  17.017  10.848  0.00  0.00     0.150 HD
ENDBRANCH   3   8
ENDBRANCH   2   3
ENDBRANCH   1   2
BRANCH   1  11
HETATM   11  C   UNK N   1      32.879  16.532   8.672  0.00  0.00     0.138 C 
BRANCH  11  12
HETATM   12  N   UNK N   1      34.050  16.798   9.474  0.00  0.00    -0.227 N 
HETATM   13  C   UNK N   1      34.450  15.961  10.552  0.00  0.00     0.665 C 
HETATM   14  N   UNK N   1      35.677  16.196  11.203  0.00  0.00    -0.235 N 
HETATM   15  N   UNK N   1      33.721  14.966  10.912  0.00  0.00    -0.235 N 
HETATM   16  H   UNK N   1      36.238  16.980  10.997  0.00  0.00     0.174 HD
HETATM   17  H   UNK N   1      35.985  15.557  11.885  0.00  0.00     0.174 HD
HETATM   18  H   UNK N   1      34.094  14.228  11.447  0.00  0.00     0.174 HD
ATOM     19  HN  UNK N   1      32.738  14.939  10.639  1.00  0.00     0.174 HD
HETATM   20  H   UNK N   1      34.596  17.591   9.267  0.00  0.00     0.177 HD
ENDBRANCH  11  12
ENDBRANCH   1  11
TORSDOF 7
ENDMDL
MODEL 7
REMARK VINA RESULT:      -4.4     11.012     13.474
REMARK  7 active torsions:
REMARK  status: ('A' for Active; 'I' for Inactive)
REMARK    1  A    between atoms: C_1  and  C_2 
REMARK    2  A    between atoms: C_1  and  C_3 
REMARK    3  A    between atoms: C_2  and  C_4 
REMARK    4  A    between atoms: C_3  and  C_5 
REMARK    5  A    between atoms: C_3  and  N_6 
REMARK    6  A    between atoms: C_4  and  N_7 
REMARK    7  A    between atoms: C_5  and  O_8 
REMARK       I    between atoms: N_7  and  C_10 
REMARK       I    between atoms: C_10  and  N_11 
ROOT
HETATM    1  C   UNK N   1      41.786  22.719   0.761  0.00  0.00     0.023 C 
ENDROOT
BRANCH   1   2
HETATM    2  C   UNK N   1      40.918  22.353   1.953  0.00  0.00     0.037 C 
BRANCH   2   3
HETATM    3  C   UNK N   1      40.612  20.862   1.970  0.00  0.00     0.173 C 
BRANCH   3   4
HETATM    4  C   UNK N   1      41.254  20.187   3.153  0.00  0.00     0.163 C 
HETATM    5  O   UNK N   1      42.466  20.051   3.196  0.00  0.00    -0.648 OA
BRANCH   4   6
HETATM    6  O   UNK N   1      40.496  19.710   4.162  0.00  0.00    -0.775 OA
HETATM    7  H   UNK N   1      39.872  19.027   4.014  0.00  0.00     0.167 HD
ENDBRANCH   4   6
ENDBRANCH   3   4
BRANCH   3   8
HETATM    8  N   UNK N   1      39.172  20.676   1.995  0.00  0.00    -0.418 N 
HETATM    9  H   UNK N   1      38.700  20.209   1.221  0.00  0.00     0.150 HD
HETATM   10  H   UNK N   1      38.630  21.014   2.790  0.00  0.00     0.150 HD
ENDBRANCH   3   8
ENDBRANCH   2   3
ENDBRANCH   1   2
BRANCH   1  11
HETATM   11  C   UNK N   1      43.039  23.450   1.229  0.00  0.00     0.138 C 
BRANCH  11  12
HETATM   12  N   UNK N   1      43.829  22.624   2.112  0.00  0.00    -0.227 N 
HETATM   13  C   UNK N   1      44.034  22.941   3.483  0.00  0.00     0.665 C 
HETATM   14  N   UNK N   1      44.696  22.024   4.322  0.00  0.00    -0.235 N 
HETATM   15  N   UNK N   1      43.586  24.041   3.973  0.00  0.00    -0.235 N 
HETATM   16  H   UNK N   1      45.105  21.197   3.976  0.00  0.00     0.174 HD
HETATM   17  H   UNK N   1      44.751  22.214   5.287  0.00  0.00     0.174 HD
HETATM   18  H   UNK N   1      43.469  24.156   4.944  0.00  0.00     0.174 HD
ATOM     19  HN  UNK N   1      43.347  24.810   3.346  1.00  0.00     0.174 HD
HETATM   20  H   UNK N   1      44.243  21.807   1.751  0.00  0.00     0.177 HD
ENDBRANCH  11  12
ENDBRANCH   1  11
TORSDOF 7
ENDMDL
MODEL 8
REMARK VINA RESULT:      -4.4      3.182      6.438
REMARK  7 active torsions:
REMARK  status: ('A' for Active; 'I' for Inactive)
REMARK    1  A    between atoms: C_1  and  C_2 
REMARK    2  A    between atoms: C_1  and  C_3 
REMARK    3  A    between atoms: C_2  and  C_4 
REMARK    4  A    between atoms: C_3  and  C_5 
REMARK    5  A    between atoms: C_3  and  N_6 
REMARK    6  A    between atoms: C_4  and  N_7 
REMARK    7  A    between atoms: C_5  and  O_8 
REMARK       I    between atoms: N_7  and  C_10 
REMARK       I    between atoms: C_10  and  N_11 
ROOT
HETATM    1  C   UNK N   1      34.756  15.954   9.988  0.00  0.00     0.023 C 
ENDROOT
BRANCH   1   2
HETATM    2  C   UNK N   1      33.607  16.145   9.013  0.00  0.00     0.037 C 
BRANCH   2   3
HETATM    3  C   UNK N   1      33.328  17.623   8.778  0.00  0.00     0.173 C 
BRANCH   3   4
HETATM    4  C   UNK N   1      34.420  18.261   7.961  0.00  0.00     0.163 C 
HETATM    5  O   UNK N   1      34.575  17.943   6.793  0.00  0.00    -0.648 OA
BRANCH   4   6
HETATM    6  O   UNK N   1      35.246  19.172   8.516  0.00  0.00    -0.775 OA
HETATM    7  H   UNK N   1      35.622  19.028   9.362  0.00  0.00     0.167 HD
ENDBRANCH   4   6
ENDBRANCH   3   4
BRANCH   3   8
HETATM    8  N   UNK N   1      32.045  17.761   8.112  0.00  0.00    -0.418 N 
HETATM    9  H   UNK N   1      31.970  18.281   7.238  0.00  0.00     0.150 HD
HETATM   10  H   UNK N   1      31.212  17.335   8.521  0.00  0.00     0.150 HD
ENDBRANCH   3   8
ENDBRANCH   2   3
ENDBRANCH   1   2
BRANCH   1  11
HETATM   11  C   UNK N   1      34.695  14.563  10.606  0.00  0.00     0.138 C 
BRANCH  11  12
HETATM   12  N   UNK N   1      35.969  13.890  10.512  0.00  0.00    -0.227 N 
HETATM   13  C   UNK N   1      36.889  13.830  11.594  0.00  0.00     0.665 C 
HETATM   14  N   UNK N   1      38.050  13.039  11.483  0.00  0.00    -0.235 N 
HETATM   15  N   UNK N   1      36.653  14.460  12.688  0.00  0.00    -0.235 N 
HETATM   16  H   UNK N   1      38.298  12.587  10.643  0.00  0.00     0.174 HD
HETATM   17  H   UNK N   1      38.632  12.933  12.270  0.00  0.00     0.174 HD
HETATM   18  H   UNK N   1      37.113  14.219  13.525  0.00  0.00     0.174 HD
ATOM     19  HN  UNK N   1      35.976  15.223  12.692  1.00  0.00     0.174 HD
HETATM   20  H   UNK N   1      36.210  13.452   9.664  0.00  0.00     0.177 HD
ENDBRANCH  11  12
ENDBRANCH   1  11
TORSDOF 7
ENDMDL
MODEL 9
REMARK VINA RESULT:      -4.4     11.732     13.836
REMARK  7 active torsions:
REMARK  status: ('A' for Active; 'I' for Inactive)
REMARK    1  A    between atoms: C_1  and  C_2 
REMARK    2  A    between atoms: C_1  and  C_3 
REMARK    3  A    between atoms: C_2  and  C_4 
REMARK    4  A    between atoms: C_3  and  C_5 
REMARK    5  A    between atoms: C_3  and  N_6 
REMARK    6  A    between atoms: C_4  and  N_7 
REMARK    7  A    between atoms: C_5  and  O_8 
REMARK       I    between atoms: N_7  and  C_10 
REMARK       I    between atoms: C_10  and  N_11 
ROOT
HETATM    1  C   UNK N   1      42.724  19.908   2.847  0.00  0.00     0.023 C 
ENDROOT
BRANCH   1   2
HETATM    2  C   UNK N   1      41.906  20.555   1.742  0.00  0.00     0.037 C 
BRANCH   2   3
HETATM    3  C   UNK N   1      40.897  21.541   2.314  0.00  0.00     0.173 C 
BRANCH   3   4
HETATM    4  C   UNK N   1      40.857  22.811   1.507  0.00  0.00     0.163 C 
HETATM    5  O   UNK N   1      40.521  22.780   0.334  0.00  0.00    -0.648 OA
BRANCH   4   6
HETATM    6  O   UNK N   1      41.210  23.987   2.065  0.00  0.00    -0.775 OA
HETATM    7  H   UNK N   1      41.934  24.481   1.732  0.00  0.00     0.167 HD
ENDBRANCH   4   6
ENDBRANCH   3   4
BRANCH   3   8
HETATM    8  N   UNK N   1      39.588  20.913   2.344  0.00  0.00    -0.418 N 
HETATM    9  H   UNK N   1      38.761  21.430   2.048  0.00  0.00     0.150 HD
HETATM   10  H   UNK N   1      39.496  19.948   2.663  0.00  0.00     0.150 HD
ENDBRANCH   3   8
ENDBRANCH   2   3
ENDBRANCH   1   2
BRANCH   1  11
HETATM   11  C   UNK N   1      43.326  20.978   3.750  0.00  0.00     0.138 C 
BRANCH  11  12
HETATM   12  N   UNK N   1      44.316  21.761   3.049  0.00  0.00    -0.227 N 
HETATM   13  C   UNK N   1      44.433  23.170   3.201  0.00  0.00     0.665 C 
HETATM   14  N   UNK N   1      45.508  23.853   2.600  0.00  0.00    -0.235 N 
HETATM   15  N   UNK N   1      43.588  23.821   3.917  0.00  0.00    -0.235 N 
HETATM   16  H   UNK N   1      46.144  23.402   1.997  0.00  0.00     0.174 HD
HETATM   17  H   UNK N   1      45.629  24.811   2.787  0.00  0.00     0.174 HD
HETATM   18  H   UNK N   1      43.797  24.720   4.260  0.00  0.00     0.174 HD
ATOM     19  HN  UNK N   1      42.684  23.401   4.134  1.00  0.00     0.174 HD
HETATM   20  H   UNK N   1      44.939  21.301   2.440  0.00  0.00     0.177 HD
ENDBRANCH  11  12
ENDBRANCH   1  11
TORSDOF 7
ENDMDL
