MODEL 1
REMARK VINA RESULT:      -7.7      0.000      0.000
REMARK  25 active torsions:
REMARK  status: ('A' for Active; 'I' for Inactive)
REMARK    1  A    between atoms: C_8  and  C_5 
REMARK    2  A    between atoms: C_9  and  C_6 
REMARK    3  A    between atoms: O_42  and  C_6 
REMARK    4  A    between atoms: O_27  and  C_7 
REMARK    5  A    between atoms: O_28  and  C_10 
REMARK    6  A    between atoms: C_11  and  N_21 
REMARK    7  A    between atoms: C_12  and  O_29 
REMARK    8  A    between atoms: C_13  and  O_30 
REMARK    9  A    between atoms: C_14  and  O_31 
REMARK   10  A    between atoms: C_15  and  O_45 
REMARK   11  A    between atoms: C_16  and  N_25 
REMARK   12  A    between atoms: C_17  and  O_46 
REMARK   13  A    between atoms: C_20  and  C_18 
REMARK   14  A    between atoms: O_33  and  C_18 
REMARK   15  A    between atoms: C_20  and  O_45 
REMARK   16  A    between atoms: O_47  and  C_20 
REMARK   17  A    between atoms: P_49  and  O_35 
REMARK   18  A    between atoms: P_49  and  O_36 
REMARK   19  A    between atoms: P_50  and  O_38 
REMARK   20  A    between atoms: P_51  and  O_40 
REMARK   21  A    between atoms: P_50  and  O_42 
REMARK   22  A    between atoms: P_51  and  O_46 
REMARK   23  A    between atoms: P_49  and  O_47 
REMARK   24  A    between atoms: P_50  and  O_48 
REMARK   25  A    between atoms: P_51  and  O_48 
ROOT
HETATM    1  C   UNK N   1      20.683  20.936   1.403  0.00  0.00     0.198 C 
HETATM    2  O   UNK N   1      20.691  20.840   0.010  0.00  0.00    -0.398 OA
HETATM    3  H   UNK N   1      20.575  20.680  -0.940  0.00  0.00     0.209 HD
ENDROOT
BRANCH   1   4
HETATM    4  C   UNK N   1      21.392  19.747   2.042  0.00  0.00     0.179 C 
HETATM    5  C   UNK N   1      20.367  18.682   2.527  0.00  0.00     0.180 C 
HETATM    6  C   UNK N   1      21.138  17.533   3.213  0.00  0.00     0.184 C 
HETATM    7  C   UNK N   1      22.035  18.115   4.337  0.00  0.00     0.170 C 
HETATM    8  C   UNK N   1      22.983  19.115   3.628  0.00  0.00     0.297 C 
HETATM    9  O   UNK N   1      22.233  20.204   3.096  0.00  0.00    -0.348 OA
BRANCH   5  10
HETATM   10  O   UNK N   1      19.662  18.208   1.420  0.00  0.00    -0.390 OA
HETATM   11  H   UNK N   1      19.572  17.298   1.097  0.00  0.00     0.210 HD
ENDBRANCH   5  10
BRANCH   6  12
HETATM   12  O   UNK N   1      20.401  16.355   3.536  0.00  0.00    -0.336 OA
BRANCH  12  13
HETATM   13  C   UNK N   1      20.691  15.098   2.940  0.00  0.00     0.258 C 
HETATM   14  C   UNK N   1      21.964  15.098   2.105  0.00  0.00     0.092 C 
BRANCH  13  15
HETATM   15  C   UNK N   1      19.582  14.833   1.940  0.00  0.00     0.205 C 
HETATM   16  O   UNK N   1      19.577  15.427   0.871  0.00  0.00    -0.646 OA
BRANCH  15  17
HETATM   17  O   UNK N   1      18.598  13.953   2.202  0.00  0.00    -0.772 OA
HETATM   18  H   UNK N   1      17.737  14.251   2.420  0.00  0.00     0.167 HD
ENDBRANCH  15  17
ENDBRANCH  13  15
BRANCH  13  19
HETATM   19  O   UNK N   1      20.818  14.059   3.902  0.00  0.00    -0.249 OA
BRANCH  19  20
HETATM   20  P   UNK N   1      19.912  14.324   5.395  0.00  0.00     0.393 P 
HETATM   21  O   UNK N   1      19.977  13.079   6.322  0.00  0.00    -0.631 OA
BRANCH  20  22
HETATM   22  O   UNK N   1      20.468  15.689   6.312  0.00  0.00    -0.307 OA
HETATM   23  H   UNK N   1      19.983  15.974   7.102  0.00  0.00     0.222 HD
ENDBRANCH  20  22
BRANCH  20  24
HETATM   24  O   UNK N   1      18.234  14.548   5.014  0.00  0.00    -0.307 OA
HETATM   25  H   UNK N   1      17.840  15.433   5.060  0.00  0.00     0.222 HD
ENDBRANCH  20  24
ENDBRANCH  19  20
ENDBRANCH  13  19
ENDBRANCH  12  13
ENDBRANCH   6  12
BRANCH   7  26
HETATM   26  N   UNK N   1      22.621  17.043   5.142  0.00  0.00    -0.363 N 
HETATM   27  C   UNK N   1      23.711  16.367   4.991  0.00  0.00     0.107 C 
HETATM   28  C   UNK N   1      24.095  15.390   6.045  0.00  0.00     0.097 C 
ATOM     29  HN  UNK N   1      22.075  16.787   5.964  1.00  0.00     0.162 HD
BRANCH  27  30
HETATM   30  O   UNK N   1      24.505  16.505   3.916  0.00  0.00    -0.350 OA
HETATM   31  H   UNK N   1      25.270  17.021   3.752  0.00  0.00     0.219 HD
ENDBRANCH  27  30
ENDBRANCH   7  26
BRANCH   8  32
HETATM   32  O   UNK N   1      24.061  19.542   4.422  0.00  0.00    -0.263 OA
BRANCH  32  33
HETATM   33  P   UNK N   1      25.451  20.130   3.563  0.00  0.00     0.404 P 
HETATM   34  O   UNK N   1      26.247  21.072   4.504  0.00  0.00    -0.631 OA
BRANCH  33  35
HETATM   35  O   UNK N   1      25.121  20.969   2.080  0.00  0.00    -0.307 OA
HETATM   36  H   UNK N   1      25.746  21.600   1.690  0.00  0.00     0.222 HD
ENDBRANCH  33  35
BRANCH  33  37
HETATM   37  O   UNK N   1      26.473  18.749   3.299  0.00  0.00    -0.195 OA
BRANCH  37  38
HETATM   38  P   UNK N   1      27.365  18.344   4.766  0.00  0.00     0.401 P 
HETATM   39  O   UNK N   1      28.568  19.316   4.832  0.00  0.00    -0.631 OA
BRANCH  38  40
HETATM   40  O   UNK N   1      26.384  18.890   6.090  0.00  0.00    -0.307 OA
HETATM   41  H   UNK N   1      26.464  18.554   6.996  0.00  0.00     0.222 HD
ENDBRANCH  38  40
BRANCH  38  42
HETATM   42  O   UNK N   1      27.928  16.734   5.230  0.00  0.00    -0.294 OA
BRANCH  42  43
HETATM   43  C   UNK N   1      29.313  16.732   5.432  0.00  0.00     0.215 C 
BRANCH  43  44
HETATM   44  C   UNK N   1      29.736  16.438   6.867  0.00  0.00     0.180 C 
HETATM   45  C   UNK N   1      29.224  17.510   7.815  0.00  0.00     0.182 C 
HETATM   46  C   UNK N   1      30.215  17.357   8.911  0.00  0.00     0.198 C 
HETATM   47  C   UNK N   1      31.487  17.265   8.072  0.00  0.00     0.263 C 
HETATM   48  O   UNK N   1      31.156  16.439   6.963  0.00  0.00    -0.353 OA
BRANCH  45  49
HETATM   49  O   UNK N   1      27.916  17.277   8.247  0.00  0.00    -0.390 OA
HETATM   50  H   UNK N   1      27.199  17.069   7.628  0.00  0.00     0.210 HD
ENDBRANCH  45  49
BRANCH  46  51
HETATM   51  O   UNK N   1      30.213  18.449   9.783  0.00  0.00    -0.388 OA
HETATM   52  H   UNK N   1      29.790  19.266  10.091  0.00  0.00     0.210 HD
ENDBRANCH  46  51
BRANCH  47  53
HETATM   53  N   UNK N   1      32.717  16.779   8.755  0.00  0.00    -0.280 N 
HETATM   54  C   UNK N   1      32.640  15.533   9.307  0.00  0.00     0.103 A 
HETATM   55  C   UNK N   1      33.730  14.953   9.951  0.00  0.00     0.073 A 
HETATM   56  C   UNK N   1      34.916  15.665  10.028  0.00  0.00     0.144 A 
HETATM   57  N   UNK N   1      34.997  16.900   9.482  0.00  0.00    -0.289 N 
HETATM   58  C   UNK N   1      33.926  17.472   8.846  0.00  0.00     0.330 A 
ATOM     59  HN  UNK N   1      35.874  17.416   9.545  1.00  0.00     0.172 HD
HETATM   60  O   UNK N   1      34.064  18.577   8.363  0.00  0.00    -0.246 OA
BRANCH  56  61
HETATM   61  O   UNK N   1      35.986  15.129  10.638  0.00  0.00    -0.346 OA
HETATM   62  H   UNK N   1      36.621  15.678  11.054  0.00  0.00     0.219 HD
ENDBRANCH  56  61
ENDBRANCH  47  53
ENDBRANCH  43  44
ENDBRANCH  42  43
ENDBRANCH  38  42
ENDBRANCH  37  38
ENDBRANCH  33  37
ENDBRANCH  32  33
ENDBRANCH   8  32
ENDBRANCH   1   4
TORSDOF 25
ENDMDL
MODEL 2
REMARK VINA RESULT:      -7.5      1.808      2.501
REMARK  25 active torsions:
REMARK  status: ('A' for Active; 'I' for Inactive)
REMARK    1  A    between atoms: C_8  and  C_5 
REMARK    2  A    between atoms: C_9  and  C_6 
REMARK    3  A    between atoms: O_42  and  C_6 
REMARK    4  A    between atoms: O_27  and  C_7 
REMARK    5  A    between atoms: O_28  and  C_10 
REMARK    6  A    between atoms: C_11  and  N_21 
REMARK    7  A    between atoms: C_12  and  O_29 
REMARK    8  A    between atoms: C_13  and  O_30 
REMARK    9  A    between atoms: C_14  and  O_31 
REMARK   10  A    between atoms: C_15  and  O_45 
REMARK   11  A    between atoms: C_16  and  N_25 
REMARK   12  A    between atoms: C_17  and  O_46 
REMARK   13  A    between atoms: C_20  and  C_18 
REMARK   14  A    between atoms: O_33  and  C_18 
REMARK   15  A    between atoms: C_20  and  O_45 
REMARK   16  A    between atoms: O_47  and  C_20 
REMARK   17  A    between atoms: P_49  and  O_35 
REMARK   18  A    between atoms: P_49  and  O_36 
REMARK   19  A    between atoms: P_50  and  O_38 
REMARK   20  A    between atoms: P_51  and  O_40 
REMARK   21  A    between atoms: P_50  and  O_42 
REMARK   22  A    between atoms: P_51  and  O_46 
REMARK   23  A    between atoms: P_49  and  O_47 
REMARK   24  A    between atoms: P_50  and  O_48 
REMARK   25  A    between atoms: P_51  and  O_48 
ROOT
HETATM    1  C   UNK N   1      20.747  21.154   1.249  0.00  0.00     0.198 C 
HETATM    2  O   UNK N   1      20.701  20.986  -0.136  0.00  0.00    -0.398 OA
HETATM    3  H   UNK N   1      20.544  20.784  -1.072  0.00  0.00     0.209 HD
ENDROOT
BRANCH   1   4
HETATM    4  C   UNK N   1      21.427  19.968   1.926  0.00  0.00     0.179 C 
HETATM    5  C   UNK N   1      20.383  18.900   2.361  0.00  0.00     0.180 C 
HETATM    6  C   UNK N   1      21.123  17.756   3.087  0.00  0.00     0.184 C 
HETATM    7  C   UNK N   1      21.961  18.343   4.253  0.00  0.00     0.170 C 
HETATM    8  C   UNK N   1      22.940  19.345   3.591  0.00  0.00     0.297 C 
HETATM    9  O   UNK N   1      22.213  20.430   3.019  0.00  0.00    -0.348 OA
BRANCH   5  10
HETATM   10  O   UNK N   1      19.736  18.422   1.222  0.00  0.00    -0.390 OA
HETATM   11  H   UNK N   1      18.827  18.580   0.924  0.00  0.00     0.210 HD
ENDBRANCH   5  10
BRANCH   6  12
HETATM   12  O   UNK N   1      20.375  16.576   3.376  0.00  0.00    -0.336 OA
BRANCH  12  13
HETATM   13  C   UNK N   1      20.722  15.311   2.827  0.00  0.00     0.258 C 
HETATM   14  C   UNK N   1      22.151  15.242   2.310  0.00  0.00     0.092 C 
BRANCH  13  15
HETATM   15  C   UNK N   1      19.862  15.133   1.589  0.00  0.00     0.205 C 
HETATM   16  O   UNK N   1      20.216  15.631   0.531  0.00  0.00    -0.646 OA
BRANCH  15  17
HETATM   17  O   UNK N   1      18.713  14.434   1.630  0.00  0.00    -0.772 OA
HETATM   18  H   UNK N   1      18.725  13.500   1.706  0.00  0.00     0.167 HD
ENDBRANCH  15  17
ENDBRANCH  13  15
BRANCH  13  19
HETATM   19  O   UNK N   1      20.559  14.253   3.761  0.00  0.00    -0.249 OA
BRANCH  19  20
HETATM   20  P   UNK N   1      19.212  14.463   4.884  0.00  0.00     0.393 P 
HETATM   21  O   UNK N   1      19.644  14.160   6.345  0.00  0.00    -0.631 OA
BRANCH  20  22
HETATM   22  O   UNK N   1      18.529  16.058   4.860  0.00  0.00    -0.307 OA
HETATM   23  H   UNK N   1      17.702  16.226   4.382  0.00  0.00     0.222 HD
ENDBRANCH  20  22
BRANCH  20  24
HETATM   24  O   UNK N   1      17.968  13.312   4.507  0.00  0.00    -0.307 OA
HETATM   25  H   UNK N   1      17.179  13.593   4.018  0.00  0.00     0.222 HD
ENDBRANCH  20  24
ENDBRANCH  19  20
ENDBRANCH  13  19
ENDBRANCH  12  13
ENDBRANCH   6  12
BRANCH   7  26
HETATM   26  N   UNK N   1      22.510  17.275   5.089  0.00  0.00    -0.363 N 
HETATM   27  C   UNK N   1      22.043  16.700   6.147  0.00  0.00     0.107 C 
HETATM   28  C   UNK N   1      22.799  15.559   6.731  0.00  0.00     0.097 C 
ATOM     29  HN  UNK N   1      23.417  16.925   4.783  1.00  0.00     0.162 HD
BRANCH  27  30
HETATM   30  O   UNK N   1      20.907  17.098   6.745  0.00  0.00    -0.350 OA
HETATM   31  H   UNK N   1      20.024  16.785   6.707  0.00  0.00     0.219 HD
ENDBRANCH  27  30
ENDBRANCH   7  26
BRANCH   8  32
HETATM   32  O   UNK N   1      23.976  19.778   4.436  0.00  0.00    -0.263 OA
BRANCH  32  33
HETATM   33  P   UNK N   1      25.550  19.894   3.711  0.00  0.00     0.404 P 
HETATM   34  O   UNK N   1      25.383  20.416   2.260  0.00  0.00    -0.631 OA
BRANCH  33  35
HETATM   35  O   UNK N   1      26.473  18.425   3.675  0.00  0.00    -0.307 OA
HETATM   36  H   UNK N   1      26.260  17.693   3.076  0.00  0.00     0.222 HD
ENDBRANCH  33  35
BRANCH  33  37
HETATM   37  O   UNK N   1      26.384  21.150   4.574  0.00  0.00    -0.195 OA
BRANCH  37  38
HETATM   38  P   UNK N   1      27.135  20.511   6.037  0.00  0.00     0.401 P 
HETATM   39  O   UNK N   1      28.216  21.535   6.461  0.00  0.00    -0.631 OA
BRANCH  38  40
HETATM   40  O   UNK N   1      25.954  20.687   7.297  0.00  0.00    -0.307 OA
HETATM   41  H   UNK N   1      25.958  20.168   8.117  0.00  0.00     0.222 HD
ENDBRANCH  38  40
BRANCH  38  42
HETATM   42  O   UNK N   1      27.801  18.886   6.240  0.00  0.00    -0.294 OA
BRANCH  42  43
HETATM   43  C   UNK N   1      28.218  18.683   7.560  0.00  0.00     0.215 C 
BRANCH  43  44
HETATM   44  C   UNK N   1      29.264  17.586   7.724  0.00  0.00     0.180 C 
HETATM   45  C   UNK N   1      30.217  17.910   8.863  0.00  0.00     0.182 C 
HETATM   46  C   UNK N   1      31.391  17.108   8.433  0.00  0.00     0.198 C 
HETATM   47  C   UNK N   1      31.408  17.486   6.954  0.00  0.00     0.263 C 
HETATM   48  O   UNK N   1      30.049  17.483   6.541  0.00  0.00    -0.353 OA
BRANCH  45  49
HETATM   49  O   UNK N   1      29.731  17.511  10.111  0.00  0.00    -0.390 OA
HETATM   50  H   UNK N   1      29.902  16.627  10.472  0.00  0.00     0.210 HD
ENDBRANCH  45  49
BRANCH  46  51
HETATM   51  O   UNK N   1      32.559  17.476   9.106  0.00  0.00    -0.388 OA
HETATM   52  H   UNK N   1      33.050  18.139   9.617  0.00  0.00     0.210 HD
ENDBRANCH  46  51
BRANCH  47  53
HETATM   53  N   UNK N   1      32.246  16.650   6.050  0.00  0.00    -0.280 N 
HETATM   54  C   UNK N   1      31.590  15.669   5.367  0.00  0.00     0.103 A 
HETATM   55  C   UNK N   1      32.254  14.836   4.471  0.00  0.00     0.073 A 
HETATM   56  C   UNK N   1      33.614  15.017   4.274  0.00  0.00     0.144 A 
HETATM   57  N   UNK N   1      34.268  15.989   4.948  0.00  0.00    -0.289 N 
HETATM   58  C   UNK N   1      33.616  16.810   5.830  0.00  0.00     0.330 A 
ATOM     59  HN  UNK N   1      35.269  16.113   4.798  1.00  0.00     0.172 HD
HETATM   60  O   UNK N   1      34.254  17.674   6.396  0.00  0.00    -0.246 OA
BRANCH  56  61
HETATM   61  O   UNK N   1      34.280  14.232   3.411  0.00  0.00    -0.346 OA
HETATM   62  H   UNK N   1      35.198  14.353   3.269  0.00  0.00     0.219 HD
ENDBRANCH  56  61
ENDBRANCH  47  53
ENDBRANCH  43  44
ENDBRANCH  42  43
ENDBRANCH  38  42
ENDBRANCH  37  38
ENDBRANCH  33  37
ENDBRANCH  32  33
ENDBRANCH   8  32
ENDBRANCH   1   4
TORSDOF 25
ENDMDL
MODEL 3
REMARK VINA RESULT:      -7.5      5.221      9.884
REMARK  25 active torsions:
REMARK  status: ('A' for Active; 'I' for Inactive)
REMARK    1  A    between atoms: C_8  and  C_5 
REMARK    2  A    between atoms: C_9  and  C_6 
REMARK    3  A    between atoms: O_42  and  C_6 
REMARK    4  A    between atoms: O_27  and  C_7 
REMARK    5  A    between atoms: O_28  and  C_10 
REMARK    6  A    between atoms: C_11  and  N_21 
REMARK    7  A    between atoms: C_12  and  O_29 
REMARK    8  A    between atoms: C_13  and  O_30 
REMARK    9  A    between atoms: C_14  and  O_31 
REMARK   10  A    between atoms: C_15  and  O_45 
REMARK   11  A    between atoms: C_16  and  N_25 
REMARK   12  A    between atoms: C_17  and  O_46 
REMARK   13  A    between atoms: C_20  and  C_18 
REMARK   14  A    between atoms: O_33  and  C_18 
REMARK   15  A    between atoms: C_20  and  O_45 
REMARK   16  A    between atoms: O_47  and  C_20 
REMARK   17  A    between atoms: P_49  and  O_35 
REMARK   18  A    between atoms: P_49  and  O_36 
REMARK   19  A    between atoms: P_50  and  O_38 
REMARK   20  A    between atoms: P_51  and  O_40 
REMARK   21  A    between atoms: P_50  and  O_42 
REMARK   22  A    between atoms: P_51  and  O_46 
REMARK   23  A    between atoms: P_49  and  O_47 
REMARK   24  A    between atoms: P_50  and  O_48 
REMARK   25  A    between atoms: P_51  and  O_48 
ROOT
HETATM    1  C   UNK N   1      29.119  17.182  10.540  0.00  0.00     0.198 C 
HETATM    2  O   UNK N   1      29.697  16.163  11.299  0.00  0.00    -0.398 OA
HETATM    3  H   UNK N   1      30.197  15.563  11.875  0.00  0.00     0.209 HD
ENDROOT
BRANCH   1   4
HETATM    4  C   UNK N   1      29.883  17.402   9.239  0.00  0.00     0.179 C 
HETATM    5  C   UNK N   1      28.908  17.500   8.030  0.00  0.00     0.180 C 
HETATM    6  C   UNK N   1      29.740  17.665   6.739  0.00  0.00     0.184 C 
HETATM    7  C   UNK N   1      30.769  16.508   6.639  0.00  0.00     0.170 C 
HETATM    8  C   UNK N   1      31.640  16.623   7.915  0.00  0.00     0.297 C 
HETATM    9  O   UNK N   1      30.847  16.368   9.071  0.00  0.00    -0.348 OA
BRANCH   5  10
HETATM   10  O   UNK N   1      28.073  18.601   8.220  0.00  0.00    -0.390 OA
HETATM   11  H   UNK N   1      27.107  18.655   8.149  0.00  0.00     0.210 HD
ENDBRANCH   5  10
BRANCH   6  12
HETATM   12  O   UNK N   1      29.031  17.988   5.544  0.00  0.00    -0.336 OA
BRANCH  12  13
HETATM   13  C   UNK N   1      27.875  17.268   5.136  0.00  0.00     0.258 C 
HETATM   14  C   UNK N   1      27.706  15.934   5.847  0.00  0.00     0.092 C 
BRANCH  13  15
HETATM   15  C   UNK N   1      28.094  16.898   3.681  0.00  0.00     0.205 C 
HETATM   16  O   UNK N   1      27.202  16.339   3.059  0.00  0.00    -0.646 OA
BRANCH  15  17
HETATM   17  O   UNK N   1      29.253  17.172   3.056  0.00  0.00    -0.772 OA
HETATM   18  H   UNK N   1      29.275  17.309   2.129  0.00  0.00     0.167 HD
ENDBRANCH  15  17
ENDBRANCH  13  15
BRANCH  13  19
HETATM   19  O   UNK N   1      26.678  18.008   5.336  0.00  0.00    -0.249 OA
BRANCH  19  20
HETATM   20  P   UNK N   1      26.810  19.732   4.976  0.00  0.00     0.393 P 
HETATM   21  O   UNK N   1      25.415  20.357   4.697  0.00  0.00    -0.631 OA
BRANCH  20  22
HETATM   22  O   UNK N   1      27.551  20.653   6.246  0.00  0.00    -0.307 OA
HETATM   23  H   UNK N   1      27.696  21.606   6.136  0.00  0.00     0.222 HD
ENDBRANCH  20  22
BRANCH  20  24
HETATM   24  O   UNK N   1      27.727  19.944   3.518  0.00  0.00    -0.307 OA
HETATM   25  H   UNK N   1      28.286  19.223   3.188  0.00  0.00     0.222 HD
ENDBRANCH  20  24
ENDBRANCH  19  20
ENDBRANCH  13  19
ENDBRANCH  12  13
ENDBRANCH   6  12
BRANCH   7  26
HETATM   26  N   UNK N   1      31.431  16.513   5.335  0.00  0.00    -0.363 N 
HETATM   27  C   UNK N   1      32.041  15.576   4.688  0.00  0.00     0.107 C 
HETATM   28  C   UNK N   1      32.538  15.864   3.316  0.00  0.00     0.097 C 
ATOM     29  HN  UNK N   1      31.407  17.412   4.853  1.00  0.00     0.162 HD
BRANCH  27  30
HETATM   30  O   UNK N   1      32.250  14.355   5.210  0.00  0.00    -0.350 OA
HETATM   31  H   UNK N   1      32.748  13.616   4.921  0.00  0.00     0.219 HD
ENDBRANCH  27  30
ENDBRANCH   7  26
BRANCH   8  32
HETATM   32  O   UNK N   1      32.809  15.844   7.882  0.00  0.00    -0.263 OA
BRANCH  32  33
HETATM   33  P   UNK N   1      34.283  16.698   7.545  0.00  0.00     0.404 P 
HETATM   34  O   UNK N   1      33.929  18.009   6.796  0.00  0.00    -0.631 OA
BRANCH  33  35
HETATM   35  O   UNK N   1      35.464  15.826   6.620  0.00  0.00    -0.307 OA
HETATM   36  H   UNK N   1      36.317  16.214   6.369  0.00  0.00     0.222 HD
ENDBRANCH  33  35
BRANCH  33  37
HETATM   37  O   UNK N   1      34.917  17.189   9.087  0.00  0.00    -0.195 OA
BRANCH  37  38
HETATM   38  P   UNK N   1      35.275  15.784  10.091  0.00  0.00     0.401 P 
HETATM   39  O   UNK N   1      35.654  14.636   9.123  0.00  0.00    -0.631 OA
BRANCH  38  40
HETATM   40  O   UNK N   1      36.792  16.121  10.864  0.00  0.00    -0.307 OA
HETATM   41  H   UNK N   1      37.329  16.909  10.680  0.00  0.00     0.222 HD
ENDBRANCH  38  40
BRANCH  38  42
HETATM   42  O   UNK N   1      34.239  15.119  11.359  0.00  0.00    -0.294 OA
BRANCH  42  43
HETATM   43  C   UNK N   1      34.659  13.835  11.721  0.00  0.00     0.215 C 
BRANCH  43  44
HETATM   44  C   UNK N   1      35.617  13.800  12.907  0.00  0.00     0.180 C 
HETATM   45  C   UNK N   1      36.718  12.775  12.687  0.00  0.00     0.182 C 
HETATM   46  C   UNK N   1      37.084  12.506  14.101  0.00  0.00     0.198 C 
HETATM   47  C   UNK N   1      35.681  12.382  14.691  0.00  0.00     0.263 C 
HETATM   48  O   UNK N   1      34.917  13.415  14.084  0.00  0.00    -0.353 OA
BRANCH  45  49
HETATM   49  O   UNK N   1      37.791  13.278  11.948  0.00  0.00    -0.390 OA
HETATM   50  H   UNK N   1      38.098  12.853  11.131  0.00  0.00     0.210 HD
ENDBRANCH  45  49
BRANCH  46  51
HETATM   51  O   UNK N   1      37.841  11.340  14.239  0.00  0.00    -0.388 OA
HETATM   52  H   UNK N   1      38.116  10.587  14.787  0.00  0.00     0.210 HD
ENDBRANCH  46  51
BRANCH  47  53
HETATM   53  N   UNK N   1      35.563  12.427  16.175  0.00  0.00    -0.280 N 
HETATM   54  C   UNK N   1      35.320  13.655  16.717  0.00  0.00     0.103 A 
HETATM   55  C   UNK N   1      35.163  13.828  18.089  0.00  0.00     0.073 A 
HETATM   56  C   UNK N   1      35.255  12.720  18.916  0.00  0.00     0.144 A 
HETATM   57  N   UNK N   1      35.495  11.501  18.383  0.00  0.00    -0.289 N 
HETATM   58  C   UNK N   1      35.649  11.329  17.032  0.00  0.00     0.330 A 
ATOM     59  HN  UNK N   1      35.562  10.691  19.000  1.00  0.00     0.172 HD
HETATM   60  O   UNK N   1      35.848  10.207  16.612  0.00  0.00    -0.246 OA
BRANCH  56  61
HETATM   61  O   UNK N   1      35.102  12.855  20.244  0.00  0.00    -0.346 OA
HETATM   62  H   UNK N   1      34.271  13.091  20.606  0.00  0.00     0.219 HD
ENDBRANCH  56  61
ENDBRANCH  47  53
ENDBRANCH  43  44
ENDBRANCH  42  43
ENDBRANCH  38  42
ENDBRANCH  37  38
ENDBRANCH  33  37
ENDBRANCH  32  33
ENDBRANCH   8  32
ENDBRANCH   1   4
TORSDOF 25
ENDMDL
MODEL 4
REMARK VINA RESULT:      -7.5      4.452      8.227
REMARK  25 active torsions:
REMARK  status: ('A' for Active; 'I' for Inactive)
REMARK    1  A    between atoms: C_8  and  C_5 
REMARK    2  A    between atoms: C_9  and  C_6 
REMARK    3  A    between atoms: O_42  and  C_6 
REMARK    4  A    between atoms: O_27  and  C_7 
REMARK    5  A    between atoms: O_28  and  C_10 
REMARK    6  A    between atoms: C_11  and  N_21 
REMARK    7  A    between atoms: C_12  and  O_29 
REMARK    8  A    between atoms: C_13  and  O_30 
REMARK    9  A    between atoms: C_14  and  O_31 
REMARK   10  A    between atoms: C_15  and  O_45 
REMARK   11  A    between atoms: C_16  and  N_25 
REMARK   12  A    between atoms: C_17  and  O_46 
REMARK   13  A    between atoms: C_20  and  C_18 
REMARK   14  A    between atoms: O_33  and  C_18 
REMARK   15  A    between atoms: C_20  and  O_45 
REMARK   16  A    between atoms: O_47  and  C_20 
REMARK   17  A    between atoms: P_49  and  O_35 
REMARK   18  A    between atoms: P_49  and  O_36 
REMARK   19  A    between atoms: P_50  and  O_38 
REMARK   20  A    between atoms: P_51  and  O_40 
REMARK   21  A    between atoms: P_50  and  O_42 
REMARK   22  A    between atoms: P_51  and  O_46 
REMARK   23  A    between atoms: P_49  and  O_47 
REMARK   24  A    between atoms: P_50  and  O_48 
REMARK   25  A    between atoms: P_51  and  O_48 
ROOT
HETATM    1  C   UNK N   1      28.683  18.453   9.038  0.00  0.00     0.198 C 
HETATM    2  O   UNK N   1      27.454  17.931   9.447  0.00  0.00    -0.398 OA
HETATM    3  H   UNK N   1      26.683  17.454   9.792  0.00  0.00     0.209 HD
ENDROOT
BRANCH   1   4
HETATM    4  C   UNK N   1      29.152  17.805   7.739  0.00  0.00     0.179 C 
HETATM    5  C   UNK N   1      28.023  16.941   7.108  0.00  0.00     0.180 C 
HETATM    6  C   UNK N   1      28.573  16.269   5.831  0.00  0.00     0.184 C 
HETATM    7  C   UNK N   1      29.863  15.481   6.180  0.00  0.00     0.170 C 
HETATM    8  C   UNK N   1      30.843  16.533   6.756  0.00  0.00     0.297 C 
HETATM    9  O   UNK N   1      30.335  17.052   7.982  0.00  0.00    -0.348 OA
BRANCH   5  10
HETATM   10  O   UNK N   1      26.946  17.772   6.801  0.00  0.00    -0.390 OA
HETATM   11  H   UNK N   1      26.434  18.352   7.387  0.00  0.00     0.210 HD
ENDBRANCH   5  10
BRANCH   6  12
HETATM   12  O   UNK N   1      27.633  15.606   4.987  0.00  0.00    -0.336 OA
BRANCH  12  13
HETATM   13  C   UNK N   1      27.316  16.087   3.688  0.00  0.00     0.258 C 
HETATM   14  C   UNK N   1      27.725  15.140   2.570  0.00  0.00     0.092 C 
BRANCH  13  15
HETATM   15  C   UNK N   1      28.171  17.322   3.470  0.00  0.00     0.205 C 
HETATM   16  O   UNK N   1      27.722  18.425   3.747  0.00  0.00    -0.646 OA
BRANCH  15  17
HETATM   17  O   UNK N   1      29.419  17.231   2.977  0.00  0.00    -0.772 OA
HETATM   18  H   UNK N   1      29.869  16.409   2.964  0.00  0.00     0.167 HD
ENDBRANCH  15  17
ENDBRANCH  13  15
BRANCH  13  19
HETATM   19  O   UNK N   1      25.929  16.350   3.532  0.00  0.00    -0.249 OA
BRANCH  19  20
HETATM   20  P   UNK N   1      24.876  15.396   4.582  0.00  0.00     0.393 P 
HETATM   21  O   UNK N   1      23.424  15.351   4.033  0.00  0.00    -0.631 OA
BRANCH  20  22
HETATM   22  O   UNK N   1      25.406  13.757   4.793  0.00  0.00    -0.307 OA
HETATM   23  H   UNK N   1      26.218  13.568   5.289  0.00  0.00     0.222 HD
ENDBRANCH  20  22
BRANCH  20  24
HETATM   24  O   UNK N   1      24.775  16.160   6.137  0.00  0.00    -0.307 OA
HETATM   25  H   UNK N   1      23.908  16.324   6.541  0.00  0.00     0.222 HD
ENDBRANCH  20  24
ENDBRANCH  19  20
ENDBRANCH  13  19
ENDBRANCH  12  13
ENDBRANCH   6  12
BRANCH   7  26
HETATM   26  N   UNK N   1      30.296  14.665   5.045  0.00  0.00    -0.363 N 
HETATM   27  C   UNK N   1      31.088  13.645   4.985  0.00  0.00     0.107 C 
HETATM   28  C   UNK N   1      31.263  12.956   3.679  0.00  0.00     0.097 C 
ATOM     29  HN  UNK N   1      29.907  14.951   4.147  1.00  0.00     0.162 HD
BRANCH  27  30
HETATM   30  O   UNK N   1      31.764  13.191   6.054  0.00  0.00    -0.350 OA
HETATM   31  H   UNK N   1      31.901  13.538   6.914  0.00  0.00     0.219 HD
ENDBRANCH  27  30
ENDBRANCH   7  26
BRANCH   8  32
HETATM   32  O   UNK N   1      32.168  16.078   6.872  0.00  0.00    -0.263 OA
BRANCH  32  33
HETATM   33  P   UNK N   1      33.318  16.802   5.791  0.00  0.00     0.404 P 
HETATM   34  O   UNK N   1      32.543  17.637   4.739  0.00  0.00    -0.631 OA
BRANCH  33  35
HETATM   35  O   UNK N   1      34.372  15.698   4.964  0.00  0.00    -0.307 OA
HETATM   36  H   UNK N   1      34.518  15.740   4.006  0.00  0.00     0.222 HD
ENDBRANCH  33  35
BRANCH  33  37
HETATM   37  O   UNK N   1      34.214  17.949   6.740  0.00  0.00    -0.195 OA
BRANCH  37  38
HETATM   38  P   UNK N   1      34.325  17.418   8.419  0.00  0.00     0.401 P 
HETATM   39  O   UNK N   1      35.260  18.423   9.137  0.00  0.00    -0.631 OA
BRANCH  38  40
HETATM   40  O   UNK N   1      32.786  17.778   9.138  0.00  0.00    -0.307 OA
HETATM   41  H   UNK N   1      31.986  17.980   8.628  0.00  0.00     0.222 HD
ENDBRANCH  38  40
BRANCH  38  42
HETATM   42  O   UNK N   1      34.734  15.790   8.972  0.00  0.00    -0.294 OA
BRANCH  42  43
HETATM   43  C   UNK N   1      34.027  15.470  10.136  0.00  0.00     0.215 C 
BRANCH  43  44
HETATM   44  C   UNK N   1      34.911  15.143  11.334  0.00  0.00     0.180 C 
HETATM   45  C   UNK N   1      36.321  14.788  10.890  0.00  0.00     0.182 C 
HETATM   46  C   UNK N   1      36.743  13.968  12.054  0.00  0.00     0.198 C 
HETATM   47  C   UNK N   1      35.484  13.119  12.217  0.00  0.00     0.263 C 
HETATM   48  O   UNK N   1      34.394  14.010  12.023  0.00  0.00    -0.353 OA
BRANCH  45  49
HETATM   49  O   UNK N   1      37.134  15.910  10.709  0.00  0.00    -0.390 OA
HETATM   50  H   UNK N   1      37.483  16.419  11.457  0.00  0.00     0.210 HD
ENDBRANCH  45  49
BRANCH  46  51
HETATM   51  O   UNK N   1      37.883  13.208  11.780  0.00  0.00    -0.388 OA
HETATM   52  H   UNK N   1      38.584  12.618  12.098  0.00  0.00     0.210 HD
ENDBRANCH  46  51
BRANCH  47  53
HETATM   53  N   UNK N   1      35.338  12.360  13.490  0.00  0.00    -0.280 N 
HETATM   54  C   UNK N   1      35.225  13.111  14.623  0.00  0.00     0.103 A 
HETATM   55  C   UNK N   1      35.057  12.522  15.873  0.00  0.00     0.073 A 
HETATM   56  C   UNK N   1      35.003  11.140  15.959  0.00  0.00     0.144 A 
HETATM   57  N   UNK N   1      35.114  10.392  14.837  0.00  0.00    -0.289 N 
HETATM   58  C   UNK N   1      35.279  10.970  13.606  0.00  0.00     0.330 A 
ATOM     59  HN  UNK N   1      35.075   9.376  14.911  1.00  0.00     0.172 HD
HETATM   60  O   UNK N   1      35.358  10.246  12.634  0.00  0.00    -0.246 OA
BRANCH  56  61
HETATM   61  O   UNK N   1      34.836  10.544  17.150  0.00  0.00    -0.346 OA
HETATM   62  H   UNK N   1      35.540  10.071  17.548  0.00  0.00     0.219 HD
ENDBRANCH  56  61
ENDBRANCH  47  53
ENDBRANCH  43  44
ENDBRANCH  42  43
ENDBRANCH  38  42
ENDBRANCH  37  38
ENDBRANCH  33  37
ENDBRANCH  32  33
ENDBRANCH   8  32
ENDBRANCH   1   4
TORSDOF 25
ENDMDL
MODEL 5
REMARK VINA RESULT:      -7.5      6.235     10.379
REMARK  25 active torsions:
REMARK  status: ('A' for Active; 'I' for Inactive)
REMARK    1  A    between atoms: C_8  and  C_5 
REMARK    2  A    between atoms: C_9  and  C_6 
REMARK    3  A    between atoms: O_42  and  C_6 
REMARK    4  A    between atoms: O_27  and  C_7 
REMARK    5  A    between atoms: O_28  and  C_10 
REMARK    6  A    between atoms: C_11  and  N_21 
REMARK    7  A    between atoms: C_12  and  O_29 
REMARK    8  A    between atoms: C_13  and  O_30 
REMARK    9  A    between atoms: C_14  and  O_31 
REMARK   10  A    between atoms: C_15  and  O_45 
REMARK   11  A    between atoms: C_16  and  N_25 
REMARK   12  A    between atoms: C_17  and  O_46 
REMARK   13  A    between atoms: C_20  and  C_18 
REMARK   14  A    between atoms: O_33  and  C_18 
REMARK   15  A    between atoms: C_20  and  O_45 
REMARK   16  A    between atoms: O_47  and  C_20 
REMARK   17  A    between atoms: P_49  and  O_35 
REMARK   18  A    between atoms: P_49  and  O_36 
REMARK   19  A    between atoms: P_50  and  O_38 
REMARK   20  A    between atoms: P_51  and  O_40 
REMARK   21  A    between atoms: P_50  and  O_42 
REMARK   22  A    between atoms: P_51  and  O_46 
REMARK   23  A    between atoms: P_49  and  O_47 
REMARK   24  A    between atoms: P_50  and  O_48 
REMARK   25  A    between atoms: P_51  and  O_48 
ROOT
HETATM    1  C   UNK N   1      28.383  18.698   9.047  0.00  0.00     0.198 C 
HETATM    2  O   UNK N   1      27.411  17.766   9.420  0.00  0.00    -0.398 OA
HETATM    3  H   UNK N   1      26.834  17.081   9.792  0.00  0.00     0.209 HD
ENDROOT
BRANCH   1   4
HETATM    4  C   UNK N   1      29.469  18.050   8.195  0.00  0.00     0.179 C 
HETATM    5  C   UNK N   1      28.872  16.949   7.272  0.00  0.00     0.180 C 
HETATM    6  C   UNK N   1      30.023  16.293   6.479  0.00  0.00     0.184 C 
HETATM    7  C   UNK N   1      31.102  15.781   7.469  0.00  0.00     0.170 C 
HETATM    8  C   UNK N   1      31.570  17.034   8.251  0.00  0.00     0.297 C 
HETATM    9  O   UNK N   1      30.498  17.543   9.040  0.00  0.00    -0.348 OA
BRANCH   5  10
HETATM   10  O   UNK N   1      27.956  17.546   6.405  0.00  0.00    -0.390 OA
HETATM   11  H   UNK N   1      27.152  17.171   6.013  0.00  0.00     0.210 HD
ENDBRANCH   5  10
BRANCH   6  12
HETATM   12  O   UNK N   1      29.664  15.409   5.419  0.00  0.00    -0.336 OA
BRANCH  12  13
HETATM   13  C   UNK N   1      29.971  15.697   4.061  0.00  0.00     0.258 C 
HETATM   14  C   UNK N   1      30.284  17.163   3.805  0.00  0.00     0.092 C 
BRANCH  13  15
HETATM   15  C   UNK N   1      28.701  15.437   3.272  0.00  0.00     0.205 C 
HETATM   16  O   UNK N   1      27.614  15.628   3.797  0.00  0.00    -0.646 OA
BRANCH  15  17
HETATM   17  O   UNK N   1      28.745  14.999   2.000  0.00  0.00    -0.772 OA
HETATM   18  H   UNK N   1      28.863  14.089   1.812  0.00  0.00     0.167 HD
ENDBRANCH  15  17
ENDBRANCH  13  15
BRANCH  13  19
HETATM   19  O   UNK N   1      31.075  14.940   3.584  0.00  0.00    -0.249 OA
BRANCH  19  20
HETATM   20  P   UNK N   1      32.490  15.902   3.144  0.00  0.00     0.393 P 
HETATM   21  O   UNK N   1      33.535  15.047   2.376  0.00  0.00    -0.631 OA
BRANCH  20  22
HETATM   22  O   UNK N   1      32.116  17.280   2.158  0.00  0.00    -0.307 OA
HETATM   23  H   UNK N   1      32.557  18.128   2.320  0.00  0.00     0.222 HD
ENDBRANCH  20  22
BRANCH  20  24
HETATM   24  O   UNK N   1      33.286  16.442   4.589  0.00  0.00    -0.307 OA
HETATM   25  H   UNK N   1      34.237  16.634   4.576  0.00  0.00     0.222 HD
ENDBRANCH  20  24
ENDBRANCH  19  20
ENDBRANCH  13  19
ENDBRANCH  12  13
ENDBRANCH   6  12
BRANCH   7  26
HETATM   26  N   UNK N   1      32.105  14.974   6.773  0.00  0.00    -0.363 N 
HETATM   27  C   UNK N   1      32.766  13.930   7.150  0.00  0.00     0.107 C 
HETATM   28  C   UNK N   1      33.662  13.261   6.169  0.00  0.00     0.097 C 
ATOM     29  HN  UNK N   1      32.318  15.290   5.827  1.00  0.00     0.162 HD
BRANCH  27  30
HETATM   30  O   UNK N   1      32.682  13.433   8.396  0.00  0.00    -0.350 OA
HETATM   31  H   UNK N   1      33.295  12.981   8.943  0.00  0.00     0.219 HD
ENDBRANCH  27  30
ENDBRANCH   7  26
BRANCH   8  32
HETATM   32  O   UNK N   1      32.742  16.837   9.000  0.00  0.00    -0.263 OA
BRANCH  32  33
HETATM   33  P   UNK N   1      34.195  17.514   8.331  0.00  0.00     0.404 P 
HETATM   34  O   UNK N   1      33.937  19.010   8.014  0.00  0.00    -0.631 OA
BRANCH  33  35
HETATM   35  O   UNK N   1      34.801  16.735   6.903  0.00  0.00    -0.307 OA
HETATM   36  H   UNK N   1      34.229  16.513   6.151  0.00  0.00     0.222 HD
ENDBRANCH  33  35
BRANCH  33  37
HETATM   37  O   UNK N   1      35.368  17.496   9.613  0.00  0.00    -0.195 OA
BRANCH  37  38
HETATM   38  P   UNK N   1      35.489  15.888  10.326  0.00  0.00     0.401 P 
HETATM   39  O   UNK N   1      35.449  14.881   9.151  0.00  0.00    -0.631 OA
BRANCH  38  40
HETATM   40  O   UNK N   1      37.127  15.732  10.881  0.00  0.00    -0.307 OA
HETATM   41  H   UNK N   1      37.769  16.460  10.880  0.00  0.00     0.222 HD
ENDBRANCH  38  40
BRANCH  38  42
HETATM   42  O   UNK N   1      34.487  15.251  11.636  0.00  0.00    -0.294 OA
BRANCH  42  43
HETATM   43  C   UNK N   1      34.836  13.928  11.928  0.00  0.00     0.215 C 
BRANCH  43  44
HETATM   44  C   UNK N   1      35.781  13.778  13.115  0.00  0.00     0.180 C 
HETATM   45  C   UNK N   1      36.760  12.637  12.890  0.00  0.00     0.182 C 
HETATM   46  C   UNK N   1      37.091  12.319  14.302  0.00  0.00     0.198 C 
HETATM   47  C   UNK N   1      35.681  12.350  14.890  0.00  0.00     0.263 C 
HETATM   48  O   UNK N   1      35.040  13.466  14.289  0.00  0.00    -0.353 OA
BRANCH  45  49
HETATM   49  O   UNK N   1      37.885  13.020  12.155  0.00  0.00    -0.390 OA
HETATM   50  H   UNK N   1      37.963  13.899  11.754  0.00  0.00     0.210 HD
ENDBRANCH  45  49
BRANCH  46  51
HETATM   51  O   UNK N   1      37.711  11.073  14.434  0.00  0.00    -0.388 OA
HETATM   52  H   UNK N   1      38.528  10.554  14.493  0.00  0.00     0.210 HD
ENDBRANCH  46  51
BRANCH  47  53
HETATM   53  N   UNK N   1      35.567  12.398  16.374  0.00  0.00    -0.280 N 
HETATM   54  C   UNK N   1      35.347  13.631  16.915  0.00  0.00     0.103 A 
HETATM   55  C   UNK N   1      35.194  13.807  18.287  0.00  0.00     0.073 A 
HETATM   56  C   UNK N   1      35.268  12.699  19.115  0.00  0.00     0.144 A 
HETATM   57  N   UNK N   1      35.485  11.474  18.583  0.00  0.00    -0.289 N 
HETATM   58  C   UNK N   1      35.634  11.299  17.232  0.00  0.00     0.330 A 
ATOM     59  HN  UNK N   1      35.539  10.665  19.200  1.00  0.00     0.172 HD
HETATM   60  O   UNK N   1      35.812  10.174  16.812  0.00  0.00    -0.246 OA
BRANCH  56  61
HETATM   61  O   UNK N   1      35.119  12.837  20.443  0.00  0.00    -0.346 OA
HETATM   62  H   UNK N   1      35.049  13.688  20.828  0.00  0.00     0.219 HD
ENDBRANCH  56  61
ENDBRANCH  47  53
ENDBRANCH  43  44
ENDBRANCH  42  43
ENDBRANCH  38  42
ENDBRANCH  37  38
ENDBRANCH  33  37
ENDBRANCH  32  33
ENDBRANCH   8  32
ENDBRANCH   1   4
TORSDOF 25
ENDMDL
MODEL 6
REMARK VINA RESULT:      -7.3      6.128     10.125
REMARK  25 active torsions:
REMARK  status: ('A' for Active; 'I' for Inactive)
REMARK    1  A    between atoms: C_8  and  C_5 
REMARK    2  A    between atoms: C_9  and  C_6 
REMARK    3  A    between atoms: O_42  and  C_6 
REMARK    4  A    between atoms: O_27  and  C_7 
REMARK    5  A    between atoms: O_28  and  C_10 
REMARK    6  A    between atoms: C_11  and  N_21 
REMARK    7  A    between atoms: C_12  and  O_29 
REMARK    8  A    between atoms: C_13  and  O_30 
REMARK    9  A    between atoms: C_14  and  O_31 
REMARK   10  A    between atoms: C_15  and  O_45 
REMARK   11  A    between atoms: C_16  and  N_25 
REMARK   12  A    between atoms: C_17  and  O_46 
REMARK   13  A    between atoms: C_20  and  C_18 
REMARK   14  A    between atoms: O_33  and  C_18 
REMARK   15  A    between atoms: C_20  and  O_45 
REMARK   16  A    between atoms: O_47  and  C_20 
REMARK   17  A    between atoms: P_49  and  O_35 
REMARK   18  A    between atoms: P_49  and  O_36 
REMARK   19  A    between atoms: P_50  and  O_38 
REMARK   20  A    between atoms: P_51  and  O_40 
REMARK   21  A    between atoms: P_50  and  O_42 
REMARK   22  A    between atoms: P_51  and  O_46 
REMARK   23  A    between atoms: P_49  and  O_47 
REMARK   24  A    between atoms: P_50  and  O_48 
REMARK   25  A    between atoms: P_51  and  O_48 
ROOT
HETATM    1  C   UNK N   1      28.357  18.669   8.045  0.00  0.00     0.198 C 
HETATM    2  O   UNK N   1      28.414  18.654   9.440  0.00  0.00    -0.398 OA
HETATM    3  H   UNK N   1      28.554  18.760  10.394  0.00  0.00     0.209 HD
ENDROOT
BRANCH   1   4
HETATM    4  C   UNK N   1      29.524  17.900   7.436  0.00  0.00     0.179 C 
HETATM    5  C   UNK N   1      29.020  16.679   6.614  0.00  0.00     0.180 C 
HETATM    6  C   UNK N   1      30.245  15.911   6.072  0.00  0.00     0.184 C 
HETATM    7  C   UNK N   1      31.184  15.544   7.251  0.00  0.00     0.170 C 
HETATM    8  C   UNK N   1      31.580  16.895   7.896  0.00  0.00     0.297 C 
HETATM    9  O   UNK N   1      30.432  17.518   8.465  0.00  0.00    -0.348 OA
BRANCH   5  10
HETATM   10  O   UNK N   1      28.229  17.147   5.564  0.00  0.00    -0.390 OA
HETATM   11  H   UNK N   1      27.278  17.032   5.418  0.00  0.00     0.210 HD
ENDBRANCH   5  10
BRANCH   6  12
HETATM   12  O   UNK N   1      29.998  14.883   5.114  0.00  0.00    -0.336 OA
BRANCH  12  13
HETATM   13  C   UNK N   1      30.455  14.979   3.772  0.00  0.00     0.258 C 
HETATM   14  C   UNK N   1      31.484  13.921   3.401  0.00  0.00     0.092 C 
BRANCH  13  15
HETATM   15  C   UNK N   1      31.208  16.292   3.669  0.00  0.00     0.205 C 
HETATM   16  O   UNK N   1      32.420  16.308   3.830  0.00  0.00    -0.646 OA
BRANCH  15  17
HETATM   17  O   UNK N   1      30.569  17.446   3.402  0.00  0.00    -0.772 OA
HETATM   18  H   UNK N   1      29.634  17.495   3.441  0.00  0.00     0.167 HD
ENDBRANCH  15  17
ENDBRANCH  13  15
BRANCH  13  19
HETATM   19  O   UNK N   1      29.394  14.883   2.830  0.00  0.00    -0.249 OA
BRANCH  19  20
HETATM   20  P   UNK N   1      28.027  13.897   3.360  0.00  0.00     0.393 P 
HETATM   21  O   UNK N   1      27.157  13.447   2.155  0.00  0.00    -0.631 OA
BRANCH  20  22
HETATM   22  O   UNK N   1      28.495  12.471   4.231  0.00  0.00    -0.307 OA
HETATM   23  H   UNK N   1      27.934  12.130   4.945  0.00  0.00     0.222 HD
ENDBRANCH  20  22
BRANCH  20  24
HETATM   24  O   UNK N   1      26.987  14.855   4.367  0.00  0.00    -0.307 OA
HETATM   25  H   UNK N   1      26.607  15.680   4.025  0.00  0.00     0.222 HD
ENDBRANCH  20  24
ENDBRANCH  19  20
ENDBRANCH  13  19
ENDBRANCH  12  13
ENDBRANCH   6  12
BRANCH   7  26
HETATM   26  N   UNK N   1      32.246  14.641   6.807  0.00  0.00    -0.363 N 
HETATM   27  C   UNK N   1      32.945  13.768   7.455  0.00  0.00     0.107 C 
HETATM   28  C   UNK N   1      33.903  12.918   6.698  0.00  0.00     0.097 C 
ATOM     29  HN  UNK N   1      32.474  14.712   5.816  1.00  0.00     0.162 HD
BRANCH  27  30
HETATM   30  O   UNK N   1      32.846  13.606   8.785  0.00  0.00    -0.350 OA
HETATM   31  H   UNK N   1      32.149  13.315   9.340  0.00  0.00     0.219 HD
ENDBRANCH  27  30
ENDBRANCH   7  26
BRANCH   8  32
HETATM   32  O   UNK N   1      32.649  16.805   8.805  0.00  0.00    -0.263 OA
BRANCH  32  33
HETATM   33  P   UNK N   1      34.171  17.433   8.253  0.00  0.00     0.404 P 
HETATM   34  O   UNK N   1      33.958  18.897   7.788  0.00  0.00    -0.631 OA
BRANCH  33  35
HETATM   35  O   UNK N   1      34.932  16.544   6.971  0.00  0.00    -0.307 OA
HETATM   36  H   UNK N   1      35.881  16.339   6.974  0.00  0.00     0.222 HD
ENDBRANCH  33  35
BRANCH  33  37
HETATM   37  O   UNK N   1      35.190  17.524   9.657  0.00  0.00    -0.195 OA
BRANCH  37  38
HETATM   38  P   UNK N   1      35.472  15.918  10.330  0.00  0.00     0.401 P 
HETATM   39  O   UNK N   1      35.582  14.950   9.127  0.00  0.00    -0.631 OA
BRANCH  38  40
HETATM   40  O   UNK N   1      37.100  15.931  10.934  0.00  0.00    -0.307 OA
HETATM   41  H   UNK N   1      37.668  15.146  10.972  0.00  0.00     0.222 HD
ENDBRANCH  38  40
BRANCH  38  42
HETATM   42  O   UNK N   1      34.510  15.133  11.588  0.00  0.00    -0.294 OA
BRANCH  42  43
HETATM   43  C   UNK N   1      34.970  13.833  11.824  0.00  0.00     0.215 C 
BRANCH  43  44
HETATM   44  C   UNK N   1      35.881  13.703  13.040  0.00  0.00     0.180 C 
HETATM   45  C   UNK N   1      36.837  12.532  12.880  0.00  0.00     0.182 C 
HETATM   46  C   UNK N   1      37.124  12.257  14.311  0.00  0.00     0.198 C 
HETATM   47  C   UNK N   1      35.702  12.342  14.860  0.00  0.00     0.263 C 
HETATM   48  O   UNK N   1      35.103  13.450  14.204  0.00  0.00    -0.353 OA
BRANCH  45  49
HETATM   49  O   UNK N   1      37.989  12.863  12.162  0.00  0.00    -0.390 OA
HETATM   50  H   UNK N   1      38.367  13.756  12.178  0.00  0.00     0.210 HD
ENDBRANCH  45  49
BRANCH  46  51
HETATM   51  O   UNK N   1      37.711  11.003  14.502  0.00  0.00    -0.388 OA
HETATM   52  H   UNK N   1      37.696  10.136  14.938  0.00  0.00     0.210 HD
ENDBRANCH  46  51
BRANCH  47  53
HETATM   53  N   UNK N   1      35.551  12.445  16.338  0.00  0.00    -0.280 N 
HETATM   54  C   UNK N   1      35.386  13.705  16.834  0.00  0.00     0.103 A 
HETATM   55  C   UNK N   1      35.208  13.935  18.195  0.00  0.00     0.073 A 
HETATM   56  C   UNK N   1      35.197  12.852  19.059  0.00  0.00     0.144 A 
HETATM   57  N   UNK N   1      35.359  11.601  18.572  0.00  0.00    -0.289 N 
HETATM   58  C   UNK N   1      35.534  11.373  17.232  0.00  0.00     0.330 A 
ATOM     59  HN  UNK N   1      35.351  10.810  19.216  1.00  0.00     0.172 HD
HETATM   60  O   UNK N   1      35.660  10.226  16.853  0.00  0.00    -0.246 OA
BRANCH  56  61
HETATM   61  O   UNK N   1      35.021  13.042  20.377  0.00  0.00    -0.346 OA
HETATM   62  H   UNK N   1      35.716  13.380  20.906  0.00  0.00     0.219 HD
ENDBRANCH  56  61
ENDBRANCH  47  53
ENDBRANCH  43  44
ENDBRANCH  42  43
ENDBRANCH  38  42
ENDBRANCH  37  38
ENDBRANCH  33  37
ENDBRANCH  32  33
ENDBRANCH   8  32
ENDBRANCH   1   4
TORSDOF 25
ENDMDL
MODEL 7
REMARK VINA RESULT:      -7.3      1.789      2.583
REMARK  25 active torsions:
REMARK  status: ('A' for Active; 'I' for Inactive)
REMARK    1  A    between atoms: C_8  and  C_5 
REMARK    2  A    between atoms: C_9  and  C_6 
REMARK    3  A    between atoms: O_42  and  C_6 
REMARK    4  A    between atoms: O_27  and  C_7 
REMARK    5  A    between atoms: O_28  and  C_10 
REMARK    6  A    between atoms: C_11  and  N_21 
REMARK    7  A    between atoms: C_12  and  O_29 
REMARK    8  A    between atoms: C_13  and  O_30 
REMARK    9  A    between atoms: C_14  and  O_31 
REMARK   10  A    between atoms: C_15  and  O_45 
REMARK   11  A    between atoms: C_16  and  N_25 
REMARK   12  A    between atoms: C_17  and  O_46 
REMARK   13  A    between atoms: C_20  and  C_18 
REMARK   14  A    between atoms: O_33  and  C_18 
REMARK   15  A    between atoms: C_20  and  O_45 
REMARK   16  A    between atoms: O_47  and  C_20 
REMARK   17  A    between atoms: P_49  and  O_35 
REMARK   18  A    between atoms: P_49  and  O_36 
REMARK   19  A    between atoms: P_50  and  O_38 
REMARK   20  A    between atoms: P_51  and  O_40 
REMARK   21  A    between atoms: P_50  and  O_42 
REMARK   22  A    between atoms: P_51  and  O_46 
REMARK   23  A    between atoms: P_49  and  O_47 
REMARK   24  A    between atoms: P_50  and  O_48 
REMARK   25  A    between atoms: P_51  and  O_48 
ROOT
HETATM    1  C   UNK N   1      20.609  20.162   1.463  0.00  0.00     0.198 C 
HETATM    2  O   UNK N   1      20.654  20.176   0.067  0.00  0.00    -0.398 OA
HETATM    3  H   UNK N   1      20.550  20.115  -0.895  0.00  0.00     0.209 HD
ENDROOT
BRANCH   1   4
HETATM    4  C   UNK N   1      21.078  18.820   2.016  0.00  0.00     0.179 C 
HETATM    5  C   UNK N   1      19.884  17.835   2.171  0.00  0.00     0.180 C 
HETATM    6  C   UNK N   1      20.410  16.519   2.786  0.00  0.00     0.184 C 
HETATM    7  C   UNK N   1      21.157  16.832   4.109  0.00  0.00     0.170 C 
HETATM    8  C   UNK N   1      22.306  17.792   3.714  0.00  0.00     0.297 C 
HETATM    9  O   UNK N   1      21.769  19.026   3.244  0.00  0.00    -0.348 OA
BRANCH   5  10
HETATM   10  O   UNK N   1      19.333  17.602   0.911  0.00  0.00    -0.390 OA
HETATM   11  H   UNK N   1      19.209  18.221   0.175  0.00  0.00     0.210 HD
ENDBRANCH   5  10
BRANCH   6  12
HETATM   12  O   UNK N   1      19.515  15.408   2.811  0.00  0.00    -0.336 OA
BRANCH  12  13
HETATM   13  C   UNK N   1      19.806  14.191   2.136  0.00  0.00     0.258 C 
HETATM   14  C   UNK N   1      21.052  14.260   1.265  0.00  0.00     0.092 C 
BRANCH  13  15
HETATM   15  C   UNK N   1      18.671  13.963   1.157  0.00  0.00     0.205 C 
HETATM   16  O   UNK N   1      18.089  12.887   1.146  0.00  0.00    -0.646 OA
BRANCH  15  17
HETATM   17  O   UNK N   1      18.285  14.922   0.296  0.00  0.00    -0.772 OA
HETATM   18  H   UNK N   1      17.533  15.451   0.475  0.00  0.00     0.167 HD
ENDBRANCH  15  17
ENDBRANCH  13  15
BRANCH  13  19
HETATM   19  O   UNK N   1      19.980  13.103   3.034  0.00  0.00    -0.249 OA
BRANCH  19  20
HETATM   20  P   UNK N   1      18.807  13.044   4.354  0.00  0.00     0.393 P 
HETATM   21  O   UNK N   1      19.336  12.192   5.540  0.00  0.00    -0.631 OA
BRANCH  20  22
HETATM   22  O   UNK N   1      18.384  14.606   4.979  0.00  0.00    -0.307 OA
HETATM   23  H   UNK N   1      17.452  14.852   5.088  0.00  0.00     0.222 HD
ENDBRANCH  20  22
BRANCH  20  24
HETATM   24  O   UNK N   1      17.365  12.249   3.803  0.00  0.00    -0.307 OA
HETATM   25  H   UNK N   1      17.222  11.311   4.003  0.00  0.00     0.222 HD
ENDBRANCH  20  24
ENDBRANCH  19  20
ENDBRANCH  13  19
ENDBRANCH  12  13
ENDBRANCH   6  12
BRANCH   7  26
HETATM   26  N   UNK N   1      21.488  15.599   4.823  0.00  0.00    -0.363 N 
HETATM   27  C   UNK N   1      21.733  15.380   6.073  0.00  0.00     0.107 C 
HETATM   28  C   UNK N   1      21.948  13.979   6.523  0.00  0.00     0.097 C 
ATOM     29  HN  UNK N   1      21.533  14.769   4.233  1.00  0.00     0.162 HD
BRANCH  27  30
HETATM   30  O   UNK N   1      21.810  16.371   6.978  0.00  0.00    -0.350 OA
HETATM   31  H   UNK N   1      22.484  16.987   7.191  0.00  0.00     0.219 HD
ENDBRANCH  27  30
ENDBRANCH   7  26
BRANCH   8  32
HETATM   32  O   UNK N   1      23.271  17.975   4.719  0.00  0.00    -0.263 OA
BRANCH  32  33
HETATM   33  P   UNK N   1      24.745  17.075   4.529  0.00  0.00     0.404 P 
HETATM   34  O   UNK N   1      24.423  15.763   3.766  0.00  0.00    -0.631 OA
BRANCH  33  35
HETATM   35  O   UNK N   1      25.580  16.678   5.998  0.00  0.00    -0.307 OA
HETATM   36  H   UNK N   1      26.191  15.927   6.061  0.00  0.00     0.222 HD
ENDBRANCH  33  35
BRANCH  33  37
HETATM   37  O   UNK N   1      25.745  18.011   3.461  0.00  0.00    -0.195 OA
BRANCH  37  38
HETATM   38  P   UNK N   1      26.440  19.394   4.307  0.00  0.00     0.401 P 
HETATM   39  O   UNK N   1      26.256  20.618   3.376  0.00  0.00    -0.631 OA
BRANCH  38  40
HETATM   40  O   UNK N   1      25.346  19.759   5.605  0.00  0.00    -0.307 OA
HETATM   41  H   UNK N   1      24.380  19.732   5.521  0.00  0.00     0.222 HD
ENDBRANCH  38  40
BRANCH  38  42
HETATM   42  O   UNK N   1      28.056  19.476   5.017  0.00  0.00    -0.294 OA
BRANCH  42  43
HETATM   43  C   UNK N   1      27.983  19.513   6.413  0.00  0.00     0.215 C 
BRANCH  43  44
HETATM   44  C   UNK N   1      28.368  18.205   7.095  0.00  0.00     0.180 C 
HETATM   45  C   UNK N   1      28.600  18.415   8.583  0.00  0.00     0.182 C 
HETATM   46  C   UNK N   1      29.498  17.263   8.853  0.00  0.00     0.198 C 
HETATM   47  C   UNK N   1      30.428  17.398   7.649  0.00  0.00     0.263 C 
HETATM   48  O   UNK N   1      29.587  17.714   6.548  0.00  0.00    -0.353 OA
BRANCH  45  49
HETATM   49  O   UNK N   1      27.423  18.356   9.332  0.00  0.00    -0.390 OA
HETATM   50  H   UNK N   1      26.823  19.114   9.410  0.00  0.00     0.210 HD
ENDBRANCH  45  49
BRANCH  46  51
HETATM   51  O   UNK N   1      30.164  17.386  10.075  0.00  0.00    -0.388 OA
HETATM   52  H   UNK N   1      30.819  17.042  10.703  0.00  0.00     0.210 HD
ENDBRANCH  46  51
BRANCH  47  53
HETATM   53  N   UNK N   1      31.307  16.237   7.338  0.00  0.00    -0.280 N 
HETATM   54  C   UNK N   1      30.886  15.424   6.327  0.00  0.00     0.103 A 
HETATM   55  C   UNK N   1      31.632  14.320   5.922  0.00  0.00     0.073 A 
HETATM   56  C   UNK N   1      32.829  14.051   6.564  0.00  0.00     0.144 A 
HETATM   57  N   UNK N   1      33.251  14.855   7.566  0.00  0.00    -0.289 N 
HETATM   58  C   UNK N   1      32.519  15.943   7.966  0.00  0.00     0.330 A 
ATOM     59  HN  UNK N   1      34.133  14.647   8.035  1.00  0.00     0.172 HD
HETATM   60  O   UNK N   1      32.956  16.636   8.862  0.00  0.00    -0.246 OA
BRANCH  56  61
HETATM   61  O   UNK N   1      33.573  12.996   6.192  0.00  0.00    -0.346 OA
HETATM   62  H   UNK N   1      33.731  12.291   6.787  0.00  0.00     0.219 HD
ENDBRANCH  56  61
ENDBRANCH  47  53
ENDBRANCH  43  44
ENDBRANCH  42  43
ENDBRANCH  38  42
ENDBRANCH  37  38
ENDBRANCH  33  37
ENDBRANCH  32  33
ENDBRANCH   8  32
ENDBRANCH   1   4
TORSDOF 25
ENDMDL
MODEL 8
REMARK VINA RESULT:      -7.2      4.058      8.184
REMARK  25 active torsions:
REMARK  status: ('A' for Active; 'I' for Inactive)
REMARK    1  A    between atoms: C_8  and  C_5 
REMARK    2  A    between atoms: C_9  and  C_6 
REMARK    3  A    between atoms: O_42  and  C_6 
REMARK    4  A    between atoms: O_27  and  C_7 
REMARK    5  A    between atoms: O_28  and  C_10 
REMARK    6  A    between atoms: C_11  and  N_21 
REMARK    7  A    between atoms: C_12  and  O_29 
REMARK    8  A    between atoms: C_13  and  O_30 
REMARK    9  A    between atoms: C_14  and  O_31 
REMARK   10  A    between atoms: C_15  and  O_45 
REMARK   11  A    between atoms: C_16  and  N_25 
REMARK   12  A    between atoms: C_17  and  O_46 
REMARK   13  A    between atoms: C_20  and  C_18 
REMARK   14  A    between atoms: O_33  and  C_18 
REMARK   15  A    between atoms: C_20  and  O_45 
REMARK   16  A    between atoms: O_47  and  C_20 
REMARK   17  A    between atoms: P_49  and  O_35 
REMARK   18  A    between atoms: P_49  and  O_36 
REMARK   19  A    between atoms: P_50  and  O_38 
REMARK   20  A    between atoms: P_51  and  O_40 
REMARK   21  A    between atoms: P_50  and  O_42 
REMARK   22  A    between atoms: P_51  and  O_46 
REMARK   23  A    between atoms: P_49  and  O_47 
REMARK   24  A    between atoms: P_50  and  O_48 
REMARK   25  A    between atoms: P_51  and  O_48 
ROOT
HETATM    1  C   UNK N   1      29.595  18.761   9.601  0.00  0.00     0.198 C 
HETATM    2  O   UNK N   1      29.764  17.694  10.486  0.00  0.00    -0.398 OA
HETATM    3  H   UNK N   1      30.032  16.972  11.077  0.00  0.00     0.209 HD
ENDROOT
BRANCH   1   4
HETATM    4  C   UNK N   1      29.656  18.290   8.151  0.00  0.00     0.179 C 
HETATM    5  C   UNK N   1      28.239  17.919   7.626  0.00  0.00     0.180 C 
HETATM    6  C   UNK N   1      28.371  17.398   6.178  0.00  0.00     0.184 C 
HETATM    7  C   UNK N   1      29.391  16.230   6.144  0.00  0.00     0.170 C 
HETATM    8  C   UNK N   1      30.718  16.828   6.674  0.00  0.00     0.297 C 
HETATM    9  O   UNK N   1      30.571  17.205   8.041  0.00  0.00    -0.348 OA
BRANCH   5  10
HETATM   10  O   UNK N   1      27.438  19.061   7.666  0.00  0.00    -0.390 OA
HETATM   11  H   UNK N   1      27.515  19.880   7.152  0.00  0.00     0.210 HD
ENDBRANCH   5  10
BRANCH   6  12
HETATM   12  O   UNK N   1      27.165  17.208   5.441  0.00  0.00    -0.336 OA
BRANCH  12  13
HETATM   13  C   UNK N   1      26.761  18.103   4.413  0.00  0.00     0.258 C 
HETATM   14  C   UNK N   1      27.704  19.283   4.228  0.00  0.00     0.092 C 
BRANCH  13  15
HETATM   15  C   UNK N   1      25.459  18.728   4.877  0.00  0.00     0.205 C 
HETATM   16  O   UNK N   1      25.279  19.928   4.731  0.00  0.00    -0.646 OA
BRANCH  15  17
HETATM   17  O   UNK N   1      24.491  17.987   5.447  0.00  0.00    -0.772 OA
HETATM   18  H   UNK N   1      24.411  17.941   6.379  0.00  0.00     0.167 HD
ENDBRANCH  15  17
ENDBRANCH  13  15
BRANCH  13  19
HETATM   19  O   UNK N   1      26.639  17.459   3.152  0.00  0.00    -0.249 OA
BRANCH  19  20
HETATM   20  P   UNK N   1      25.886  15.861   3.212  0.00  0.00     0.393 P 
HETATM   21  O   UNK N   1      26.171  15.056   1.915  0.00  0.00    -0.631 OA
BRANCH  20  22
HETATM   22  O   UNK N   1      26.412  14.895   4.554  0.00  0.00    -0.307 OA
HETATM   23  H   UNK N   1      27.290  14.484   4.544  0.00  0.00     0.222 HD
ENDBRANCH  20  22
BRANCH  20  24
HETATM   24  O   UNK N   1      24.162  16.044   3.290  0.00  0.00    -0.307 OA
HETATM   25  H   UNK N   1      23.700  16.575   2.623  0.00  0.00     0.222 HD
ENDBRANCH  20  24
ENDBRANCH  19  20
ENDBRANCH  13  19
ENDBRANCH  12  13
ENDBRANCH   6  12
BRANCH   7  26
HETATM   26  N   UNK N   1      29.390  15.577   4.835  0.00  0.00    -0.363 N 
HETATM   27  C   UNK N   1      29.750  16.007   3.671  0.00  0.00     0.107 C 
HETATM   28  C   UNK N   1      29.722  15.061   2.523  0.00  0.00     0.097 C 
ATOM     29  HN  UNK N   1      29.045  14.617   4.843  1.00  0.00     0.162 HD
BRANCH  27  30
HETATM   30  O   UNK N   1      30.139  17.275   3.457  0.00  0.00    -0.350 OA
HETATM   31  H   UNK N   1      30.468  17.944   4.026  0.00  0.00     0.219 HD
ENDBRANCH  27  30
ENDBRANCH   7  26
BRANCH   8  32
HETATM   32  O   UNK N   1      31.841  16.011   6.459  0.00  0.00    -0.263 OA
BRANCH  32  33
HETATM   33  P   UNK N   1      33.194  16.769   5.678  0.00  0.00     0.404 P 
HETATM   34  O   UNK N   1      32.672  17.559   4.449  0.00  0.00    -0.631 OA
BRANCH  33  35
HETATM   35  O   UNK N   1      34.460  15.700   5.159  0.00  0.00    -0.307 OA
HETATM   36  H   UNK N   1      35.316  16.026   4.840  0.00  0.00     0.222 HD
ENDBRANCH  33  35
BRANCH  33  37
HETATM   37  O   UNK N   1      33.786  17.963   6.792  0.00  0.00    -0.195 OA
BRANCH  37  38
HETATM   38  P   UNK N   1      34.171  17.228   8.349  0.00  0.00     0.401 P 
HETATM   39  O   UNK N   1      35.175  18.178   9.048  0.00  0.00    -0.631 OA
BRANCH  38  40
HETATM   40  O   UNK N   1      32.752  17.415   9.331  0.00  0.00    -0.307 OA
HETATM   41  H   UNK N   1      32.730  17.919  10.160  0.00  0.00     0.222 HD
ENDBRANCH  38  40
BRANCH  38  42
HETATM   42  O   UNK N   1      34.709  15.565   8.610  0.00  0.00    -0.294 OA
BRANCH  42  43
HETATM   43  C   UNK N   1      34.093  15.017   9.741  0.00  0.00     0.215 C 
BRANCH  43  44
HETATM   44  C   UNK N   1      34.989  14.951  10.972  0.00  0.00     0.180 C 
HETATM   45  C   UNK N   1      36.368  14.422  10.613  0.00  0.00     0.182 C 
HETATM   46  C   UNK N   1      36.779  13.896  11.939  0.00  0.00     0.198 C 
HETATM   47  C   UNK N   1      35.485  13.183  12.324  0.00  0.00     0.263 C 
HETATM   48  O   UNK N   1      34.435  14.054  11.928  0.00  0.00    -0.353 OA
BRANCH  45  49
HETATM   49  O   UNK N   1      37.230  15.419  10.148  0.00  0.00    -0.390 OA
HETATM   50  H   UNK N   1      37.078  15.882   9.309  0.00  0.00     0.210 HD
ENDBRANCH  45  49
BRANCH  46  51
HETATM   51  O   UNK N   1      37.874  13.032  11.850  0.00  0.00    -0.388 OA
HETATM   52  H   UNK N   1      38.759  12.778  12.157  0.00  0.00     0.210 HD
ENDBRANCH  46  51
BRANCH  47  53
HETATM   53  N   UNK N   1      35.335  12.772  13.748  0.00  0.00    -0.280 N 
HETATM   54  C   UNK N   1      35.955  13.566  14.666  0.00  0.00     0.103 A 
HETATM   55  C   UNK N   1      35.869  13.306  16.031  0.00  0.00     0.073 A 
HETATM   56  C   UNK N   1      35.132  12.213  16.457  0.00  0.00     0.144 A 
HETATM   57  N   UNK N   1      34.514  11.423  15.549  0.00  0.00    -0.289 N 
HETATM   58  C   UNK N   1      34.597  11.678  14.205  0.00  0.00     0.330 A 
ATOM     59  HN  UNK N   1      33.976  10.619  15.872  1.00  0.00     0.172 HD
HETATM   60  O   UNK N   1      34.009  10.941  13.440  0.00  0.00    -0.246 OA
BRANCH  56  61
HETATM   61  O   UNK N   1      35.026  11.939  17.768  0.00  0.00    -0.346 OA
HETATM   62  H   UNK N   1      35.530  11.250  18.152  0.00  0.00     0.219 HD
ENDBRANCH  56  61
ENDBRANCH  47  53
ENDBRANCH  43  44
ENDBRANCH  42  43
ENDBRANCH  38  42
ENDBRANCH  37  38
ENDBRANCH  33  37
ENDBRANCH  32  33
ENDBRANCH   8  32
ENDBRANCH   1   4
TORSDOF 25
ENDMDL
MODEL 9
REMARK VINA RESULT:      -7.2      1.232      2.137
REMARK  25 active torsions:
REMARK  status: ('A' for Active; 'I' for Inactive)
REMARK    1  A    between atoms: C_8  and  C_5 
REMARK    2  A    between atoms: C_9  and  C_6 
REMARK    3  A    between atoms: O_42  and  C_6 
REMARK    4  A    between atoms: O_27  and  C_7 
REMARK    5  A    between atoms: O_28  and  C_10 
REMARK    6  A    between atoms: C_11  and  N_21 
REMARK    7  A    between atoms: C_12  and  O_29 
REMARK    8  A    between atoms: C_13  and  O_30 
REMARK    9  A    between atoms: C_14  and  O_31 
REMARK   10  A    between atoms: C_15  and  O_45 
REMARK   11  A    between atoms: C_16  and  N_25 
REMARK   12  A    between atoms: C_17  and  O_46 
REMARK   13  A    between atoms: C_20  and  C_18 
REMARK   14  A    between atoms: O_33  and  C_18 
REMARK   15  A    between atoms: C_20  and  O_45 
REMARK   16  A    between atoms: O_47  and  C_20 
REMARK   17  A    between atoms: P_49  and  O_35 
REMARK   18  A    between atoms: P_49  and  O_36 
REMARK   19  A    between atoms: P_50  and  O_38 
REMARK   20  A    between atoms: P_51  and  O_40 
REMARK   21  A    between atoms: P_50  and  O_42 
REMARK   22  A    between atoms: P_51  and  O_46 
REMARK   23  A    between atoms: P_49  and  O_47 
REMARK   24  A    between atoms: P_50  and  O_48 
REMARK   25  A    between atoms: P_51  and  O_48 
ROOT
HETATM    1  C   UNK N   1      20.670  20.826   1.428  0.00  0.00     0.198 C 
HETATM    2  O   UNK N   1      20.683  20.753   0.034  0.00  0.00    -0.398 OA
HETATM    3  H   UNK N   1      20.567  20.615  -0.920  0.00  0.00     0.209 HD
ENDROOT
BRANCH   1   4
HETATM    4  C   UNK N   1      21.323  19.596   2.051  0.00  0.00     0.179 C 
HETATM    5  C   UNK N   1      20.264  18.498   2.357  0.00  0.00     0.180 C 
HETATM    6  C   UNK N   1      20.974  17.306   3.035  0.00  0.00     0.184 C 
HETATM    7  C   UNK N   1      21.751  17.810   4.279  0.00  0.00     0.170 C 
HETATM    8  C   UNK N   1      22.755  18.858   3.739  0.00  0.00     0.297 C 
HETATM    9  O   UNK N   1      22.052  19.980   3.212  0.00  0.00    -0.348 OA
BRANCH   5  10
HETATM   10  O   UNK N   1      19.676  18.102   1.156  0.00  0.00    -0.390 OA
HETATM   11  H   UNK N   1      19.646  18.568   0.306  0.00  0.00     0.210 HD
ENDBRANCH   5  10
BRANCH   6  12
HETATM   12  O   UNK N   1      20.219  16.107   3.201  0.00  0.00    -0.336 OA
BRANCH  12  13
HETATM   13  C   UNK N   1      20.670  14.857   2.698  0.00  0.00     0.258 C 
HETATM   14  C   UNK N   1      21.978  14.947   1.925  0.00  0.00     0.092 C 
BRANCH  13  15
HETATM   15  C   UNK N   1      19.649  14.419   1.664  0.00  0.00     0.205 C 
HETATM   16  O   UNK N   1      19.573  13.239   1.353  0.00  0.00    -0.646 OA
BRANCH  15  17
HETATM   17  O   UNK N   1      18.820  15.303   1.081  0.00  0.00    -0.772 OA
HETATM   18  H   UNK N   1      18.593  15.220   0.175  0.00  0.00     0.167 HD
ENDBRANCH  15  17
ENDBRANCH  13  15
BRANCH  13  19
HETATM   19  O   UNK N   1      20.853  13.893   3.726  0.00  0.00    -0.249 OA
BRANCH  19  20
HETATM   20  P   UNK N   1      19.578  13.871   4.949  0.00  0.00     0.393 P 
HETATM   21  O   UNK N   1      18.239  13.352   4.358  0.00  0.00    -0.631 OA
BRANCH  20  22
HETATM   22  O   UNK N   1      19.955  12.890   6.330  0.00  0.00    -0.307 OA
HETATM   23  H   UNK N   1      20.868  12.837   6.655  0.00  0.00     0.222 HD
ENDBRANCH  20  22
BRANCH  20  24
HETATM   24  O   UNK N   1      19.267  15.494   5.480  0.00  0.00    -0.307 OA
HETATM   25  H   UNK N   1      18.909  16.148   4.858  0.00  0.00     0.222 HD
ENDBRANCH  20  24
ENDBRANCH  19  20
ENDBRANCH  13  19
ENDBRANCH  12  13
ENDBRANCH   6  12
BRANCH   7  26
HETATM   26  N   UNK N   1      22.264  16.685   5.062  0.00  0.00    -0.363 N 
HETATM   27  C   UNK N   1      22.114  16.380   6.309  0.00  0.00     0.107 C 
HETATM   28  C   UNK N   1      22.688  15.099   6.802  0.00  0.00     0.097 C 
ATOM     29  HN  UNK N   1      22.838  16.030   4.533  1.00  0.00     0.162 HD
BRANCH  27  30
HETATM   30  O   UNK N   1      21.468  17.178   7.176  0.00  0.00    -0.350 OA
HETATM   31  H   UNK N   1      21.078  18.026   7.091  0.00  0.00     0.219 HD
ENDBRANCH  27  30
ENDBRANCH   7  26
BRANCH   8  32
HETATM   32  O   UNK N   1      23.747  19.231   4.663  0.00  0.00    -0.263 OA
BRANCH  32  33
HETATM   33  P   UNK N   1      25.337  19.480   4.011  0.00  0.00     0.404 P 
HETATM   34  O   UNK N   1      25.248  20.560   2.901  0.00  0.00    -0.631 OA
BRANCH  33  35
HETATM   35  O   UNK N   1      26.115  18.071   3.361  0.00  0.00    -0.307 OA
HETATM   36  H   UNK N   1      27.080  17.992   3.304  0.00  0.00     0.222 HD
ENDBRANCH  33  35
BRANCH  33  37
HETATM   37  O   UNK N   1      26.274  20.192   5.291  0.00  0.00    -0.195 OA
BRANCH  37  38
HETATM   38  P   UNK N   1      27.548  19.092   5.818  0.00  0.00     0.401 P 
HETATM   39  O   UNK N   1      26.919  17.677   5.859  0.00  0.00    -0.631 OA
BRANCH  38  40
HETATM   40  O   UNK N   1      28.649  18.959   4.482  0.00  0.00    -0.307 OA
HETATM   41  H   UNK N   1      29.611  19.064   4.562  0.00  0.00     0.222 HD
ENDBRANCH  38  40
BRANCH  38  42
HETATM   42  O   UNK N   1      28.566  19.288   7.249  0.00  0.00    -0.294 OA
BRANCH  42  43
HETATM   43  C   UNK N   1      28.904  18.043   7.791  0.00  0.00     0.215 C 
BRANCH  43  44
HETATM   44  C   UNK N   1      30.268  17.519   7.354  0.00  0.00     0.180 C 
HETATM   45  C   UNK N   1      30.134  16.187   6.633  0.00  0.00     0.182 C 
HETATM   46  C   UNK N   1      31.495  15.644   6.872  0.00  0.00     0.198 C 
HETATM   47  C   UNK N   1      31.634  15.991   8.353  0.00  0.00     0.263 C 
HETATM   48  O   UNK N   1      31.089  17.295   8.494  0.00  0.00    -0.353 OA
BRANCH  45  49
HETATM   49  O   UNK N   1      29.851  16.330   5.273  0.00  0.00    -0.390 OA
HETATM   50  H   UNK N   1      30.541  16.267   4.594  0.00  0.00     0.210 HD
ENDBRANCH  45  49
BRANCH  46  51
HETATM   51  O   UNK N   1      31.569  14.272   6.622  0.00  0.00    -0.388 OA
HETATM   52  H   UNK N   1      31.213  13.488   6.174  0.00  0.00     0.210 HD
ENDBRANCH  46  51
BRANCH  47  53
HETATM   53  N   UNK N   1      32.999  15.911   8.943  0.00  0.00    -0.280 N 
HETATM   54  C   UNK N   1      33.647  17.099   9.109  0.00  0.00     0.103 A 
HETATM   55  C   UNK N   1      34.918  17.163   9.674  0.00  0.00     0.073 A 
HETATM   56  C   UNK N   1      35.529  15.986  10.077  0.00  0.00     0.144 A 
HETATM   57  N   UNK N   1      34.889  14.806   9.915  0.00  0.00    -0.289 N 
HETATM   58  C   UNK N   1      33.638  14.741   9.359  0.00  0.00     0.330 A 
ATOM     59  HN  UNK N   1      35.349  13.945  10.212  1.00  0.00     0.172 HD
HETATM   60  O   UNK N   1      33.109  13.654   9.253  0.00  0.00    -0.246 OA
BRANCH  56  61
HETATM   61  O   UNK N   1      36.753  16.017  10.631  0.00  0.00    -0.346 OA
HETATM   62  H   UNK N   1      37.128  16.828  10.911  0.00  0.00     0.219 HD
ENDBRANCH  56  61
ENDBRANCH  47  53
ENDBRANCH  43  44
ENDBRANCH  42  43
ENDBRANCH  38  42
ENDBRANCH  37  38
ENDBRANCH  33  37
ENDBRANCH  32  33
ENDBRANCH   8  32
ENDBRANCH   1   4
TORSDOF 25
ENDMDL
