REMARK  8 active torsions:
REMARK  status: ('A' for Active; 'I' for Inactive)
REMARK    1  A    between atoms: C_20  and  C_17 
REMARK    2  A    between atoms: C_26  and  C_17 
REMARK    3  A    between atoms: C_21  and  C_18 
REMARK    4  A    between atoms: C_30  and  C_18 
REMARK    5  A    between atoms: C_27  and  C_23 
REMARK    6  A    between atoms: O_35  and  C_25 
REMARK    7  A    between atoms: C_30  and  O_38 
REMARK    8  A    between atoms: O_38  and  O_37 
ROOT
HETATM    1  C   UNK N   1       0.934   1.125  -0.666  0.00  0.00     0.131 C 
HETATM    2  C   UNK N   1       0.887   3.808   0.361  0.00  0.00     0.154 C 
HETATM    3  C   UNK N   1       2.052   1.634  -0.083  0.00  0.00     0.055 C 
HETATM    4  C   UNK N   1      -0.341   3.011   0.225  0.00  0.00     0.112 A 
HETATM    5  C   UNK N   1      -1.533   1.441  -0.718  0.00  0.00     0.288 A 
HETATM    6  C   UNK N   1      -2.480   2.380   0.012  0.00  0.00     0.255 A 
HETATM    7  N   UNK N   1       1.984   2.893   0.606  0.00  0.00    -0.376 N 
HETATM    8  N   UNK N   1      -1.532   3.361   0.530  0.00  0.00    -0.336 N 
ATOM      9  HN  UNK N   1      -1.781   4.199   1.056  1.00  0.00     0.164 HD
HETATM   10  N   UNK N   1      -0.286   1.831  -0.487  0.00  0.00    -0.274 N 
HETATM   11  O   UNK N   1      -1.834   0.417  -1.312  0.00  0.00    -0.267 OA
HETATM   12  H   UNK N   1       2.687   3.136   1.251  0.00  0.00     0.160 HD
ENDROOT
BRANCH   6  13
HETATM   13  C   UNK N   1      -3.449   3.144  -0.935  0.00  0.00     0.113 C 
BRANCH  13  14
HETATM   14  C   UNK N   1      -4.933   2.989  -0.735  0.00  0.00    -0.052 A 
HETATM   15  C   UNK N   1      -5.834   3.543  -1.657  0.00  0.00     0.008 A 
HETATM   16  C   UNK N   1      -7.203   3.238  -1.566  0.00  0.00     0.013 A 
HETATM   17  C   UNK N   1      -7.658   2.366  -0.565  0.00  0.00    -0.026 A 
HETATM   18  C   UNK N   1      -8.989   1.949  -0.517  0.00  0.00     0.012 A 
HETATM   19  C   UNK N   1      -6.750   1.865   0.384  0.00  0.00    -0.025 A 
HETATM   20  C   UNK N   1      -9.397   1.033   0.465  0.00  0.00     0.001 A 
HETATM   21  C   UNK N   1      -8.486   0.555   1.414  0.00  0.00     0.001 A 
HETATM   22  C   UNK N   1      -7.160   0.977   1.374  0.00  0.00     0.012 A 
HETATM   23  C   UNK N   1      -5.423   2.188   0.289  0.00  0.00     0.019 A 
ENDBRANCH  13  14
ENDBRANCH   6  13
BRANCH   6  24
HETATM   24  O   UNK N   1      -3.107   1.684   1.074  0.00  0.00    -0.199 OA
BRANCH  24  25
HETATM   25  O   UNK N   1      -2.174   1.169   1.856  0.00  0.00    -0.247 OA
HETATM   26  H   UNK N   1      -2.158   0.387   2.430  0.00  0.00     0.253 HD
ENDBRANCH  24  25
ENDBRANCH   6  24
BRANCH   2  27
HETATM   27  C   UNK N   1       0.866   4.985   1.333  0.00  0.00     0.071 C 
BRANCH  27  28
HETATM   28  C   UNK N   1       1.820   6.035   0.843  0.00  0.00    -0.056 A 
HETATM   29  C   UNK N   1       1.364   7.337   0.613  0.00  0.00     0.007 A 
HETATM   30  C   UNK N   1       2.230   8.295   0.074  0.00  0.00     0.001 A 
HETATM   31  C   UNK N   1       3.544   7.947  -0.254  0.00  0.00     0.000 A 
HETATM   32  C   UNK N   1       4.001   6.646  -0.030  0.00  0.00     0.001 A 
HETATM   33  C   UNK N   1       3.143   5.694   0.521  0.00  0.00     0.007 A 
ENDBRANCH  27  28
ENDBRANCH   2  27
BRANCH   3  34
HETATM   34  C   UNK N   1       3.316   0.878  -0.067  0.00  0.00    -0.008 A 
HETATM   35  C   UNK N   1       3.363  -0.460  -0.486  0.00  0.00     0.016 A 
HETATM   36  C   UNK N   1       4.568  -1.166  -0.448  0.00  0.00     0.037 A 
HETATM   37  C   UNK N   1       5.733  -0.535  -0.004  0.00  0.00     0.065 A 
HETATM   38  C   UNK N   1       5.692   0.795   0.420  0.00  0.00     0.037 A 
HETATM   39  C   UNK N   1       4.485   1.496   0.398  0.00  0.00     0.016 A 
BRANCH  37  40
HETATM   40  O   UNK N   1       6.894  -1.208   0.012  0.00  0.00    -0.361 OA
HETATM   41  H   UNK N   1       6.892  -2.145   0.023  0.00  0.00     0.217 HD
ENDBRANCH  37  40
ENDBRANCH   3  34
TORSDOF 8
