REMARK  7 active torsions:
REMARK  status: ('A' for Active; 'I' for Inactive)
REMARK    1  A    between atoms: C_1  and  C_2 
REMARK    2  A    between atoms: C_1  and  C_3 
REMARK    3  A    between atoms: C_2  and  C_4 
REMARK    4  A    between atoms: C_3  and  C_5 
REMARK    5  A    between atoms: C_3  and  N_6 
REMARK    6  A    between atoms: C_4  and  N_7 
REMARK    7  A    between atoms: C_5  and  O_8 
REMARK       I    between atoms: N_7  and  C_10 
REMARK       I    between atoms: C_10  and  N_11 
ROOT
HETATM    1  C   UNK N   1      14.127  -6.479  -0.299  0.00  0.00     0.023 C 
ENDROOT
BRANCH   1   2
HETATM    2  C   UNK N   1      12.963  -7.277  -0.862  0.00  0.00     0.037 C 
BRANCH   2   3
HETATM    3  C   UNK N   1      11.885  -7.490   0.192  0.00  0.00     0.173 C 
BRANCH   3   4
HETATM    4  C   UNK N   1      10.800  -6.453   0.080  0.00  0.00     0.163 C 
HETATM    5  O   UNK N   1      11.068  -5.270   0.215  0.00  0.00    -0.648 OA
BRANCH   4   6
HETATM    6  O   UNK N   1       9.523  -6.822  -0.150  0.00  0.00    -0.775 OA
HETATM    7  H   UNK N   1       8.858  -6.182  -0.310  0.00  0.00     0.167 HD
ENDBRANCH   4   6
ENDBRANCH   3   4
BRANCH   3   8
HETATM    8  N   UNK N   1      11.334  -8.825   0.040  0.00  0.00    -0.418 N 
HETATM    9  H   UNK N   1      10.329  -8.959  -0.067  0.00  0.00     0.150 HD
HETATM   10  H   UNK N   1      11.956  -9.634   0.040  0.00  0.00     0.150 HD
ENDBRANCH   3   8
ENDBRANCH   2   3
ENDBRANCH   1   2
BRANCH   1  11
HETATM   11  C   UNK N   1      14.941  -7.342   0.657  0.00  0.00     0.138 C 
BRANCH  11  12
HETATM   12  N   UNK N   1      16.280  -7.557   0.160  0.00  0.00    -0.227 N 
HETATM   13  C   UNK N   1      17.229  -6.507   0.027  0.00  0.00     0.665 C 
HETATM   14  N   UNK N   1      18.559  -6.806  -0.329  0.00  0.00    -0.235 N 
HETATM   15  N   UNK N   1      16.895  -5.290   0.268  0.00  0.00    -0.235 N 
HETATM   16  H   UNK N   1      18.843  -7.716  -0.578  0.00  0.00     0.174 HD
HETATM   17  H   UNK N   1      19.227  -6.083  -0.329  0.00  0.00     0.174 HD
HETATM   18  H   UNK N   1      17.575  -4.602   0.453  0.00  0.00     0.174 HD
ATOM     19  HN  UNK N   1      15.908  -5.031   0.268  1.00  0.00     0.174 HD
HETATM   20  H   UNK N   1      16.548  -8.469  -0.097  0.00  0.00     0.177 HD
ENDBRANCH  11  12
ENDBRANCH   1  11
TORSDOF 7
