REMARK  0 active torsions:
REMARK  status: ('A' for Active; 'I' for Inactive)
ROOT
HETATM    1  O   UNK N   1       0.659  -0.249   0.000  0.00  0.00    -0.671 OA
HETATM    2  P   UNK N   1       1.856  -1.503   0.000  0.00  0.00     0.088 P 
HETATM    3  O   UNK N   1       3.041  -0.504   0.000  0.00  0.00    -0.671 OA
HETATM    4  H   UNK N   1       1.782  -2.881   0.000  0.00  0.00     0.127 HD
HETATM    5  H   UNK N   1       3.092  -2.118   0.000  0.00  0.00     0.127 HD
ENDROOT
TORSDOF 0
