REMARK  13 active torsions:
REMARK  status: ('A' for Active; 'I' for Inactive)
REMARK    1  A    between atoms: C_3  and  C_1 
REMARK    2  A    between atoms: O_17  and  C_1 
REMARK    3  A    between atoms: P_20  and  C_2 
REMARK    4  A    between atoms: P_21  and  C_2 
REMARK    5  A    between atoms: C_4  and  O_7 
REMARK    6  A    between atoms: C_5  and  O_8 
REMARK    7  A    between atoms: C_6  and  O_19 
REMARK    8  A    between atoms: P_20  and  O_10 
REMARK    9  A    between atoms: P_21  and  O_12 
REMARK   10  A    between atoms: P_22  and  O_14 
REMARK   11  A    between atoms: P_22  and  O_15 
REMARK   12  A    between atoms: P_22  and  O_17 
REMARK   13  A    between atoms: P_21  and  O_19 
ROOT
HETATM    1  O   UNK N   1      -4.682  -2.910   2.198  0.00  0.00    -0.329 OA
HETATM    2  O   UNK N   1      -5.428  -1.232   0.362  0.00  0.00    -0.653 OA
HETATM    3  P   UNK N   1      -4.735  -2.615   0.489  0.00  0.00     0.247 P 
HETATM    4  H   UNK N   1      -4.809  -3.018   3.153  0.00  0.00     0.220 HD
ENDROOT
BRANCH   3   5
HETATM    5  C   UNK N   1      -3.104  -2.581  -0.404  0.00  0.00     0.249 C 
BRANCH   5   6
HETATM    6  P   UNK N   1      -1.920  -1.376   0.381  0.00  0.00     0.251 P 
HETATM    7  O   UNK N   1      -2.665  -0.064   0.744  0.00  0.00    -0.653 OA
BRANCH   6   8
HETATM    8  O   UNK N   1      -1.184  -1.919   1.859  0.00  0.00    -0.329 OA
HETATM    9  H   UNK N   1      -1.240  -2.426   2.684  0.00  0.00     0.220 HD
ENDBRANCH   6   8
BRANCH   6  10
HETATM   10  O   UNK N   1      -0.671  -0.904  -0.755  0.00  0.00    -0.284 OA
BRANCH  10  11
HETATM   11  C   UNK N   1       0.272  -0.033  -0.167  0.00  0.00     0.301 C 
HETATM   12  C   UNK N   1      -0.201   1.428  -0.186  0.00  0.00     0.205 C 
HETATM   13  C   UNK N   1       1.139   2.096  -0.134  0.00  0.00     0.182 C 
HETATM   14  C   UNK N   1       1.875   1.241  -1.154  0.00  0.00     0.180 C 
HETATM   15  O   UNK N   1       1.476  -0.096  -0.916  0.00  0.00    -0.348 OA
BRANCH  12  16
HETATM   16  O   UNK N   1      -0.838   1.715  -1.402  0.00  0.00    -0.388 OA
HETATM   17  H   UNK N   1      -0.886   2.196  -2.243  0.00  0.00     0.210 HD
ENDBRANCH  12  16
BRANCH  13  18
HETATM   18  O   UNK N   1       1.098   3.450  -0.480  0.00  0.00    -0.390 OA
HETATM   19  H   UNK N   1       1.896   3.944  -0.721  0.00  0.00     0.210 HD
ENDBRANCH  13  18
BRANCH  14  20
HETATM   20  C   UNK N   1       3.389   1.400  -1.082  0.00  0.00     0.215 C 
BRANCH  20  21
HETATM   21  O   UNK N   1       3.878   0.992   0.163  0.00  0.00    -0.294 OA
BRANCH  21  22
HETATM   22  P   UNK N   1       5.605   1.025  -0.013  0.00  0.00     0.390 P 
HETATM   23  O   UNK N   1       5.359   2.129   1.051  0.00  0.00    -0.632 OA
BRANCH  22  24
HETATM   24  O   UNK N   1       6.625   0.527   1.300  0.00  0.00    -0.307 OA
HETATM   25  H   UNK N   1       6.669  -0.106   2.033  0.00  0.00     0.222 HD
ENDBRANCH  22  24
BRANCH  22  26
HETATM   26  O   UNK N   1       5.099  -0.518   0.603  0.00  0.00    -0.307 OA
HETATM   27  H   UNK N   1       4.212  -0.704   0.947  0.00  0.00     0.222 HD
ENDBRANCH  22  26
ENDBRANCH  21  22
ENDBRANCH  20  21
ENDBRANCH  14  20
ENDBRANCH  10  11
ENDBRANCH   6  10
ENDBRANCH   5   6
ENDBRANCH   3   5
BRANCH   3  28
HETATM   28  O   UNK N   1      -5.895  -3.712  -0.193  0.00  0.00    -0.329 OA
HETATM   29  H   UNK N   1      -6.750  -3.457  -0.574  0.00  0.00     0.220 HD
ENDBRANCH   3  28
TORSDOF 13
