MODEL 1
REMARK VINA RESULT:      -8.1      0.000      0.000
REMARK  14 active torsions:
REMARK  status: ('A' for Active; 'I' for Inactive)
REMARK    1  A    between atoms: C_7  and  C_1 
REMARK    2  A    between atoms: C_8  and  C_1 
REMARK    3  A    between atoms: C_9  and  C_3 
REMARK    4  A    between atoms: O_34  and  C_3 
REMARK    5  A    between atoms: C_16  and  C_8 
REMARK    6  A    between atoms: C_8  and  N_17 
REMARK    7  A    between atoms: C_11  and  O_29 
REMARK    8  A    between atoms: C_12  and  O_30 
REMARK    9  A    between atoms: N_18  and  C_13 
REMARK   10  A    between atoms: C_15  and  N_28 
REMARK   11  A    between atoms: O_36  and  C_16 
REMARK   12  A    between atoms: P_37  and  O_32 
REMARK   13  A    between atoms: P_37  and  O_34 
REMARK   14  A    between atoms: P_37  and  O_36 
ROOT
HETATM    1  C   UNK N   1      32.274  16.104   6.125  0.00  0.00     0.180 C 
HETATM    2  C   UNK N   1      31.665  14.844   5.506  0.00  0.00     0.182 C 
HETATM    3  C   UNK N   1      30.217  15.232   5.718  0.00  0.00     0.198 C 
HETATM    4  C   UNK N   1      30.282  16.692   5.238  0.00  0.00     0.262 C 
HETATM    5  O   UNK N   1      31.592  17.158   5.508  0.00  0.00    -0.353 OA
ENDROOT
BRANCH   1   6
HETATM    6  C   UNK N   1      33.768  16.409   6.033  0.00  0.00     0.215 C 
BRANCH   6   7
HETATM    7  O   UNK N   1      34.092  17.736   6.243  0.00  0.00    -0.294 OA
BRANCH   7   8
HETATM    8  P   UNK N   1      34.183  18.030   7.957  0.00  0.00     0.400 P 
HETATM    9  O   UNK N   1      32.771  18.351   8.516  0.00  0.00    -0.631 OA
BRANCH   8  10
HETATM   10  O   UNK N   1      35.281  19.292   8.430  0.00  0.00    -0.307 OA
HETATM   11  H   UNK N   1      35.815  19.885   7.878  0.00  0.00     0.222 HD
ENDBRANCH   8  10
BRANCH   8  12
HETATM   12  O   UNK N   1      34.724  16.547   8.611  0.00  0.00    -0.218 OA
BRANCH  12  13
HETATM   13  C   UNK N   1      35.142  16.395   9.896  0.00  0.00     0.290 C 
HETATM   14  O   UNK N   1      35.703  17.339  10.429  0.00  0.00    -0.262 OA
BRANCH  13  15
HETATM   15  C   UNK N   1      34.884  15.153  10.729  0.00  0.00     0.181 C 
BRANCH  15  16
HETATM   16  C   UNK N   1      35.616  15.301  12.056  0.00  0.00     0.093 C 
BRANCH  16  17
HETATM   17  C   UNK N   1      36.108  14.001  12.594  0.00  0.00     0.028 A 
HETATM   18  C   UNK N   1      35.452  13.207  13.502  0.00  0.00     0.114 A 
HETATM   19  N   UNK N   1      36.197  12.103  13.689  0.00  0.00    -0.360 N 
HETATM   20  C   UNK N   1      37.280  12.247  12.895  0.00  0.00     0.180 A 
ATOM     21  HN  UNK N   1      35.988  11.318  14.306  1.00  0.00     0.166 HD
HETATM   22  N   UNK N   1      37.245  13.407  12.207  0.00  0.00    -0.354 N 
HETATM   23  H   UNK N   1      37.909  13.742  11.563  0.00  0.00     0.166 HD
ENDBRANCH  16  17
ENDBRANCH  15  16
BRANCH  15  24
HETATM   24  N   UNK N   1      33.471  14.903  10.962  0.00  0.00    -0.418 N 
HETATM   25  H   UNK N   1      32.548  15.259  10.713  0.00  0.00     0.150 HD
HETATM   26  H   UNK N   1      33.368  14.101  11.584  0.00  0.00     0.150 HD
ENDBRANCH  15  24
ENDBRANCH  13  15
ENDBRANCH  12  13
ENDBRANCH   8  12
ENDBRANCH   7   8
ENDBRANCH   6   7
ENDBRANCH   1   6
BRANCH   2  27
HETATM   27  O   UNK N   1      32.014  13.665   6.168  0.00  0.00    -0.390 OA
HETATM   28  H   UNK N   1      32.428  13.322   6.975  0.00  0.00     0.210 HD
ENDBRANCH   2  27
BRANCH   3  29
HETATM   29  O   UNK N   1      29.327  14.452   4.973  0.00  0.00    -0.388 OA
HETATM   30  H   UNK N   1      29.503  13.576   4.596  0.00  0.00     0.210 HD
ENDBRANCH   3  29
BRANCH   4  31
HETATM   31  N   UNK N   1      29.352  17.620   5.889  0.00  0.00    -0.297 N 
HETATM   32  C   UNK N   1      29.195  17.687   7.240  0.00  0.00     0.188 A 
HETATM   33  N   UNK N   1      28.297  18.638   7.598  0.00  0.00    -0.346 N 
HETATM   34  C   UNK N   1      27.891  19.161   6.434  0.00  0.00     0.122 A 
ATOM     35  HN  UNK N   1      27.998  18.896   8.540  1.00  0.00     0.167 HD
HETATM   36  C   UNK N   1      26.971  20.162   6.200  0.00  0.00     0.131 A 
HETATM   37  C   UNK N   1      28.524  18.556   5.403  0.00  0.00     0.142 A 
HETATM   38  N   UNK N   1      26.719  20.506   4.903  0.00  0.00    -0.337 N 
HETATM   39  C   UNK N   1      27.366  19.873   3.865  0.00  0.00     0.183 A 
ATOM     40  HN  UNK N   1      26.041  21.240   4.700  1.00  0.00     0.168 HD
HETATM   41  N   UNK N   1      28.286  18.886   4.113  0.00  0.00    -0.336 N 
ATOM     42  HN  UNK N   1      28.775  18.416   3.350  1.00  0.00     0.168 HD
BRANCH  36  43
HETATM   43  N   UNK N   1      26.312  20.810   7.264  0.00  0.00    -0.383 N 
HETATM   44  H   UNK N   1      26.831  21.312   7.933  0.00  0.00     0.157 HD
HETATM   45  H   UNK N   1      25.331  20.760   7.338  0.00  0.00     0.157 HD
ENDBRANCH  36  43
ENDBRANCH   4  31
TORSDOF 14
ENDMDL
MODEL 2
REMARK VINA RESULT:      -8.0      2.237      3.380
REMARK  14 active torsions:
REMARK  status: ('A' for Active; 'I' for Inactive)
REMARK    1  A    between atoms: C_7  and  C_1 
REMARK    2  A    between atoms: C_8  and  C_1 
REMARK    3  A    between atoms: C_9  and  C_3 
REMARK    4  A    between atoms: O_34  and  C_3 
REMARK    5  A    between atoms: C_16  and  C_8 
REMARK    6  A    between atoms: C_8  and  N_17 
REMARK    7  A    between atoms: C_11  and  O_29 
REMARK    8  A    between atoms: C_12  and  O_30 
REMARK    9  A    between atoms: N_18  and  C_13 
REMARK   10  A    between atoms: C_15  and  N_28 
REMARK   11  A    between atoms: O_36  and  C_16 
REMARK   12  A    between atoms: P_37  and  O_32 
REMARK   13  A    between atoms: P_37  and  O_34 
REMARK   14  A    between atoms: P_37  and  O_36 
ROOT
HETATM    1  C   UNK N   1      30.048  17.458   6.319  0.00  0.00     0.180 C 
HETATM    2  C   UNK N   1      29.774  17.622   7.815  0.00  0.00     0.182 C 
HETATM    3  C   UNK N   1      28.591  18.555   7.671  0.00  0.00     0.198 C 
HETATM    4  C   UNK N   1      27.832  17.816   6.555  0.00  0.00     0.262 C 
HETATM    5  O   UNK N   1      28.801  17.146   5.770  0.00  0.00    -0.353 OA
ENDROOT
BRANCH   1   6
HETATM    6  C   UNK N   1      31.052  16.436   5.788  0.00  0.00     0.215 C 
BRANCH   6   7
HETATM    7  O   UNK N   1      32.137  16.221   6.617  0.00  0.00    -0.294 OA
BRANCH   7   8
HETATM    8  P   UNK N   1      33.494  17.131   6.014  0.00  0.00     0.400 P 
HETATM    9  O   UNK N   1      33.107  17.846   4.692  0.00  0.00    -0.631 OA
BRANCH   8  10
HETATM   10  O   UNK N   1      34.944  16.206   5.757  0.00  0.00    -0.307 OA
HETATM   11  H   UNK N   1      35.867  16.502   5.726  0.00  0.00     0.222 HD
ENDBRANCH   8  10
BRANCH   8  12
HETATM   12  O   UNK N   1      33.787  18.302   7.223  0.00  0.00    -0.218 OA
BRANCH  12  13
HETATM   13  C   UNK N   1      34.544  18.074   8.329  0.00  0.00     0.290 C 
HETATM   14  O   UNK N   1      35.285  18.966   8.709  0.00  0.00    -0.262 OA
BRANCH  13  15
HETATM   15  C   UNK N   1      34.465  16.807   9.162  0.00  0.00     0.181 C 
BRANCH  15  16
HETATM   16  C   UNK N   1      35.286  17.010  10.428  0.00  0.00     0.093 C 
BRANCH  16  17
HETATM   17  C   UNK N   1      35.972  15.765  10.878  0.00  0.00     0.028 A 
HETATM   18  C   UNK N   1      36.028  15.299  12.168  0.00  0.00     0.114 A 
HETATM   19  N   UNK N   1      36.689  14.129  12.149  0.00  0.00    -0.360 N 
HETATM   20  C   UNK N   1      37.015  13.907  10.858  0.00  0.00     0.180 A 
ATOM     21  HN  UNK N   1      36.902  13.530  12.948  1.00  0.00     0.166 HD
HETATM   22  N   UNK N   1      36.580  14.900  10.055  0.00  0.00    -0.354 N 
HETATM   23  H   UNK N   1      36.687  14.973   9.079  0.00  0.00     0.166 HD
ENDBRANCH  16  17
ENDBRANCH  15  16
BRANCH  15  24
HETATM   24  N   UNK N   1      33.103  16.430   9.502  0.00  0.00    -0.418 N 
HETATM   25  H   UNK N   1      32.217  16.169   9.069  0.00  0.00     0.150 HD
HETATM   26  H   UNK N   1      32.998  16.425  10.517  0.00  0.00     0.150 HD
ENDBRANCH  15  24
ENDBRANCH  13  15
ENDBRANCH  12  13
ENDBRANCH   8  12
ENDBRANCH   7   8
ENDBRANCH   6   7
ENDBRANCH   1   6
BRANCH   2  27
HETATM   27  O   UNK N   1      30.834  18.193   8.524  0.00  0.00    -0.390 OA
HETATM   28  H   UNK N   1      31.599  18.782   8.434  0.00  0.00     0.210 HD
ENDBRANCH   2  27
BRANCH   3  29
HETATM   29  O   UNK N   1      27.845  18.680   8.848  0.00  0.00    -0.388 OA
HETATM   30  H   UNK N   1      27.086  18.137   9.111  0.00  0.00     0.210 HD
ENDBRANCH   3  29
BRANCH   4  31
HETATM   31  N   UNK N   1      27.050  18.662   5.647  0.00  0.00    -0.297 N 
HETATM   32  C   UNK N   1      27.537  19.808   5.098  0.00  0.00     0.188 A 
HETATM   33  N   UNK N   1      26.635  20.398   4.275  0.00  0.00    -0.346 N 
HETATM   34  C   UNK N   1      25.566  19.592   4.329  0.00  0.00     0.122 A 
ATOM     35  HN  UNK N   1      26.745  21.259   3.738  1.00  0.00     0.167 HD
HETATM   36  C   UNK N   1      24.348  19.714   3.694  0.00  0.00     0.131 A 
HETATM   37  C   UNK N   1      25.811  18.546   5.149  0.00  0.00     0.142 A 
HETATM   38  N   UNK N   1      23.406  18.755   3.932  0.00  0.00    -0.337 N 
HETATM   39  C   UNK N   1      23.669  17.701   4.777  0.00  0.00     0.183 A 
ATOM     40  HN  UNK N   1      22.495  18.822   3.478  1.00  0.00     0.168 HD
HETATM   41  N   UNK N   1      24.888  17.587   5.394  0.00  0.00    -0.336 N 
ATOM     42  HN  UNK N   1      25.094  16.804   6.017  1.00  0.00     0.168 HD
BRANCH  36  43
HETATM   43  N   UNK N   1      24.082  20.794   2.827  0.00  0.00    -0.383 N 
HETATM   44  H   UNK N   1      24.820  21.359   2.504  0.00  0.00     0.157 HD
HETATM   45  H   UNK N   1      23.157  20.982   2.545  0.00  0.00     0.157 HD
ENDBRANCH  36  43
ENDBRANCH   4  31
TORSDOF 14
ENDMDL
MODEL 3
REMARK VINA RESULT:      -8.0      2.003      3.054
REMARK  14 active torsions:
REMARK  status: ('A' for Active; 'I' for Inactive)
REMARK    1  A    between atoms: C_7  and  C_1 
REMARK    2  A    between atoms: C_8  and  C_1 
REMARK    3  A    between atoms: C_9  and  C_3 
REMARK    4  A    between atoms: O_34  and  C_3 
REMARK    5  A    between atoms: C_16  and  C_8 
REMARK    6  A    between atoms: C_8  and  N_17 
REMARK    7  A    between atoms: C_11  and  O_29 
REMARK    8  A    between atoms: C_12  and  O_30 
REMARK    9  A    between atoms: N_18  and  C_13 
REMARK   10  A    between atoms: C_15  and  N_28 
REMARK   11  A    between atoms: O_36  and  C_16 
REMARK   12  A    between atoms: P_37  and  O_32 
REMARK   13  A    between atoms: P_37  and  O_34 
REMARK   14  A    between atoms: P_37  and  O_36 
ROOT
HETATM    1  C   UNK N   1      30.561  17.960   7.791  0.00  0.00     0.180 C 
HETATM    2  C   UNK N   1      29.677  17.781   9.027  0.00  0.00     0.182 C 
HETATM    3  C   UNK N   1      28.413  18.349   8.417  0.00  0.00     0.198 C 
HETATM    4  C   UNK N   1      28.452  17.627   7.059  0.00  0.00     0.262 C 
HETATM    5  O   UNK N   1      29.814  17.405   6.747  0.00  0.00    -0.353 OA
ENDROOT
BRANCH   1   6
HETATM    6  C   UNK N   1      31.969  17.372   7.712  0.00  0.00     0.215 C 
BRANCH   6   7
HETATM    7  O   UNK N   1      32.799  17.742   8.753  0.00  0.00    -0.294 OA
BRANCH   7   8
HETATM    8  P   UNK N   1      34.433  17.845   8.160  0.00  0.00     0.400 P 
HETATM    9  O   UNK N   1      35.002  19.266   8.420  0.00  0.00    -0.631 OA
BRANCH   8  10
HETATM   10  O   UNK N   1      34.632  17.453   6.478  0.00  0.00    -0.307 OA
HETATM   11  H   UNK N   1      34.482  18.004   5.694  0.00  0.00     0.222 HD
ENDBRANCH   8  10
BRANCH   8  12
HETATM   12  O   UNK N   1      35.297  16.712   9.103  0.00  0.00    -0.218 OA
BRANCH  12  13
HETATM   13  C   UNK N   1      35.006  15.384   9.143  0.00  0.00     0.290 C 
HETATM   14  O   UNK N   1      35.357  14.693   8.200  0.00  0.00    -0.262 OA
BRANCH  13  15
HETATM   15  C   UNK N   1      34.340  14.699  10.323  0.00  0.00     0.181 C 
BRANCH  15  16
HETATM   16  C   UNK N   1      35.158  14.989  11.574  0.00  0.00     0.093 C 
BRANCH  16  17
HETATM   17  C   UNK N   1      35.214  13.832  12.511  0.00  0.00     0.028 A 
HETATM   18  C   UNK N   1      35.829  13.818  13.738  0.00  0.00     0.114 A 
HETATM   19  N   UNK N   1      35.609  12.611  14.290  0.00  0.00    -0.360 N 
HETATM   20  C   UNK N   1      34.868  11.923  13.395  0.00  0.00     0.180 A 
ATOM     21  HN  UNK N   1      35.936  12.282  15.198  1.00  0.00     0.166 HD
HETATM   22  N   UNK N   1      34.608  12.656  12.292  0.00  0.00    -0.354 N 
HETATM   23  H   UNK N   1      34.088  12.386  11.501  0.00  0.00     0.166 HD
ENDBRANCH  16  17
ENDBRANCH  15  16
BRANCH  15  24
HETATM   24  N   UNK N   1      32.960  15.112  10.520  0.00  0.00    -0.418 N 
HETATM   25  H   UNK N   1      32.341  15.911  10.384  0.00  0.00     0.150 HD
HETATM   26  H   UNK N   1      32.433  14.343  10.934  0.00  0.00     0.150 HD
ENDBRANCH  15  24
ENDBRANCH  13  15
ENDBRANCH  12  13
ENDBRANCH   8  12
ENDBRANCH   7   8
ENDBRANCH   6   7
ENDBRANCH   1   6
BRANCH   2  27
HETATM   27  O   UNK N   1      30.113  18.499  10.143  0.00  0.00    -0.390 OA
HETATM   28  H   UNK N   1      30.738  18.476  10.884  0.00  0.00     0.210 HD
ENDBRANCH   2  27
BRANCH   3  29
HETATM   29  O   UNK N   1      27.266  18.053   9.161  0.00  0.00    -0.388 OA
HETATM   30  H   UNK N   1      27.117  17.263   9.703  0.00  0.00     0.210 HD
ENDBRANCH   3  29
BRANCH   4  31
HETATM   31  N   UNK N   1      27.864  18.357   5.931  0.00  0.00    -0.297 N 
HETATM   32  C   UNK N   1      28.545  19.301   5.224  0.00  0.00     0.188 A 
HETATM   33  N   UNK N   1      27.796  19.815   4.216  0.00  0.00    -0.346 N 
HETATM   34  C   UNK N   1      26.626  19.171   4.317  0.00  0.00     0.122 A 
ATOM     35  HN  UNK N   1      28.064  20.529   3.538  1.00  0.00     0.167 HD
HETATM   36  C   UNK N   1      25.487  19.307   3.550  0.00  0.00     0.131 A 
HETATM   37  C   UNK N   1      26.661  18.292   5.343  0.00  0.00     0.142 A 
HETATM   38  N   UNK N   1      24.407  18.536   3.871  0.00  0.00    -0.337 N 
HETATM   39  C   UNK N   1      24.458  17.652   4.925  0.00  0.00     0.183 A 
ATOM     40  HN  UNK N   1      23.550  18.618   3.324  1.00  0.00     0.168 HD
HETATM   41  N   UNK N   1      25.600  17.521   5.673  0.00  0.00    -0.336 N 
ATOM     42  HN  UNK N   1      25.649  16.863   6.452  1.00  0.00     0.168 HD
BRANCH  36  43
HETATM   43  N   UNK N   1      25.438  20.211   2.469  0.00  0.00    -0.383 N 
HETATM   44  H   UNK N   1      24.702  20.861   2.404  0.00  0.00     0.157 HD
HETATM   45  H   UNK N   1      26.142  20.193   1.781  0.00  0.00     0.157 HD
ENDBRANCH  36  43
ENDBRANCH   4  31
TORSDOF 14
ENDMDL
MODEL 4
REMARK VINA RESULT:      -7.8      2.361     10.132
REMARK  14 active torsions:
REMARK  status: ('A' for Active; 'I' for Inactive)
REMARK    1  A    between atoms: C_7  and  C_1 
REMARK    2  A    between atoms: C_8  and  C_1 
REMARK    3  A    between atoms: C_9  and  C_3 
REMARK    4  A    between atoms: O_34  and  C_3 
REMARK    5  A    between atoms: C_16  and  C_8 
REMARK    6  A    between atoms: C_8  and  N_17 
REMARK    7  A    between atoms: C_11  and  O_29 
REMARK    8  A    between atoms: C_12  and  O_30 
REMARK    9  A    between atoms: N_18  and  C_13 
REMARK   10  A    between atoms: C_15  and  N_28 
REMARK   11  A    between atoms: O_36  and  C_16 
REMARK   12  A    between atoms: P_37  and  O_32 
REMARK   13  A    between atoms: P_37  and  O_34 
REMARK   14  A    between atoms: P_37  and  O_36 
ROOT
HETATM    1  C   UNK N   1      33.814  15.369  10.294  0.00  0.00     0.180 C 
HETATM    2  C   UNK N   1      35.108  15.984   9.757  0.00  0.00     0.182 C 
HETATM    3  C   UNK N   1      35.972  15.634  10.949  0.00  0.00     0.198 C 
HETATM    4  C   UNK N   1      35.527  14.176  11.153  0.00  0.00     0.262 C 
HETATM    5  O   UNK N   1      34.186  14.087  10.708  0.00  0.00    -0.353 OA
ENDROOT
BRANCH   1   6
HETATM    6  C   UNK N   1      32.565  15.227   9.426  0.00  0.00     0.215 C 
BRANCH   6   7
HETATM    7  O   UNK N   1      32.735  15.630   8.115  0.00  0.00    -0.294 OA
BRANCH   7   8
HETATM    8  P   UNK N   1      31.868  17.119   7.866  0.00  0.00     0.400 P 
HETATM    9  O   UNK N   1      31.439  17.241   6.379  0.00  0.00    -0.631 OA
BRANCH   8  10
HETATM   10  O   UNK N   1      32.728  18.558   8.329  0.00  0.00    -0.307 OA
HETATM   11  H   UNK N   1      33.417  18.675   9.001  0.00  0.00     0.222 HD
ENDBRANCH   8  10
BRANCH   8  12
HETATM   12  O   UNK N   1      30.475  16.965   8.843  0.00  0.00    -0.218 OA
BRANCH  12  13
HETATM   13  C   UNK N   1      29.639  17.997   9.135  0.00  0.00     0.290 C 
HETATM   14  O   UNK N   1      30.079  18.915   9.809  0.00  0.00    -0.262 OA
BRANCH  13  15
HETATM   15  C   UNK N   1      28.219  18.111   8.610  0.00  0.00     0.181 C 
BRANCH  15  16
HETATM   16  C   UNK N   1      28.277  18.560   7.156  0.00  0.00     0.093 C 
BRANCH  16  17
HETATM   17  C   UNK N   1      27.555  19.842   6.917  0.00  0.00     0.028 A 
HETATM   18  C   UNK N   1      27.641  20.615   5.786  0.00  0.00     0.114 A 
HETATM   19  N   UNK N   1      26.803  21.655   5.940  0.00  0.00    -0.360 N 
HETATM   20  C   UNK N   1      26.227  21.492   7.151  0.00  0.00     0.180 A 
ATOM     21  HN  UNK N   1      26.637  22.413   5.279  1.00  0.00     0.166 HD
HETATM   22  N   UNK N   1      26.672  20.379   7.770  0.00  0.00    -0.354 N 
HETATM   23  H   UNK N   1      26.405  20.038   8.654  0.00  0.00     0.166 HD
ENDBRANCH  16  17
ENDBRANCH  15  16
BRANCH  15  24
HETATM   24  N   UNK N   1      27.466  16.873   8.723  0.00  0.00    -0.418 N 
HETATM   25  H   UNK N   1      27.081  16.120   8.152  0.00  0.00     0.150 HD
HETATM   26  H   UNK N   1      27.250  16.697   9.704  0.00  0.00     0.150 HD
ENDBRANCH  15  24
ENDBRANCH  13  15
ENDBRANCH  12  13
ENDBRANCH   8  12
ENDBRANCH   7   8
ENDBRANCH   6   7
ENDBRANCH   1   6
BRANCH   2  27
HETATM   27  O   UNK N   1      35.027  17.360   9.529  0.00  0.00    -0.390 OA
HETATM   28  H   UNK N   1      35.373  18.216   9.825  0.00  0.00     0.210 HD
ENDBRANCH   2  27
BRANCH   3  29
HETATM   29  O   UNK N   1      37.340  15.756  10.688  0.00  0.00    -0.388 OA
HETATM   30  H   UNK N   1      38.053  15.228  11.082  0.00  0.00     0.210 HD
ENDBRANCH   3  29
BRANCH   4  31
HETATM   31  N   UNK N   1      35.556  13.687  12.536  0.00  0.00    -0.297 N 
HETATM   32  C   UNK N   1      36.178  14.356  13.545  0.00  0.00     0.188 A 
HETATM   33  N   UNK N   1      36.045  13.715  14.734  0.00  0.00    -0.346 N 
HETATM   34  C   UNK N   1      35.328  12.624  14.438  0.00  0.00     0.122 A 
ATOM     35  HN  UNK N   1      36.409  14.000  15.644  1.00  0.00     0.167 HD
HETATM   36  C   UNK N   1      34.905  11.606  15.269  0.00  0.00     0.131 A 
HETATM   37  C   UNK N   1      35.028  12.602  13.120  0.00  0.00     0.142 A 
HETATM   38  N   UNK N   1      34.192  10.583  14.712  0.00  0.00    -0.337 N 
HETATM   39  C   UNK N   1      33.904  10.573  13.366  0.00  0.00     0.183 A 
ATOM     40  HN  UNK N   1      33.871   9.816  15.302  1.00  0.00     0.168 HD
HETATM   41  N   UNK N   1      34.321  11.597  12.554  0.00  0.00    -0.336 N 
ATOM     42  HN  UNK N   1      34.106  11.601  11.556  1.00  0.00     0.168 HD
BRANCH  36  43
HETATM   43  N   UNK N   1      35.201  11.620  16.648  0.00  0.00    -0.383 N 
HETATM   44  H   UNK N   1      34.948  10.855  17.213  0.00  0.00     0.157 HD
HETATM   45  H   UNK N   1      35.660  12.395  17.044  0.00  0.00     0.157 HD
ENDBRANCH  36  43
ENDBRANCH   4  31
TORSDOF 14
ENDMDL
MODEL 5
REMARK VINA RESULT:      -7.8      2.924      4.723
REMARK  14 active torsions:
REMARK  status: ('A' for Active; 'I' for Inactive)
REMARK    1  A    between atoms: C_7  and  C_1 
REMARK    2  A    between atoms: C_8  and  C_1 
REMARK    3  A    between atoms: C_9  and  C_3 
REMARK    4  A    between atoms: O_34  and  C_3 
REMARK    5  A    between atoms: C_16  and  C_8 
REMARK    6  A    between atoms: C_8  and  N_17 
REMARK    7  A    between atoms: C_11  and  O_29 
REMARK    8  A    between atoms: C_12  and  O_30 
REMARK    9  A    between atoms: N_18  and  C_13 
REMARK   10  A    between atoms: C_15  and  N_28 
REMARK   11  A    between atoms: O_36  and  C_16 
REMARK   12  A    between atoms: P_37  and  O_32 
REMARK   13  A    between atoms: P_37  and  O_34 
REMARK   14  A    between atoms: P_37  and  O_36 
ROOT
HETATM    1  C   UNK N   1      33.748  15.380   9.028  0.00  0.00     0.180 C 
HETATM    2  C   UNK N   1      34.829  15.713   7.997  0.00  0.00     0.182 C 
HETATM    3  C   UNK N   1      33.894  16.261   6.940  0.00  0.00     0.198 C 
HETATM    4  C   UNK N   1      33.008  17.146   7.832  0.00  0.00     0.262 C 
HETATM    5  O   UNK N   1      32.980  16.546   9.113  0.00  0.00    -0.353 OA
ENDROOT
BRANCH   1   6
HETATM    6  C   UNK N   1      34.095  14.953  10.453  0.00  0.00     0.215 C 
BRANCH   6   7
HETATM    7  O   UNK N   1      35.060  13.967  10.533  0.00  0.00    -0.294 OA
BRANCH   7   8
HETATM    8  P   UNK N   1      36.441  14.599  11.386  0.00  0.00     0.400 P 
HETATM    9  O   UNK N   1      36.762  16.033  10.886  0.00  0.00    -0.631 OA
BRANCH   8  10
HETATM   10  O   UNK N   1      37.878  13.626  11.282  0.00  0.00    -0.307 OA
HETATM   11  H   UNK N   1      38.290  13.059  11.953  0.00  0.00     0.222 HD
ENDBRANCH   8  10
BRANCH   8  12
HETATM   12  O   UNK N   1      35.933  14.671  13.016  0.00  0.00    -0.218 OA
BRANCH  12  13
HETATM   13  C   UNK N   1      35.622  13.576  13.759  0.00  0.00     0.290 C 
HETATM   14  O   UNK N   1      34.539  13.045  13.569  0.00  0.00    -0.262 OA
BRANCH  13  15
HETATM   15  C   UNK N   1      36.570  12.930  14.754  0.00  0.00     0.181 C 
BRANCH  15  16
HETATM   16  C   UNK N   1      35.812  11.849  15.511  0.00  0.00     0.093 C 
BRANCH  16  17
HETATM   17  C   UNK N   1      35.528  12.223  16.926  0.00  0.00     0.028 A 
HETATM   18  C   UNK N   1      35.529  11.369  18.000  0.00  0.00     0.114 A 
HETATM   19  N   UNK N   1      35.279  12.100  19.101  0.00  0.00    -0.360 N 
HETATM   20  C   UNK N   1      35.135  13.374  18.676  0.00  0.00     0.180 A 
ATOM     21  HN  UNK N   1      35.211  11.762  20.061  1.00  0.00     0.166 HD
HETATM   22  N   UNK N   1      35.289  13.475  17.340  0.00  0.00    -0.354 N 
HETATM   23  H   UNK N   1      35.236  14.291  16.790  0.00  0.00     0.166 HD
ENDBRANCH  16  17
ENDBRANCH  15  16
BRANCH  15  24
HETATM   24  N   UNK N   1      37.757  12.368  14.131  0.00  0.00    -0.418 N 
HETATM   25  H   UNK N   1      38.101  11.507  13.708  0.00  0.00     0.150 HD
HETATM   26  H   UNK N   1      38.493  13.073  14.110  0.00  0.00     0.150 HD
ENDBRANCH  15  24
ENDBRANCH  13  15
ENDBRANCH  12  13
ENDBRANCH   8  12
ENDBRANCH   7   8
ENDBRANCH   6   7
ENDBRANCH   1   6
BRANCH   2  27
HETATM   27  O   UNK N   1      35.555  14.602   7.560  0.00  0.00    -0.390 OA
HETATM   28  H   UNK N   1      35.531  13.855   6.943  0.00  0.00     0.210 HD
ENDBRANCH   2  27
BRANCH   3  29
HETATM   29  O   UNK N   1      34.559  16.982   5.942  0.00  0.00    -0.388 OA
HETATM   30  H   UNK N   1      34.460  16.868   4.984  0.00  0.00     0.210 HD
ENDBRANCH   3  29
BRANCH   4  31
HETATM   31  N   UNK N   1      31.615  17.299   7.397  0.00  0.00    -0.297 N 
HETATM   32  C   UNK N   1      31.201  17.024   6.129  0.00  0.00     0.188 A 
HETATM   33  N   UNK N   1      29.866  17.219   5.981  0.00  0.00    -0.346 N 
HETATM   34  C   UNK N   1      29.459  17.631   7.188  0.00  0.00     0.122 A 
ATOM     35  HN  UNK N   1      29.303  17.084   5.141  1.00  0.00     0.167 HD
HETATM   36  C   UNK N   1      28.194  17.986   7.609  0.00  0.00     0.131 A 
HETATM   37  C   UNK N   1      30.505  17.678   8.044  0.00  0.00     0.142 A 
HETATM   38  N   UNK N   1      28.043  18.392   8.903  0.00  0.00    -0.337 N 
HETATM   39  C   UNK N   1      29.120  18.442   9.759  0.00  0.00     0.183 A 
ATOM     40  HN  UNK N   1      27.119  18.664   9.240  1.00  0.00     0.168 HD
HETATM   41  N   UNK N   1      30.371  18.077   9.330  0.00  0.00    -0.336 N 
ATOM     42  HN  UNK N   1      31.174  18.105   9.960  1.00  0.00     0.168 HD
BRANCH  36  43
HETATM   43  N   UNK N   1      27.092  17.932   6.731  0.00  0.00    -0.383 N 
HETATM   44  H   UNK N   1      26.831  17.076   6.321  0.00  0.00     0.157 HD
HETATM   45  H   UNK N   1      26.584  18.751   6.528  0.00  0.00     0.157 HD
ENDBRANCH  36  43
ENDBRANCH   4  31
TORSDOF 14
ENDMDL
MODEL 6
REMARK VINA RESULT:      -7.5      3.647      8.979
REMARK  14 active torsions:
REMARK  status: ('A' for Active; 'I' for Inactive)
REMARK    1  A    between atoms: C_7  and  C_1 
REMARK    2  A    between atoms: C_8  and  C_1 
REMARK    3  A    between atoms: C_9  and  C_3 
REMARK    4  A    between atoms: O_34  and  C_3 
REMARK    5  A    between atoms: C_16  and  C_8 
REMARK    6  A    between atoms: C_8  and  N_17 
REMARK    7  A    between atoms: C_11  and  O_29 
REMARK    8  A    between atoms: C_12  and  O_30 
REMARK    9  A    between atoms: N_18  and  C_13 
REMARK   10  A    between atoms: C_15  and  N_28 
REMARK   11  A    between atoms: O_36  and  C_16 
REMARK   12  A    between atoms: P_37  and  O_32 
REMARK   13  A    between atoms: P_37  and  O_34 
REMARK   14  A    between atoms: P_37  and  O_36 
ROOT
HETATM    1  C   UNK N   1      36.000  15.364  10.939  0.00  0.00     0.180 C 
HETATM    2  C   UNK N   1      36.945  14.390  10.232  0.00  0.00     0.182 C 
HETATM    3  C   UNK N   1      37.109  13.436  11.396  0.00  0.00     0.198 C 
HETATM    4  C   UNK N   1      35.636  13.320  11.825  0.00  0.00     0.262 C 
HETATM    5  O   UNK N   1      35.011  14.546  11.494  0.00  0.00    -0.353 OA
ENDROOT
BRANCH   1   6
HETATM    6  C   UNK N   1      35.295  16.493  10.189  0.00  0.00     0.215 C 
BRANCH   6   7
HETATM    7  O   UNK N   1      35.400  16.415   8.813  0.00  0.00    -0.294 OA
BRANCH   7   8
HETATM    8  P   UNK N   1      34.572  17.774   8.107  0.00  0.00     0.400 P 
HETATM    9  O   UNK N   1      34.583  17.656   6.559  0.00  0.00    -0.631 OA
BRANCH   8  10
HETATM   10  O   UNK N   1      35.195  19.333   8.562  0.00  0.00    -0.307 OA
HETATM   11  H   UNK N   1      36.070  19.572   8.905  0.00  0.00     0.222 HD
ENDBRANCH   8  10
BRANCH   8  12
HETATM   12  O   UNK N   1      32.966  17.630   8.671  0.00  0.00    -0.218 OA
BRANCH  12  13
HETATM   13  C   UNK N   1      32.030  16.833   8.091  0.00  0.00     0.290 C 
HETATM   14  O   UNK N   1      30.957  17.333   7.794  0.00  0.00    -0.262 OA
BRANCH  13  15
HETATM   15  C   UNK N   1      32.268  15.379   7.721  0.00  0.00     0.181 C 
BRANCH  15  16
HETATM   16  C   UNK N   1      32.337  14.560   9.003  0.00  0.00     0.093 C 
BRANCH  16  17
HETATM   17  C   UNK N   1      33.086  13.283   8.834  0.00  0.00     0.028 A 
HETATM   18  C   UNK N   1      34.264  13.125   8.147  0.00  0.00     0.114 A 
HETATM   19  N   UNK N   1      34.639  11.840   8.273  0.00  0.00    -0.360 N 
HETATM   20  C   UNK N   1      33.690  11.248   9.029  0.00  0.00     0.180 A 
ATOM     21  HN  UNK N   1      35.470  11.401   7.876  1.00  0.00     0.166 HD
HETATM   22  N   UNK N   1      32.724  12.119   9.391  0.00  0.00    -0.354 N 
HETATM   23  H   UNK N   1      31.929  11.937   9.942  0.00  0.00     0.166 HD
ENDBRANCH  16  17
ENDBRANCH  15  16
BRANCH  15  24
HETATM   24  N   UNK N   1      31.250  14.840   6.836  0.00  0.00    -0.418 N 
HETATM   25  H   UNK N   1      30.332  14.395   6.856  0.00  0.00     0.150 HD
HETATM   26  H   UNK N   1      31.556  14.940   5.868  0.00  0.00     0.150 HD
ENDBRANCH  15  24
ENDBRANCH  13  15
ENDBRANCH  12  13
ENDBRANCH   8  12
ENDBRANCH   7   8
ENDBRANCH   6   7
ENDBRANCH   1   6
BRANCH   2  27
HETATM   27  O   UNK N   1      38.151  14.967   9.827  0.00  0.00    -0.390 OA
HETATM   28  H   UNK N   1      39.113  14.842   9.841  0.00  0.00     0.210 HD
ENDBRANCH   2  27
BRANCH   3  29
HETATM   29  O   UNK N   1      37.667  12.209  11.023  0.00  0.00    -0.388 OA
HETATM   30  H   UNK N   1      37.183  11.395  10.811  0.00  0.00     0.210 HD
ENDBRANCH   3  29
BRANCH   4  31
HETATM   31  N   UNK N   1      35.405  13.091  13.256  0.00  0.00    -0.297 N 
HETATM   32  C   UNK N   1      34.563  12.130  13.726  0.00  0.00     0.188 A 
HETATM   33  N   UNK N   1      34.538  12.098  15.082  0.00  0.00    -0.346 N 
HETATM   34  C   UNK N   1      35.383  13.071  15.447  0.00  0.00     0.122 A 
ATOM     35  HN  UNK N   1      33.998  11.477  15.684  1.00  0.00     0.167 HD
HETATM   36  C   UNK N   1      35.736  13.490  16.713  0.00  0.00     0.131 A 
HETATM   37  C   UNK N   1      35.910  13.668  14.355  0.00  0.00     0.142 A 
HETATM   38  N   UNK N   1      36.617  14.527  16.819  0.00  0.00    -0.337 N 
HETATM   39  C   UNK N   1      37.137  15.130  15.696  0.00  0.00     0.183 A 
ATOM     40  HN  UNK N   1      36.893  14.861  17.742  1.00  0.00     0.168 HD
HETATM   41  N   UNK N   1      36.786  14.696  14.443  0.00  0.00    -0.336 N 
ATOM     42  HN  UNK N   1      37.172  15.133  13.605  1.00  0.00     0.168 HD
BRANCH  36  43
HETATM   43  N   UNK N   1      35.203  12.870  17.862  0.00  0.00    -0.383 N 
HETATM   44  H   UNK N   1      35.473  13.177  18.757  0.00  0.00     0.157 HD
HETATM   45  H   UNK N   1      34.562  12.128  17.767  0.00  0.00     0.157 HD
ENDBRANCH  36  43
ENDBRANCH   4  31
TORSDOF 14
ENDMDL
MODEL 7
REMARK VINA RESULT:      -7.5      2.194      3.931
REMARK  14 active torsions:
REMARK  status: ('A' for Active; 'I' for Inactive)
REMARK    1  A    between atoms: C_7  and  C_1 
REMARK    2  A    between atoms: C_8  and  C_1 
REMARK    3  A    between atoms: C_9  and  C_3 
REMARK    4  A    between atoms: O_34  and  C_3 
REMARK    5  A    between atoms: C_16  and  C_8 
REMARK    6  A    between atoms: C_8  and  N_17 
REMARK    7  A    between atoms: C_11  and  O_29 
REMARK    8  A    between atoms: C_12  and  O_30 
REMARK    9  A    between atoms: N_18  and  C_13 
REMARK   10  A    between atoms: C_15  and  N_28 
REMARK   11  A    between atoms: O_36  and  C_16 
REMARK   12  A    between atoms: P_37  and  O_32 
REMARK   13  A    between atoms: P_37  and  O_34 
REMARK   14  A    between atoms: P_37  and  O_36 
ROOT
HETATM    1  C   UNK N   1      30.547  17.681   7.912  0.00  0.00     0.180 C 
HETATM    2  C   UNK N   1      29.717  17.649   9.198  0.00  0.00     0.182 C 
HETATM    3  C   UNK N   1      28.403  18.051   8.563  0.00  0.00     0.198 C 
HETATM    4  C   UNK N   1      28.435  17.132   7.330  0.00  0.00     0.262 C 
HETATM    5  O   UNK N   1      29.797  16.935   6.997  0.00  0.00    -0.353 OA
ENDROOT
BRANCH   1   6
HETATM    6  C   UNK N   1      31.982  17.160   7.863  0.00  0.00     0.215 C 
BRANCH   6   7
HETATM    7  O   UNK N   1      32.818  17.706   8.819  0.00  0.00    -0.294 OA
BRANCH   7   8
HETATM    8  P   UNK N   1      34.406  17.902   8.133  0.00  0.00     0.400 P 
HETATM    9  O   UNK N   1      34.909  19.352   8.367  0.00  0.00    -0.631 OA
BRANCH   8  10
HETATM   10  O   UNK N   1      34.527  17.525   6.439  0.00  0.00    -0.307 OA
HETATM   11  H   UNK N   1      34.737  16.682   6.008  0.00  0.00     0.222 HD
ENDBRANCH   8  10
BRANCH   8  12
HETATM   12  O   UNK N   1      35.385  16.816   9.017  0.00  0.00    -0.218 OA
BRANCH  12  13
HETATM   13  C   UNK N   1      34.994  16.214  10.171  0.00  0.00     0.290 C 
HETATM   14  O   UNK N   1      35.158  16.822  11.217  0.00  0.00    -0.262 OA
BRANCH  13  15
HETATM   15  C   UNK N   1      34.296  14.867  10.228  0.00  0.00     0.181 C 
BRANCH  15  16
HETATM   16  C   UNK N   1      34.852  13.988   9.115  0.00  0.00     0.093 C 
BRANCH  16  17
HETATM   17  C   UNK N   1      33.967  13.945   7.917  0.00  0.00     0.028 A 
HETATM   18  C   UNK N   1      32.654  13.543   7.900  0.00  0.00     0.114 A 
HETATM   19  N   UNK N   1      32.198  13.699   6.645  0.00  0.00    -0.360 N 
HETATM   20  C   UNK N   1      33.233  14.191   5.931  0.00  0.00     0.180 A 
ATOM     21  HN  UNK N   1      31.261  13.487   6.301  1.00  0.00     0.166 HD
HETATM   22  N   UNK N   1      34.333  14.355   6.694  0.00  0.00    -0.354 N 
HETATM   23  H   UNK N   1      35.211  14.701   6.414  0.00  0.00     0.166 HD
ENDBRANCH  16  17
ENDBRANCH  15  16
BRANCH  15  24
HETATM   24  N   UNK N   1      34.442  14.201  11.512  0.00  0.00    -0.418 N 
HETATM   25  H   UNK N   1      34.629  14.399  12.494  0.00  0.00     0.150 HD
HETATM   26  H   UNK N   1      34.313  13.197  11.388  0.00  0.00     0.150 HD
ENDBRANCH  15  24
ENDBRANCH  13  15
ENDBRANCH  12  13
ENDBRANCH   8  12
ENDBRANCH   7   8
ENDBRANCH   6   7
ENDBRANCH   1   6
BRANCH   2  27
HETATM   27  O   UNK N   1      30.150  18.552  10.172  0.00  0.00    -0.390 OA
HETATM   28  H   UNK N   1      30.683  18.625  10.978  0.00  0.00     0.210 HD
ENDBRANCH   2  27
BRANCH   3  29
HETATM   29  O   UNK N   1      27.300  17.815   9.391  0.00  0.00    -0.388 OA
HETATM   30  H   UNK N   1      26.668  18.476   9.714  0.00  0.00     0.210 HD
ENDBRANCH   3  29
BRANCH   4  31
HETATM   31  N   UNK N   1      27.769  17.650   6.130  0.00  0.00    -0.297 N 
HETATM   32  C   UNK N   1      27.648  16.931   4.981  0.00  0.00     0.188 A 
HETATM   33  N   UNK N   1      26.972  17.616   4.025  0.00  0.00    -0.346 N 
HETATM   34  C   UNK N   1      26.679  18.786   4.606  0.00  0.00     0.122 A 
ATOM     35  HN  UNK N   1      26.740  17.309   3.080  1.00  0.00     0.167 HD
HETATM   36  C   UNK N   1      26.007  19.874   4.088  0.00  0.00     0.131 A 
HETATM   37  C   UNK N   1      27.152  18.812   5.872  0.00  0.00     0.142 A 
HETATM   38  N   UNK N   1      25.850  20.968   4.889  0.00  0.00    -0.337 N 
HETATM   39  C   UNK N   1      26.346  20.980   6.173  0.00  0.00     0.183 A 
ATOM     40  HN  UNK N   1      25.361  21.788   4.531  1.00  0.00     0.168 HD
HETATM   41  N   UNK N   1      27.004  19.888   6.679  0.00  0.00    -0.336 N 
ATOM     42  HN  UNK N   1      27.369  19.886   7.632  1.00  0.00     0.168 HD
BRANCH  36  43
HETATM   43  N   UNK N   1      25.498  19.858   2.773  0.00  0.00    -0.383 N 
HETATM   44  H   UNK N   1      24.586  20.181   2.594  0.00  0.00     0.157 HD
HETATM   45  H   UNK N   1      26.056  19.523   2.034  0.00  0.00     0.157 HD
ENDBRANCH  36  43
ENDBRANCH   4  31
TORSDOF 14
ENDMDL
MODEL 8
REMARK VINA RESULT:      -7.5      6.074      8.618
REMARK  14 active torsions:
REMARK  status: ('A' for Active; 'I' for Inactive)
REMARK    1  A    between atoms: C_7  and  C_1 
REMARK    2  A    between atoms: C_8  and  C_1 
REMARK    3  A    between atoms: C_9  and  C_3 
REMARK    4  A    between atoms: O_34  and  C_3 
REMARK    5  A    between atoms: C_16  and  C_8 
REMARK    6  A    between atoms: C_8  and  N_17 
REMARK    7  A    between atoms: C_11  and  O_29 
REMARK    8  A    between atoms: C_12  and  O_30 
REMARK    9  A    between atoms: N_18  and  C_13 
REMARK   10  A    between atoms: C_15  and  N_28 
REMARK   11  A    between atoms: O_36  and  C_16 
REMARK   12  A    between atoms: P_37  and  O_32 
REMARK   13  A    between atoms: P_37  and  O_34 
REMARK   14  A    between atoms: P_37  and  O_36 
ROOT
HETATM    1  C   UNK N   1      24.264  19.147   3.464  0.00  0.00     0.180 C 
HETATM    2  C   UNK N   1      23.913  20.618   3.231  0.00  0.00     0.182 C 
HETATM    3  C   UNK N   1      22.572  20.372   2.572  0.00  0.00     0.198 C 
HETATM    4  C   UNK N   1      22.014  19.316   3.543  0.00  0.00     0.262 C 
HETATM    5  O   UNK N   1      23.123  18.610   4.068  0.00  0.00    -0.353 OA
ENDROOT
BRANCH   1   6
HETATM    6  C   UNK N   1      25.468  18.728   4.305  0.00  0.00     0.215 C 
BRANCH   6   7
HETATM    7  O   UNK N   1      25.614  19.436   5.483  0.00  0.00    -0.294 OA
BRANCH   7   8
HETATM    8  P   UNK N   1      27.160  20.236   5.472  0.00  0.00     0.400 P 
HETATM    9  O   UNK N   1      26.964  21.771   5.594  0.00  0.00    -0.631 OA
BRANCH   8  10
HETATM   10  O   UNK N   1      28.153  19.899   4.084  0.00  0.00    -0.307 OA
HETATM   11  H   UNK N   1      28.122  20.286   3.195  0.00  0.00     0.222 HD
ENDBRANCH   8  10
BRANCH   8  12
HETATM   12  O   UNK N   1      27.947  19.655   6.873  0.00  0.00    -0.218 OA
BRANCH  12  13
HETATM   13  C   UNK N   1      28.527  18.428   6.961  0.00  0.00     0.290 C 
HETATM   14  O   UNK N   1      28.869  17.883   5.924  0.00  0.00    -0.262 OA
BRANCH  13  15
HETATM   15  C   UNK N   1      28.842  17.734   8.274  0.00  0.00     0.181 C 
BRANCH  15  16
HETATM   16  C   UNK N   1      30.172  18.265   8.793  0.00  0.00     0.093 C 
BRANCH  16  17
HETATM   17  C   UNK N   1      31.303  17.323   8.557  0.00  0.00     0.028 A 
HETATM   18  C   UNK N   1      31.248  16.170   7.813  0.00  0.00     0.114 A 
HETATM   19  N   UNK N   1      32.482  15.635   7.802  0.00  0.00    -0.360 N 
HETATM   20  C   UNK N   1      33.255  16.469   8.530  0.00  0.00     0.180 A 
ATOM     21  HN  UNK N   1      32.774  14.775   7.339  1.00  0.00     0.166 HD
HETATM   22  N   UNK N   1      32.552  17.519   9.002  0.00  0.00    -0.354 N 
HETATM   23  H   UNK N   1      32.884  18.264   9.553  0.00  0.00     0.166 HD
ENDBRANCH  16  17
ENDBRANCH  15  16
BRANCH  15  24
HETATM   24  N   UNK N   1      27.806  17.909   9.278  0.00  0.00    -0.418 N 
HETATM   25  H   UNK N   1      27.395  18.621   9.880  0.00  0.00     0.150 HD
HETATM   26  H   UNK N   1      27.331  17.020   9.431  0.00  0.00     0.150 HD
ENDBRANCH  15  24
ENDBRANCH  13  15
ENDBRANCH  12  13
ENDBRANCH   8  12
ENDBRANCH   7   8
ENDBRANCH   6   7
ENDBRANCH   1   6
BRANCH   2  27
HETATM   27  O   UNK N   1      24.812  21.288   2.399  0.00  0.00    -0.390 OA
HETATM   28  H   UNK N   1      25.468  21.153   1.697  0.00  0.00     0.210 HD
ENDBRANCH   2  27
BRANCH   3  29
HETATM   29  O   UNK N   1      21.778  21.521   2.500  0.00  0.00    -0.388 OA
HETATM   30  H   UNK N   1      22.066  22.406   2.227  0.00  0.00     0.210 HD
ENDBRANCH   3  29
BRANCH   4  31
HETATM   31  N   UNK N   1      21.109  18.323   2.954  0.00  0.00    -0.297 N 
HETATM   32  C   UNK N   1      19.915  18.651   2.389  0.00  0.00     0.188 A 
HETATM   33  N   UNK N   1      19.274  17.563   1.893  0.00  0.00    -0.346 N 
HETATM   34  C   UNK N   1      20.098  16.544   2.170  0.00  0.00     0.122 A 
ATOM     35  HN  UNK N   1      18.371  17.530   1.419  1.00  0.00     0.167 HD
HETATM   36  C   UNK N   1      19.943  15.200   1.901  0.00  0.00     0.131 A 
HETATM   37  C   UNK N   1      21.203  16.994   2.804  0.00  0.00     0.142 A 
HETATM   38  N   UNK N   1      20.932  14.351   2.307  0.00  0.00    -0.337 N 
HETATM   39  C   UNK N   1      22.048  14.825   2.959  0.00  0.00     0.183 A 
ATOM     40  HN  UNK N   1      20.843  13.351   2.125  1.00  0.00     0.168 HD
HETATM   41  N   UNK N   1      22.193  16.166   3.210  0.00  0.00    -0.336 N 
ATOM     42  HN  UNK N   1      23.020  16.528   3.687  1.00  0.00     0.168 HD
BRANCH  36  43
HETATM   43  N   UNK N   1      18.800  14.716   1.231  0.00  0.00    -0.383 N 
HETATM   44  H   UNK N   1      18.567  15.066   0.341  0.00  0.00     0.157 HD
HETATM   45  H   UNK N   1      18.236  14.028   1.654  0.00  0.00     0.157 HD
ENDBRANCH  36  43
ENDBRANCH   4  31
TORSDOF 14
ENDMDL
MODEL 9
REMARK VINA RESULT:      -7.5      3.979     10.910
REMARK  14 active torsions:
REMARK  status: ('A' for Active; 'I' for Inactive)
REMARK    1  A    between atoms: C_7  and  C_1 
REMARK    2  A    between atoms: C_8  and  C_1 
REMARK    3  A    between atoms: C_9  and  C_3 
REMARK    4  A    between atoms: O_34  and  C_3 
REMARK    5  A    between atoms: C_16  and  C_8 
REMARK    6  A    between atoms: C_8  and  N_17 
REMARK    7  A    between atoms: C_11  and  O_29 
REMARK    8  A    between atoms: C_12  and  O_30 
REMARK    9  A    between atoms: N_18  and  C_13 
REMARK   10  A    between atoms: C_15  and  N_28 
REMARK   11  A    between atoms: O_36  and  C_16 
REMARK   12  A    between atoms: P_37  and  O_32 
REMARK   13  A    between atoms: P_37  and  O_34 
REMARK   14  A    between atoms: P_37  and  O_36 
ROOT
HETATM    1  C   UNK N   1      35.543  12.842  13.281  0.00  0.00     0.180 C 
HETATM    2  C   UNK N   1      35.270  11.582  12.457  0.00  0.00     0.182 C 
HETATM    3  C   UNK N   1      35.282  10.612  13.619  0.00  0.00     0.198 C 
HETATM    4  C   UNK N   1      34.416  11.407  14.610  0.00  0.00     0.262 C 
HETATM    5  O   UNK N   1      34.617  12.780  14.327  0.00  0.00    -0.353 OA
ENDROOT
BRANCH   1   6
HETATM    6  C   UNK N   1      35.455  14.241  12.673  0.00  0.00     0.215 C 
BRANCH   6   7
HETATM    7  O   UNK N   1      34.898  14.277  11.409  0.00  0.00    -0.294 OA
BRANCH   7   8
HETATM    8  P   UNK N   1      36.102  14.832  10.280  0.00  0.00     0.400 P 
HETATM    9  O   UNK N   1      37.001  13.646   9.838  0.00  0.00    -0.631 OA
BRANCH   8  10
HETATM   10  O   UNK N   1      37.111  16.126  10.856  0.00  0.00    -0.307 OA
HETATM   11  H   UNK N   1      38.059  16.125  11.058  0.00  0.00     0.222 HD
ENDBRANCH   8  10
BRANCH   8  12
HETATM   12  O   UNK N   1      35.199  15.384   8.938  0.00  0.00    -0.218 OA
BRANCH  12  13
HETATM   13  C   UNK N   1      34.490  16.544   8.930  0.00  0.00     0.290 C 
HETATM   14  O   UNK N   1      34.729  17.366   9.800  0.00  0.00    -0.262 OA
BRANCH  13  15
HETATM   15  C   UNK N   1      33.474  16.907   7.861  0.00  0.00     0.181 C 
BRANCH  15  16
HETATM   16  C   UNK N   1      32.701  18.134   8.328  0.00  0.00     0.093 C 
BRANCH  16  17
HETATM   17  C   UNK N   1      31.237  17.883   8.448  0.00  0.00     0.028 A 
HETATM   18  C   UNK N   1      30.445  17.272   7.507  0.00  0.00     0.114 A 
HETATM   19  N   UNK N   1      29.202  17.191   8.014  0.00  0.00    -0.360 N 
HETATM   20  C   UNK N   1      29.264  17.747   9.243  0.00  0.00     0.180 A 
ATOM     21  HN  UNK N   1      28.380  16.792   7.561  1.00  0.00     0.166 HD
HETATM   22  N   UNK N   1      30.509  18.177   9.534  0.00  0.00    -0.354 N 
HETATM   23  H   UNK N   1      30.815  18.611  10.363  0.00  0.00     0.166 HD
ENDBRANCH  16  17
ENDBRANCH  15  16
BRANCH  15  24
HETATM   24  N   UNK N   1      34.076  17.158   6.562  0.00  0.00    -0.418 N 
HETATM   25  H   UNK N   1      34.108  16.784   5.614  0.00  0.00     0.150 HD
HETATM   26  H   UNK N   1      34.665  17.989   6.618  0.00  0.00     0.150 HD
ENDBRANCH  15  24
ENDBRANCH  13  15
ENDBRANCH  12  13
ENDBRANCH   8  12
ENDBRANCH   7   8
ENDBRANCH   6   7
ENDBRANCH   1   6
BRANCH   2  27
HETATM   27  O   UNK N   1      36.255  11.305  11.506  0.00  0.00    -0.390 OA
HETATM   28  H   UNK N   1      37.059  10.785  11.352  0.00  0.00     0.210 HD
ENDBRANCH   2  27
BRANCH   3  29
HETATM   29  O   UNK N   1      34.737   9.365  13.296  0.00  0.00    -0.388 OA
HETATM   30  H   UNK N   1      33.862   9.199  12.911  0.00  0.00     0.210 HD
ENDBRANCH   3  29
BRANCH   4  31
HETATM   31  N   UNK N   1      34.726  11.209  16.030  0.00  0.00    -0.297 N 
HETATM   32  C   UNK N   1      34.865   9.977  16.593  0.00  0.00     0.188 A 
HETATM   33  N   UNK N   1      35.175  10.056  17.912  0.00  0.00    -0.346 N 
HETATM   34  C   UNK N   1      35.219  11.372  18.159  0.00  0.00     0.122 A 
ATOM     35  HN  UNK N   1      35.337   9.289  18.565  1.00  0.00     0.167 HD
HETATM   36  C   UNK N   1      35.480  12.029  19.344  0.00  0.00     0.131 A 
HETATM   37  C   UNK N   1      34.954  12.070  17.032  0.00  0.00     0.142 A 
HETATM   38  N   UNK N   1      35.448  13.393  19.337  0.00  0.00    -0.337 N 
HETATM   39  C   UNK N   1      35.167  14.088  18.182  0.00  0.00     0.183 A 
ATOM     40  HN  UNK N   1      35.634  13.905  20.199  1.00  0.00     0.168 HD
HETATM   41  N   UNK N   1      34.920  13.422  17.008  0.00  0.00    -0.336 N 
ATOM     42  HN  UNK N   1      34.717  13.929  16.146  1.00  0.00     0.168 HD
BRANCH  36  43
HETATM   43  N   UNK N   1      35.770  11.315  20.525  0.00  0.00    -0.383 N 
HETATM   44  H   UNK N   1      36.059  11.797  21.333  0.00  0.00     0.157 HD
HETATM   45  H   UNK N   1      35.682  10.334  20.541  0.00  0.00     0.157 HD
ENDBRANCH  36  43
ENDBRANCH   4  31
TORSDOF 14
ENDMDL
