REMARK  1 active torsions:
REMARK  status: ('A' for Active; 'I' for Inactive)
REMARK    1  A    between atoms: C_2  and  N_3 
ROOT
HETATM    1  N   UNK N   1       0.840   1.574   0.000  0.00  0.00    -0.359 N 
HETATM    2  C   UNK N   1       2.099   0.863  -0.000  0.00  0.00     0.125 A 
HETATM    3  C   UNK N   1       2.071  -0.657   0.000  0.00  0.00     0.020 A 
HETATM    4  C   UNK N   1       0.744  -1.388  -0.000  0.00  0.00     0.003 A 
HETATM    5  C   UNK N   1      -0.537  -0.577   0.000  0.00  0.00     0.020 A 
HETATM    6  C   UNK N   1      -0.469   0.944  -0.000  0.00  0.00     0.125 A 
ENDROOT
BRANCH   1   7
HETATM    7  C   UNK N   1       0.914   2.927  -0.000  0.00  0.00     0.350 C 
HETATM    8  O   UNK N   1      -0.094   3.619   0.000  0.00  0.00    -0.284 OA
ENDBRANCH   1   7
TORSDOF 1
