MODEL 1
REMARK VINA RESULT:      -8.5      0.000      0.000
REMARK  6 active torsions:
REMARK  status: ('A' for Active; 'I' for Inactive)
REMARK    1  A    between atoms: C_21  and  C_14 
REMARK    2  A    between atoms: C_24  and  C_15 
REMARK    3  A    between atoms: N_32  and  C_16 
REMARK    4  A    between atoms: C_22  and  C_27 
REMARK    5  A    between atoms: C_23  and  C_28 
REMARK       I    between atoms: N_32  and  C_27 
REMARK    6  A    between atoms: O_40  and  C_28 
ROOT
HETATM    1  C   UNK N   1      23.121  11.340  12.800  0.00  0.00     0.048 C 
HETATM    2  C   UNK N   1      21.158  12.293  11.579  0.00  0.00     0.007 A 
HETATM    3  C   UNK N   1      20.602  12.956  10.478  0.00  0.00     0.017 A 
HETATM    4  C   UNK N   1      23.404  12.640  10.674  0.00  0.00     0.023 A 
HETATM    5  C   UNK N   1      22.554  12.119  11.671  0.00  0.00    -0.061 A 
HETATM    6  C   UNK N   1      21.467  13.425   9.495  0.00  0.00     0.027 A 
HETATM    7  C   UNK N   1      22.821  13.297   9.591  0.00  0.00     0.028 A 
HETATM    8  C   UNK N   1      22.616  13.953   4.957  0.00  0.00     0.130 C 
HETATM    9  C   UNK N   1      22.352  13.103   6.187  0.00  0.00     0.150 C 
HETATM   10  C   UNK N   1      21.875  15.206   5.450  0.00  0.00     0.170 C 
HETATM   11  C   UNK N   1      21.134  13.997   8.217  0.00  0.00     0.203 C 
HETATM   12  C   UNK N   1      23.439  13.836   8.377  0.00  0.00     0.203 C 
HETATM   13  C   UNK N   1      22.369  14.143   7.336  0.00  0.00     0.205 C 
HETATM   14  O   UNK N   1      19.992  14.233   7.853  0.00  0.00    -0.288 OA
HETATM   15  O   UNK N   1      24.643  13.890   8.182  0.00  0.00    -0.288 OA
HETATM   16  O   UNK N   1      22.392  15.438   6.753  0.00  0.00    -0.352 OA
ENDROOT
BRANCH   8  17
HETATM   17  C   UNK N   1      21.996  13.223   3.786  0.00  0.00     0.230 C 
HETATM   18  N   UNK N   1      22.764  12.607   2.855  0.00  0.00    -0.327 N 
HETATM   19  H   UNK N   1      22.493  11.697   2.592  0.00  0.00     0.169 HD
HETATM   20  O   UNK N   1      20.808  12.949   3.829  0.00  0.00    -0.273 OA
BRANCH  18  21
HETATM   21  C   UNK N   1      23.914  13.135   2.222  0.00  0.00     0.034 C 
HETATM   22  C   UNK N   1      23.804  14.423   1.687  0.00  0.00     0.030 C 
HETATM   23  C   UNK N   1      24.901  15.280   1.686  0.00  0.00     0.016 C 
HETATM   24  C   UNK N   1      26.110  14.859   2.250  0.00  0.00    -0.008 C 
HETATM   25  C   UNK N   1      26.266  13.525   2.643  0.00  0.00     0.016 C 
HETATM   26  C   UNK N   1      25.170  12.664   2.628  0.00  0.00     0.030 C 
BRANCH  24  27
HETATM   27  C   UNK N   1      27.051  15.867   2.770  0.00  0.00     0.063 A 
HETATM   28  C   UNK N   1      26.642  16.917   3.623  0.00  0.00     0.096 A 
HETATM   29  S   UNK N   1      28.079  17.512   4.158  0.00  0.00    -0.010 SA
HETATM   30  N   UNK N   1      29.145  16.537   3.399  0.00  0.00    -0.061 NA
HETATM   31  N   UNK N   1      28.420  15.675   2.676  0.00  0.00    -0.292 N 
ATOM     32  HN  UNK N   1      28.838  14.940   2.105  1.00  0.00     0.183 HD
ENDBRANCH  24  27
ENDBRANCH  18  21
ENDBRANCH   8  17
BRANCH   9  33
HETATM   33  C   UNK N   1      23.201  11.853   6.303  0.00  0.00     0.148 C 
HETATM   34  O   UNK N   1      22.706  10.818   6.722  0.00  0.00    -0.650 OA
BRANCH  33  35
HETATM   35  O   UNK N   1      24.492  11.861   5.920  0.00  0.00    -0.776 OA
HETATM   36  H   UNK N   1      25.321  12.293   5.852  0.00  0.00     0.167 HD
ENDBRANCH  33  35
ENDBRANCH   9  33
BRANCH  10  37
HETATM   37  C   UNK N   1      21.858  16.449   4.598  0.00  0.00    -0.027 A 
HETATM   38  C   UNK N   1      23.051  17.177   4.489  0.00  0.00     0.011 A 
HETATM   39  C   UNK N   1      23.084  18.398   3.820  0.00  0.00     0.026 A 
HETATM   40  C   UNK N   1      21.923  18.914   3.246  0.00  0.00     0.055 A 
HETATM   41  C   UNK N   1      20.719  18.189   3.332  0.00  0.00     0.056 A 
HETATM   42 Cl   UNK N   1      22.007  20.468   2.432  0.00  0.00    -0.083 Cl
HETATM   43  C   UNK N   1      20.688  16.961   4.015  0.00  0.00     0.035 A 
HETATM   44 Cl   UNK N   1      19.241  18.808   2.614  0.00  0.00    -0.083 Cl
ENDBRANCH  10  37
TORSDOF 6
ENDMDL
MODEL 2
REMARK VINA RESULT:      -8.5     13.464     16.419
REMARK  6 active torsions:
REMARK  status: ('A' for Active; 'I' for Inactive)
REMARK    1  A    between atoms: C_21  and  C_14 
REMARK    2  A    between atoms: C_24  and  C_15 
REMARK    3  A    between atoms: N_32  and  C_16 
REMARK    4  A    between atoms: C_22  and  C_27 
REMARK    5  A    between atoms: C_23  and  C_28 
REMARK       I    between atoms: N_32  and  C_27 
REMARK    6  A    between atoms: O_40  and  C_28 
ROOT
HETATM    1  C   UNK N   1      31.848  17.070   5.234  0.00  0.00     0.048 C 
HETATM    2  C   UNK N   1      33.465  17.978   6.911  0.00  0.00     0.007 A 
HETATM    3  C   UNK N   1      34.244  17.836   8.066  0.00  0.00     0.017 A 
HETATM    4  C   UNK N   1      32.492  15.763   7.275  0.00  0.00     0.023 A 
HETATM    5  C   UNK N   1      32.603  16.939   6.504  0.00  0.00    -0.061 A 
HETATM    6  C   UNK N   1      34.137  16.648   8.782  0.00  0.00     0.027 A 
HETATM    7  C   UNK N   1      33.280  15.652   8.421  0.00  0.00     0.028 A 
HETATM    8  C   UNK N   1      36.134  13.044  11.066  0.00  0.00     0.130 C 
HETATM    9  C   UNK N   1      35.866  13.859   9.813  0.00  0.00     0.150 C 
HETATM   10  C   UNK N   1      35.742  14.139  12.072  0.00  0.00     0.170 C 
HETATM   11  C   UNK N   1      34.931  16.209   9.899  0.00  0.00     0.203 C 
HETATM   12  C   UNK N   1      33.447  14.521   9.337  0.00  0.00     0.203 C 
HETATM   13  C   UNK N   1      34.663  14.745  10.228  0.00  0.00     0.205 C 
HETATM   14  O   UNK N   1      35.783  16.896  10.441  0.00  0.00    -0.288 OA
HETATM   15  O   UNK N   1      32.794  13.491   9.288  0.00  0.00    -0.288 OA
HETATM   16  O   UNK N   1      34.472  14.595  11.628  0.00  0.00    -0.352 OA
ENDROOT
BRANCH   8  17
HETATM   17  C   UNK N   1      37.596  12.660  11.028  0.00  0.00     0.230 C 
HETATM   18  N   UNK N   1      38.006  11.414  11.370  0.00  0.00    -0.327 N 
HETATM   19  H   UNK N   1      38.656  10.983  10.769  0.00  0.00     0.169 HD
HETATM   20  O   UNK N   1      38.375  13.378  10.423  0.00  0.00    -0.273 OA
BRANCH  18  21
HETATM   21  C   UNK N   1      37.595  10.669  12.502  0.00  0.00     0.034 C 
HETATM   22  C   UNK N   1      37.397   9.298  12.315  0.00  0.00     0.030 C 
HETATM   23  C   UNK N   1      37.677   8.400  13.342  0.00  0.00     0.016 C 
HETATM   24  C   UNK N   1      38.188   8.874  14.555  0.00  0.00    -0.008 C 
HETATM   25  C   UNK N   1      38.241  10.251  14.797  0.00  0.00     0.016 C 
HETATM   26  C   UNK N   1      37.944  11.147  13.772  0.00  0.00     0.030 C 
BRANCH  24  27
HETATM   27  C   UNK N   1      39.000   7.974  15.394  0.00  0.00     0.063 A 
HETATM   28  C   UNK N   1      40.413   7.995  15.381  0.00  0.00     0.096 A 
HETATM   29  S   UNK N   1      40.789   7.079  16.693  0.00  0.00    -0.010 SA
HETATM   30  N   UNK N   1      39.309   6.684  17.256  0.00  0.00    -0.061 NA
HETATM   31  N   UNK N   1      38.425   7.261  16.433  0.00  0.00    -0.292 N 
ATOM     32  HN  UNK N   1      37.416   7.184  16.561  1.00  0.00     0.183 HD
ENDBRANCH  24  27
ENDBRANCH  18  21
ENDBRANCH   8  17
BRANCH   9  33
HETATM   33  C   UNK N   1      35.793  13.062   8.527  0.00  0.00     0.148 C 
HETATM   34  O   UNK N   1      36.237  13.535   7.492  0.00  0.00    -0.650 OA
BRANCH  33  35
HETATM   35  O   UNK N   1      35.270  11.821   8.516  0.00  0.00    -0.776 OA
HETATM   36  H   UNK N   1      35.263  10.941   8.194  0.00  0.00     0.167 HD
ENDBRANCH  33  35
ENDBRANCH   9  33
BRANCH  10  37
HETATM   37  C   UNK N   1      35.772  13.843  13.550  0.00  0.00    -0.027 A 
HETATM   38  C   UNK N   1      34.936  12.822  14.024  0.00  0.00     0.011 A 
HETATM   39  C   UNK N   1      34.819  12.571  15.389  0.00  0.00     0.026 A 
HETATM   40  C   UNK N   1      35.538  13.337  16.306  0.00  0.00     0.055 A 
HETATM   41  C   UNK N   1      36.394  14.356  15.846  0.00  0.00     0.056 A 
HETATM   42 Cl   UNK N   1      35.341  12.999  18.018  0.00  0.00    -0.083 Cl
HETATM   43  C   UNK N   1      36.503  14.612  14.469  0.00  0.00     0.035 A 
HETATM   44 Cl   UNK N   1      37.317  15.333  16.975  0.00  0.00    -0.083 Cl
ENDBRANCH  10  37
TORSDOF 6
ENDMDL
MODEL 3
REMARK VINA RESULT:      -8.3      8.946     11.591
REMARK  6 active torsions:
REMARK  status: ('A' for Active; 'I' for Inactive)
REMARK    1  A    between atoms: C_21  and  C_14 
REMARK    2  A    between atoms: C_24  and  C_15 
REMARK    3  A    between atoms: N_32  and  C_16 
REMARK    4  A    between atoms: C_22  and  C_27 
REMARK    5  A    between atoms: C_23  and  C_28 
REMARK       I    between atoms: N_32  and  C_27 
REMARK    6  A    between atoms: O_40  and  C_28 
ROOT
HETATM    1  C   UNK N   1      38.214   9.804  11.612  0.00  0.00     0.048 C 
HETATM    2  C   UNK N   1      38.621  11.298   9.649  0.00  0.00     0.007 A 
HETATM    3  C   UNK N   1      38.165  12.195   8.675  0.00  0.00     0.017 A 
HETATM    4  C   UNK N   1      36.326  10.943  10.418  0.00  0.00     0.023 A 
HETATM    5  C   UNK N   1      37.707  10.686  10.531  0.00  0.00    -0.061 A 
HETATM    6  C   UNK N   1      36.800  12.455   8.615  0.00  0.00     0.027 A 
HETATM    7  C   UNK N   1      35.903  11.840   9.437  0.00  0.00     0.028 A 
HETATM    8  C   UNK N   1      33.215  15.491   8.254  0.00  0.00     0.130 C 
HETATM    9  C   UNK N   1      34.419  14.911   8.976  0.00  0.00     0.150 C 
HETATM   10  C   UNK N   1      33.565  14.938   6.863  0.00  0.00     0.170 C 
HETATM   11  C   UNK N   1      36.115  13.436   7.815  0.00  0.00     0.203 C 
HETATM   12  C   UNK N   1      34.564  12.369   9.164  0.00  0.00     0.203 C 
HETATM   13  C   UNK N   1      34.656  13.571   8.232  0.00  0.00     0.205 C 
HETATM   14  O   UNK N   1      36.666  14.139   6.981  0.00  0.00    -0.288 OA
HETATM   15  O   UNK N   1      33.546  11.990   9.721  0.00  0.00    -0.288 OA
HETATM   16  O   UNK N   1      33.825  13.558   7.081  0.00  0.00    -0.352 OA
ENDROOT
BRANCH   8  17
HETATM   17  C   UNK N   1      33.294  16.992   8.420  0.00  0.00     0.230 C 
HETATM   18  N   UNK N   1      32.270  17.694   8.963  0.00  0.00    -0.327 N 
HETATM   19  H   UNK N   1      32.508  18.366   9.642  0.00  0.00     0.169 HD
HETATM   20  O   UNK N   1      34.382  17.536   8.326  0.00  0.00    -0.273 OA
BRANCH  18  21
HETATM   21  C   UNK N   1      30.895  17.563   8.654  0.00  0.00     0.034 C 
HETATM   22  C   UNK N   1      30.009  18.383   9.359  0.00  0.00     0.030 C 
HETATM   23  C   UNK N   1      28.853  18.861   8.747  0.00  0.00     0.016 C 
HETATM   24  C   UNK N   1      28.595  18.540   7.411  0.00  0.00    -0.008 C 
HETATM   25  C   UNK N   1      29.395  17.599   6.754  0.00  0.00     0.016 C 
HETATM   26  C   UNK N   1      30.543  17.110   7.375  0.00  0.00     0.030 C 
BRANCH  24  27
HETATM   27  C   UNK N   1      27.754  19.443   6.604  0.00  0.00     0.063 A 
HETATM   28  C   UNK N   1      27.597  19.288   5.208  0.00  0.00     0.096 A 
HETATM   29  S   UNK N   1      26.342  20.299   4.883  0.00  0.00    -0.010 SA
HETATM   30  N   UNK N   1      25.999  20.889   6.366  0.00  0.00    -0.061 NA
HETATM   31  N   UNK N   1      26.863  20.313   7.211  0.00  0.00    -0.292 N 
ATOM     32  HN  UNK N   1      26.864  20.498   8.214  1.00  0.00     0.183 HD
ENDBRANCH  24  27
ENDBRANCH  18  21
ENDBRANCH   8  17
BRANCH   9  33
HETATM   33  C   UNK N   1      34.329  14.915  10.489  0.00  0.00     0.148 C 
HETATM   34  O   UNK N   1      35.343  15.042  11.158  0.00  0.00    -0.650 OA
BRANCH  33  35
HETATM   35  O   UNK N   1      33.137  14.811  11.107  0.00  0.00    -0.776 OA
HETATM   36  H   UNK N   1      32.312  14.381  11.224  0.00  0.00     0.167 HD
ENDBRANCH  33  35
ENDBRANCH   9  33
BRANCH  10  37
HETATM   37  C   UNK N   1      32.632  15.182   5.705  0.00  0.00    -0.027 A 
HETATM   38  C   UNK N   1      32.865  16.316   4.913  0.00  0.00     0.011 A 
HETATM   39  C   UNK N   1      31.978  16.674   3.901  0.00  0.00     0.026 A 
HETATM   40  C   UNK N   1      30.840  15.903   3.662  0.00  0.00     0.055 A 
HETATM   41  C   UNK N   1      30.599  14.753   4.437  0.00  0.00     0.056 A 
HETATM   42 Cl   UNK N   1      29.737  16.406   2.390  0.00  0.00    -0.083 Cl
HETATM   43  C   UNK N   1      31.492  14.400   5.463  0.00  0.00     0.035 A 
HETATM   44 Cl   UNK N   1      29.180  13.759   4.156  0.00  0.00    -0.083 Cl
ENDBRANCH  10  37
TORSDOF 6
ENDMDL
MODEL 4
REMARK VINA RESULT:      -8.1      4.501      7.916
REMARK  6 active torsions:
REMARK  status: ('A' for Active; 'I' for Inactive)
REMARK    1  A    between atoms: C_21  and  C_14 
REMARK    2  A    between atoms: C_24  and  C_15 
REMARK    3  A    between atoms: N_32  and  C_16 
REMARK    4  A    between atoms: C_22  and  C_27 
REMARK    5  A    between atoms: C_23  and  C_28 
REMARK       I    between atoms: N_32  and  C_27 
REMARK    6  A    between atoms: O_40  and  C_28 
ROOT
HETATM    1  C   UNK N   1      33.244  18.065   8.211  0.00  0.00     0.048 C 
HETATM    2  C   UNK N   1      32.606  17.224   5.945  0.00  0.00     0.007 A 
HETATM    3  C   UNK N   1      31.641  16.823   5.012  0.00  0.00     0.017 A 
HETATM    4  C   UNK N   1      30.874  17.464   7.656  0.00  0.00     0.023 A 
HETATM    5  C   UNK N   1      32.223  17.561   7.260  0.00  0.00    -0.061 A 
HETATM    6  C   UNK N   1      30.314  16.775   5.427  0.00  0.00     0.027 A 
HETATM    7  C   UNK N   1      29.937  17.061   6.705  0.00  0.00     0.028 A 
HETATM    8  C   UNK N   1      25.753  17.704   4.697  0.00  0.00     0.130 C 
HETATM    9  C   UNK N   1      27.193  18.130   4.924  0.00  0.00     0.150 C 
HETATM   10  C   UNK N   1      26.068  16.271   4.236  0.00  0.00     0.170 C 
HETATM   11  C   UNK N   1      29.140  16.542   4.627  0.00  0.00     0.203 C 
HETATM   12  C   UNK N   1      28.478  16.974   6.803  0.00  0.00     0.203 C 
HETATM   13  C   UNK N   1      27.867  16.823   5.415  0.00  0.00     0.205 C 
HETATM   14  O   UNK N   1      29.171  16.258   3.439  0.00  0.00    -0.288 OA
HETATM   15  O   UNK N   1      27.844  17.148   7.833  0.00  0.00    -0.288 OA
HETATM   16  O   UNK N   1      26.944  15.759   5.231  0.00  0.00    -0.352 OA
ENDROOT
BRANCH   8  17
HETATM   17  C   UNK N   1      25.186  18.637   3.650  0.00  0.00     0.230 C 
HETATM   18  N   UNK N   1      24.040  19.325   3.868  0.00  0.00    -0.327 N 
HETATM   19  H   UNK N   1      24.046  20.280   3.627  0.00  0.00     0.169 HD
HETATM   20  O   UNK N   1      25.903  18.985   2.726  0.00  0.00    -0.273 OA
BRANCH  18  21
HETATM   21  C   UNK N   1      22.835  18.813   4.406  0.00  0.00     0.034 C 
HETATM   22  C   UNK N   1      21.713  18.834   3.571  0.00  0.00     0.030 C 
HETATM   23  C   UNK N   1      20.754  17.828   3.655  0.00  0.00     0.016 C 
HETATM   24  C   UNK N   1      20.932  16.777   4.561  0.00  0.00    -0.008 C 
HETATM   25  C   UNK N   1      21.968  16.835   5.499  0.00  0.00     0.016 C 
HETATM   26  C   UNK N   1      22.918  17.852   5.423  0.00  0.00     0.030 C 
BRANCH  24  27
HETATM   27  C   UNK N   1      20.295  15.476   4.287  0.00  0.00     0.063 A 
HETATM   28  C   UNK N   1      20.017  14.538   5.306  0.00  0.00     0.096 A 
HETATM   29  S   UNK N   1      19.036  13.466   4.537  0.00  0.00    -0.010 SA
HETATM   30  N   UNK N   1      18.944  14.114   3.042  0.00  0.00    -0.061 NA
HETATM   31  N   UNK N   1      19.688  15.227   3.067  0.00  0.00    -0.292 N 
ATOM     32  HN  UNK N   1      19.797  15.838   2.258  1.00  0.00     0.183 HD
ENDBRANCH  24  27
ENDBRANCH  18  21
ENDBRANCH   8  17
BRANCH   9  33
HETATM   33  C   UNK N   1      27.371  19.404   5.725  0.00  0.00     0.148 C 
HETATM   34  O   UNK N   1      28.153  20.260   5.341  0.00  0.00    -0.650 OA
BRANCH  33  35
HETATM   35  O   UNK N   1      26.651  19.620   6.843  0.00  0.00    -0.776 OA
HETATM   36  H   UNK N   1      25.997  19.350   7.457  0.00  0.00     0.167 HD
ENDBRANCH  33  35
ENDBRANCH   9  33
BRANCH  10  37
HETATM   37  C   UNK N   1      24.941  15.326   3.908  0.00  0.00    -0.027 A 
HETATM   38  C   UNK N   1      24.654  14.313   4.833  0.00  0.00     0.011 A 
HETATM   39  C   UNK N   1      23.709  13.331   4.547  0.00  0.00     0.026 A 
HETATM   40  C   UNK N   1      23.032  13.345   3.328  0.00  0.00     0.055 A 
HETATM   41  C   UNK N   1      23.297  14.364   2.393  0.00  0.00     0.056 A 
HETATM   42 Cl   UNK N   1      21.866  12.072   3.000  0.00  0.00    -0.083 Cl
HETATM   43  C   UNK N   1      24.257  15.348   2.682  0.00  0.00     0.035 A 
HETATM   44 Cl   UNK N   1      22.456  14.413   0.852  0.00  0.00    -0.083 Cl
ENDBRANCH  10  37
TORSDOF 6
ENDMDL
MODEL 5
REMARK VINA RESULT:      -7.9      6.980      9.973
REMARK  6 active torsions:
REMARK  status: ('A' for Active; 'I' for Inactive)
REMARK    1  A    between atoms: C_21  and  C_14 
REMARK    2  A    between atoms: C_24  and  C_15 
REMARK    3  A    between atoms: N_32  and  C_16 
REMARK    4  A    between atoms: C_22  and  C_27 
REMARK    5  A    between atoms: C_23  and  C_28 
REMARK       I    between atoms: N_32  and  C_27 
REMARK    6  A    between atoms: O_40  and  C_28 
ROOT
HETATM    1  C   UNK N   1      37.425  14.242  10.486  0.00  0.00     0.048 C 
HETATM    2  C   UNK N   1      37.147  13.809   8.040  0.00  0.00     0.007 A 
HETATM    3  C   UNK N   1      36.358  13.764   6.883  0.00  0.00     0.017 A 
HETATM    4  C   UNK N   1      35.175  14.342   9.385  0.00  0.00     0.023 A 
HETATM    5  C   UNK N   1      36.562  14.114   9.286  0.00  0.00    -0.061 A 
HETATM    6  C   UNK N   1      34.999  14.030   7.011  0.00  0.00     0.027 A 
HETATM    7  C   UNK N   1      34.415  14.289   8.215  0.00  0.00     0.028 A 
HETATM    8  C   UNK N   1      31.087  16.194   5.524  0.00  0.00     0.130 C 
HETATM    9  C   UNK N   1      32.494  16.202   6.096  0.00  0.00     0.150 C 
HETATM   10  C   UNK N   1      31.150  14.777   4.932  0.00  0.00     0.170 C 
HETATM   11  C   UNK N   1      34.022  14.189   5.967  0.00  0.00     0.203 C 
HETATM   12  C   UNK N   1      32.996  14.583   8.005  0.00  0.00     0.203 C 
HETATM   13  C   UNK N   1      32.705  14.724   6.516  0.00  0.00     0.205 C 
HETATM   14  O   UNK N   1      34.259  14.016   4.781  0.00  0.00    -0.288 OA
HETATM   15  O   UNK N   1      32.201  14.824   8.900  0.00  0.00    -0.288 OA
HETATM   16  O   UNK N   1      31.624  13.964   5.996  0.00  0.00    -0.352 OA
ENDROOT
BRANCH   8  17
HETATM   17  C   UNK N   1      31.017  17.334   4.533  0.00  0.00     0.230 C 
HETATM   18  N   UNK N   1      30.066  18.294   4.631  0.00  0.00    -0.327 N 
HETATM   19  H   UNK N   1      30.367  19.226   4.532  0.00  0.00     0.169 HD
HETATM   20  O   UNK N   1      31.980  17.547   3.815  0.00  0.00    -0.273 OA
BRANCH  18  21
HETATM   21  C   UNK N   1      28.683  18.095   4.861  0.00  0.00     0.034 C 
HETATM   22  C   UNK N   1      28.003  19.116   5.533  0.00  0.00     0.030 C 
HETATM   23  C   UNK N   1      26.672  19.392   5.231  0.00  0.00     0.016 C 
HETATM   24  C   UNK N   1      26.024  18.662   4.229  0.00  0.00    -0.008 C 
HETATM   25  C   UNK N   1      26.651  17.545   3.667  0.00  0.00     0.016 C 
HETATM   26  C   UNK N   1      27.978  17.261   3.983  0.00  0.00     0.030 C 
BRANCH  24  27
HETATM   27  C   UNK N   1      24.887  19.272   3.516  0.00  0.00     0.063 A 
HETATM   28  C   UNK N   1      23.543  19.011   3.865  0.00  0.00     0.096 A 
HETATM   29  S   UNK N   1      22.731  20.162   3.019  0.00  0.00    -0.010 SA
HETATM   30  N   UNK N   1      23.951  20.947   2.272  0.00  0.00    -0.061 NA
HETATM   31  N   UNK N   1      25.082  20.341   2.655  0.00  0.00    -0.292 N 
ATOM     32  HN  UNK N   1      26.005  20.639   2.342  1.00  0.00     0.183 HD
ENDBRANCH  24  27
ENDBRANCH  18  21
ENDBRANCH   8  17
BRANCH   9  33
HETATM   33  C   UNK N   1      32.779  17.306   7.095  0.00  0.00     0.148 C 
HETATM   34  O   UNK N   1      33.852  17.889   7.067  0.00  0.00    -0.650 OA
BRANCH  33  35
HETATM   35  O   UNK N   1      31.849  17.676   7.995  0.00  0.00    -0.776 OA
HETATM   36  H   UNK N   1      31.498  18.304   8.596  0.00  0.00     0.167 HD
ENDBRANCH  33  35
ENDBRANCH   9  33
BRANCH  10  37
HETATM   37  C   UNK N   1      29.938  14.197   4.249  0.00  0.00    -0.027 A 
HETATM   38  C   UNK N   1      29.908  14.224   2.847  0.00  0.00     0.011 A 
HETATM   39  C   UNK N   1      28.774  13.818   2.149  0.00  0.00     0.026 A 
HETATM   40  C   UNK N   1      27.646  13.377   2.840  0.00  0.00     0.055 A 
HETATM   41  C   UNK N   1      27.664  13.329   4.248  0.00  0.00     0.056 A 
HETATM   42 Cl   UNK N   1      26.230  12.898   1.918  0.00  0.00    -0.083 Cl
HETATM   43  C   UNK N   1      28.808  13.747   4.949  0.00  0.00     0.035 A 
HETATM   44 Cl   UNK N   1      26.263  12.772   5.147  0.00  0.00    -0.083 Cl
ENDBRANCH  10  37
TORSDOF 6
ENDMDL
MODEL 6
REMARK VINA RESULT:      -7.8      7.003      9.777
REMARK  6 active torsions:
REMARK  status: ('A' for Active; 'I' for Inactive)
REMARK    1  A    between atoms: C_21  and  C_14 
REMARK    2  A    between atoms: C_24  and  C_15 
REMARK    3  A    between atoms: N_32  and  C_16 
REMARK    4  A    between atoms: C_22  and  C_27 
REMARK    5  A    between atoms: C_23  and  C_28 
REMARK       I    between atoms: N_32  and  C_27 
REMARK    6  A    between atoms: O_40  and  C_28 
ROOT
HETATM    1  C   UNK N   1      36.135  15.046  12.250  0.00  0.00     0.048 C 
HETATM    2  C   UNK N   1      36.456  14.372   9.864  0.00  0.00     0.007 A 
HETATM    3  C   UNK N   1      35.964  14.177   8.568  0.00  0.00     0.017 A 
HETATM    4  C   UNK N   1      34.207  14.921  10.653  0.00  0.00     0.023 A 
HETATM    5  C   UNK N   1      35.585  14.760  10.903  0.00  0.00    -0.061 A 
HETATM    6  C   UNK N   1      34.605  14.380   8.349  0.00  0.00     0.027 A 
HETATM    7  C   UNK N   1      33.746  14.718   9.352  0.00  0.00     0.028 A 
HETATM    8  C   UNK N   1      31.090  16.181   5.781  0.00  0.00     0.130 C 
HETATM    9  C   UNK N   1      32.322  16.319   6.659  0.00  0.00     0.150 C 
HETATM   10  C   UNK N   1      31.335  14.721   5.368  0.00  0.00     0.170 C 
HETATM   11  C   UNK N   1      33.898  14.389   7.095  0.00  0.00     0.203 C 
HETATM   12  C   UNK N   1      32.408  14.914   8.789  0.00  0.00     0.203 C 
HETATM   13  C   UNK N   1      32.473  14.900   7.266  0.00  0.00     0.205 C 
HETATM   14  O   UNK N   1      34.413  14.119   6.021  0.00  0.00    -0.288 OA
HETATM   15  O   UNK N   1      31.417  15.194   9.446  0.00  0.00    -0.288 OA
HETATM   16  O   UNK N   1      31.569  14.037   6.592  0.00  0.00    -0.352 OA
ENDROOT
BRANCH   8  17
HETATM   17  C   UNK N   1      31.221  17.219   4.688  0.00  0.00     0.230 C 
HETATM   18  N   UNK N   1      30.290  18.190   4.525  0.00  0.00    -0.327 N 
HETATM   19  H   UNK N   1      30.625  19.106   4.392  0.00  0.00     0.169 HD
HETATM   20  O   UNK N   1      32.300  17.354   4.134  0.00  0.00    -0.273 OA
BRANCH  18  21
HETATM   21  C   UNK N   1      28.884  18.022   4.525  0.00  0.00     0.034 C 
HETATM   22  C   UNK N   1      28.356  17.127   3.589  0.00  0.00     0.030 C 
HETATM   23  C   UNK N   1      27.225  16.375   3.896  0.00  0.00     0.016 C 
HETATM   24  C   UNK N   1      26.633  16.497   5.158  0.00  0.00    -0.008 C 
HETATM   25  C   UNK N   1      27.065  17.499   6.034  0.00  0.00     0.016 C 
HETATM   26  C   UNK N   1      28.188  18.261   5.718  0.00  0.00     0.030 C 
BRANCH  24  27
HETATM   27  C   UNK N   1      25.853  15.369   5.698  0.00  0.00     0.063 A 
HETATM   28  C   UNK N   1      25.946  14.960   7.048  0.00  0.00     0.096 A 
HETATM   29  S   UNK N   1      24.668  13.936   7.192  0.00  0.00    -0.010 SA
HETATM   30  N   UNK N   1      24.026  13.994   5.693  0.00  0.00    -0.061 NA
HETATM   31  N   UNK N   1      24.790  14.837   4.986  0.00  0.00    -0.292 N 
ATOM     32  HN  UNK N   1      24.606  15.066   4.010  1.00  0.00     0.183 HD
ENDBRANCH  24  27
ENDBRANCH  18  21
ENDBRANCH   8  17
BRANCH   9  33
HETATM   33  C   UNK N   1      32.329  17.525   7.577  0.00  0.00     0.148 C 
HETATM   34  O   UNK N   1      33.359  18.163   7.735  0.00  0.00    -0.650 OA
BRANCH  33  35
HETATM   35  O   UNK N   1      31.203  17.922   8.199  0.00  0.00    -0.776 OA
HETATM   36  H   UNK N   1      30.269  17.995   8.230  0.00  0.00     0.167 HD
ENDBRANCH  33  35
ENDBRANCH   9  33
BRANCH  10  37
HETATM   37  C   UNK N   1      30.336  14.016   4.486  0.00  0.00    -0.027 A 
HETATM   38  C   UNK N   1      30.501  14.131   3.099  0.00  0.00     0.011 A 
HETATM   39  C   UNK N   1      29.554  13.610   2.221  0.00  0.00     0.026 A 
HETATM   40  C   UNK N   1      28.423  12.962   2.716  0.00  0.00     0.055 A 
HETATM   41  C   UNK N   1      28.248  12.824   4.106  0.00  0.00     0.056 A 
HETATM   42 Cl   UNK N   1      27.243  12.342   1.572  0.00  0.00    -0.083 Cl
HETATM   43  C   UNK N   1      29.202  13.359   4.989  0.00  0.00     0.035 A 
HETATM   44 Cl   UNK N   1      26.838  12.008   4.760  0.00  0.00    -0.083 Cl
ENDBRANCH  10  37
TORSDOF 6
ENDMDL
MODEL 7
REMARK VINA RESULT:      -7.7      4.556      7.874
REMARK  6 active torsions:
REMARK  status: ('A' for Active; 'I' for Inactive)
REMARK    1  A    between atoms: C_21  and  C_14 
REMARK    2  A    between atoms: C_24  and  C_15 
REMARK    3  A    between atoms: N_32  and  C_16 
REMARK    4  A    between atoms: C_22  and  C_27 
REMARK    5  A    between atoms: C_23  and  C_28 
REMARK       I    between atoms: N_32  and  C_27 
REMARK    6  A    between atoms: O_40  and  C_28 
ROOT
HETATM    1  C   UNK N   1      33.192  18.313   8.080  0.00  0.00     0.048 C 
HETATM    2  C   UNK N   1      32.622  16.678   6.277  0.00  0.00     0.007 A 
HETATM    3  C   UNK N   1      31.689  15.925   5.553  0.00  0.00     0.017 A 
HETATM    4  C   UNK N   1      30.855  17.456   7.778  0.00  0.00     0.023 A 
HETATM    5  C   UNK N   1      32.206  17.455   7.377  0.00  0.00    -0.061 A 
HETATM    6  C   UNK N   1      30.358  15.978   5.954  0.00  0.00     0.027 A 
HETATM    7  C   UNK N   1      29.949  16.695   7.039  0.00  0.00     0.028 A 
HETATM    8  C   UNK N   1      25.779  16.391   4.927  0.00  0.00     0.130 C 
HETATM    9  C   UNK N   1      27.198  16.929   4.985  0.00  0.00     0.150 C 
HETATM   10  C   UNK N   1      26.154  14.903   5.022  0.00  0.00     0.170 C 
HETATM   11  C   UNK N   1      29.207  15.422   5.292  0.00  0.00     0.203 C 
HETATM   12  C   UNK N   1      28.493  16.592   7.159  0.00  0.00     0.203 C 
HETATM   13  C   UNK N   1      27.912  15.920   5.921  0.00  0.00     0.205 C 
HETATM   14  O   UNK N   1      29.268  14.725   4.290  0.00  0.00    -0.288 OA
HETATM   15  O   UNK N   1      27.837  17.104   8.052  0.00  0.00    -0.288 OA
HETATM   16  O   UNK N   1      27.032  14.826   6.137  0.00  0.00    -0.352 OA
ENDROOT
BRANCH   8  17
HETATM   17  C   UNK N   1      25.195  16.854   3.610  0.00  0.00     0.230 C 
HETATM   18  N   UNK N   1      24.044  17.567   3.562  0.00  0.00    -0.327 N 
HETATM   19  H   UNK N   1      24.040  18.359   2.977  0.00  0.00     0.169 HD
HETATM   20  O   UNK N   1      25.901  16.829   2.615  0.00  0.00    -0.273 OA
BRANCH  18  21
HETATM   21  C   UNK N   1      22.848  17.291   4.267  0.00  0.00     0.034 C 
HETATM   22  C   UNK N   1      22.237  16.059   4.013  0.00  0.00     0.030 C 
HETATM   23  C   UNK N   1      21.553  15.391   5.026  0.00  0.00     0.016 C 
HETATM   24  C   UNK N   1      21.504  15.945   6.310  0.00  0.00    -0.008 C 
HETATM   25  C   UNK N   1      21.979  17.243   6.526  0.00  0.00     0.016 C 
HETATM   26  C   UNK N   1      22.649  17.916   5.506  0.00  0.00     0.030 C 
BRANCH  24  27
HETATM   27  C   UNK N   1      21.318  15.054   7.470  0.00  0.00     0.063 A 
HETATM   28  C   UNK N   1      21.078  15.546   8.773  0.00  0.00     0.096 A 
HETATM   29  S   UNK N   1      20.620  14.190   9.580  0.00  0.00    -0.010 SA
HETATM   30  N   UNK N   1      20.699  13.061   8.404  0.00  0.00    -0.061 NA
HETATM   31  N   UNK N   1      21.093  13.699   7.294  0.00  0.00    -0.292 N 
ATOM     32  HN  UNK N   1      21.215  13.228   6.398  1.00  0.00     0.183 HD
ENDBRANCH  24  27
ENDBRANCH  18  21
ENDBRANCH   8  17
BRANCH   9  33
HETATM   33  C   UNK N   1      27.316  18.414   5.265  0.00  0.00     0.148 C 
HETATM   34  O   UNK N   1      28.186  19.070   4.714  0.00  0.00    -0.650 OA
BRANCH  33  35
HETATM   35  O   UNK N   1      26.449  19.028   6.093  0.00  0.00    -0.776 OA
HETATM   36  H   UNK N   1      25.579  19.300   6.308  0.00  0.00     0.167 HD
ENDBRANCH  33  35
ENDBRANCH   9  33
BRANCH  10  37
HETATM   37  C   UNK N   1      25.067  13.859   5.060  0.00  0.00    -0.027 A 
HETATM   38  C   UNK N   1      24.753  13.296   6.305  0.00  0.00     0.011 A 
HETATM   39  C   UNK N   1      23.847  12.243   6.403  0.00  0.00     0.026 A 
HETATM   40  C   UNK N   1      23.238  11.733   5.257  0.00  0.00     0.055 A 
HETATM   41  C   UNK N   1      23.532  12.296   4.000  0.00  0.00     0.056 A 
HETATM   42 Cl   UNK N   1      22.121  10.388   5.427  0.00  0.00    -0.083 Cl
HETATM   43  C   UNK N   1      24.452  13.354   3.904  0.00  0.00     0.035 A 
HETATM   44 Cl   UNK N   1      22.777  11.681   2.539  0.00  0.00    -0.083 Cl
ENDBRANCH  10  37
TORSDOF 6
ENDMDL
MODEL 8
REMARK VINA RESULT:      -7.7     12.301     14.708
REMARK  6 active torsions:
REMARK  status: ('A' for Active; 'I' for Inactive)
REMARK    1  A    between atoms: C_21  and  C_14 
REMARK    2  A    between atoms: C_24  and  C_15 
REMARK    3  A    between atoms: N_32  and  C_16 
REMARK    4  A    between atoms: C_22  and  C_27 
REMARK    5  A    between atoms: C_23  and  C_28 
REMARK       I    between atoms: N_32  and  C_27 
REMARK    6  A    between atoms: O_40  and  C_28 
ROOT
HETATM    1  C   UNK N   1      35.517  12.552  20.006  0.00  0.00     0.048 C 
HETATM    2  C   UNK N   1      35.512  10.317  18.886  0.00  0.00     0.007 A 
HETATM    3  C   UNK N   1      35.412   9.519  17.739  0.00  0.00     0.017 A 
HETATM    4  C   UNK N   1      35.001  12.311  17.564  0.00  0.00     0.023 A 
HETATM    5  C   UNK N   1      35.324  11.712  18.799  0.00  0.00    -0.061 A 
HETATM    6  C   UNK N   1      35.128  10.148  16.531  0.00  0.00     0.027 A 
HETATM    7  C   UNK N   1      34.907  11.490  16.440  0.00  0.00     0.028 A 
HETATM    8  C   UNK N   1      35.952  10.756  11.933  0.00  0.00     0.130 C 
HETATM    9  C   UNK N   1      36.363  10.825  13.393  0.00  0.00     0.150 C 
HETATM   10  C   UNK N   1      34.808   9.747  12.123  0.00  0.00     0.170 C 
HETATM   11  C   UNK N   1      35.123   9.576  15.211  0.00  0.00     0.203 C 
HETATM   12  C   UNK N   1      34.694  11.844  15.035  0.00  0.00     0.203 C 
HETATM   13  C   UNK N   1      35.015  10.654  14.139  0.00  0.00     0.205 C 
HETATM   14  O   UNK N   1      35.290   8.387  14.983  0.00  0.00    -0.288 OA
HETATM   15  O   UNK N   1      34.442  12.972  14.638  0.00  0.00    -0.288 OA
HETATM   16  O   UNK N   1      34.030  10.284  13.185  0.00  0.00    -0.352 OA
ENDROOT
BRANCH   8  17
HETATM   17  C   UNK N   1      37.161  10.263  11.167  0.00  0.00     0.230 C 
HETATM   18  N   UNK N   1      37.943  11.117  10.464  0.00  0.00    -0.327 N 
HETATM   19  H   UNK N   1      38.916  11.017  10.575  0.00  0.00     0.169 HD
HETATM   20  O   UNK N   1      37.594   9.149  11.410  0.00  0.00    -0.273 OA
BRANCH  18  21
HETATM   21  C   UNK N   1      37.506  12.137   9.585  0.00  0.00     0.034 C 
HETATM   22  C   UNK N   1      36.511  11.791   8.665  0.00  0.00     0.030 C 
HETATM   23  C   UNK N   1      35.558  12.729   8.274  0.00  0.00     0.016 C 
HETATM   24  C   UNK N   1      35.582  14.013   8.829  0.00  0.00    -0.008 C 
HETATM   25  C   UNK N   1      36.662  14.405   9.627  0.00  0.00     0.016 C 
HETATM   26  C   UNK N   1      37.623  13.469  10.004  0.00  0.00     0.030 C 
BRANCH  24  27
HETATM   27  C   UNK N   1      34.332  14.792   8.892  0.00  0.00     0.063 A 
HETATM   28  C   UNK N   1      34.053  15.851   7.998  0.00  0.00     0.096 A 
HETATM   29  S   UNK N   1      32.457  16.131   8.276  0.00  0.00    -0.010 SA
HETATM   30  N   UNK N   1      32.118  15.015   9.418  0.00  0.00    -0.061 NA
HETATM   31  N   UNK N   1      33.257  14.348   9.645  0.00  0.00    -0.292 N 
ATOM     32  HN  UNK N   1      33.327  13.581  10.313  1.00  0.00     0.183 HD
ENDBRANCH  24  27
ENDBRANCH  18  21
ENDBRANCH   8  17
BRANCH   9  33
HETATM   33  C   UNK N   1      37.270  11.984  13.755  0.00  0.00     0.148 C 
HETATM   34  O   UNK N   1      38.203  11.809  14.524  0.00  0.00    -0.650 OA
BRANCH  33  35
HETATM   35  O   UNK N   1      37.079  13.202  13.213  0.00  0.00    -0.776 OA
HETATM   36  H   UNK N   1      37.129  14.136  13.266  0.00  0.00     0.167 HD
ENDBRANCH  33  35
ENDBRANCH   9  33
BRANCH  10  37
HETATM   37  C   UNK N   1      33.973   9.332  10.939  0.00  0.00    -0.027 A 
HETATM   38  C   UNK N   1      33.442  10.348  10.131  0.00  0.00     0.011 A 
HETATM   39  C   UNK N   1      32.564  10.049   9.092  0.00  0.00     0.026 A 
HETATM   40  C   UNK N   1      32.200   8.727   8.842  0.00  0.00     0.055 A 
HETATM   41  C   UNK N   1      32.735   7.692   9.633  0.00  0.00     0.056 A 
HETATM   42 Cl   UNK N   1      31.072   8.400   7.536  0.00  0.00    -0.083 Cl
HETATM   43  C   UNK N   1      33.615   7.999  10.686  0.00  0.00     0.035 A 
HETATM   44 Cl   UNK N   1      32.302   6.017   9.338  0.00  0.00    -0.083 Cl
ENDBRANCH  10  37
TORSDOF 6
ENDMDL
MODEL 9
REMARK VINA RESULT:      -7.6      3.214      6.710
REMARK  6 active torsions:
REMARK  status: ('A' for Active; 'I' for Inactive)
REMARK    1  A    between atoms: C_21  and  C_14 
REMARK    2  A    between atoms: C_24  and  C_15 
REMARK    3  A    between atoms: N_32  and  C_16 
REMARK    4  A    between atoms: C_22  and  C_27 
REMARK    5  A    between atoms: C_23  and  C_28 
REMARK       I    between atoms: N_32  and  C_27 
REMARK    6  A    between atoms: O_40  and  C_28 
ROOT
HETATM    1  C   UNK N   1      20.660  20.904   1.207  0.00  0.00     0.048 C 
HETATM    2  C   UNK N   1      22.689  20.481   2.605  0.00  0.00     0.007 A 
HETATM    3  C   UNK N   1      23.412  19.696   3.512  0.00  0.00     0.017 A 
HETATM    4  C   UNK N   1      20.777  18.967   2.795  0.00  0.00     0.023 A 
HETATM    5  C   UNK N   1      21.380  20.110   2.232  0.00  0.00    -0.061 A 
HETATM    6  C   UNK N   1      22.799  18.555   4.019  0.00  0.00     0.027 A 
HETATM    7  C   UNK N   1      21.522  18.206   3.696  0.00  0.00     0.028 A 
HETATM    8  C   UNK N   1      22.939  13.981   5.141  0.00  0.00     0.130 C 
HETATM    9  C   UNK N   1      22.983  15.122   4.140  0.00  0.00     0.150 C 
HETATM   10  C   UNK N   1      23.269  14.827   6.381  0.00  0.00     0.170 C 
HETATM   11  C   UNK N   1      23.380  17.522   4.836  0.00  0.00     0.203 C 
HETATM   12  C   UNK N   1      21.195  16.934   4.344  0.00  0.00     0.203 C 
HETATM   13  C   UNK N   1      22.448  16.324   4.961  0.00  0.00     0.205 C 
HETATM   14  O   UNK N   1      24.518  17.565   5.280  0.00  0.00    -0.288 OA
HETATM   15  O   UNK N   1      20.110  16.379   4.268  0.00  0.00    -0.288 OA
HETATM   16  O   UNK N   1      22.364  15.921   6.321  0.00  0.00    -0.352 OA
ENDROOT
BRANCH   8  17
HETATM   17  C   UNK N   1      23.991  12.985   4.707  0.00  0.00     0.230 C 
HETATM   18  N   UNK N   1      25.311  13.232   4.890  0.00  0.00    -0.327 N 
HETATM   19  H   UNK N   1      25.850  12.496   5.261  0.00  0.00     0.169 HD
HETATM   20  O   UNK N   1      23.646  11.843   4.451  0.00  0.00    -0.273 OA
BRANCH  18  21
HETATM   21  C   UNK N   1      25.994  14.438   4.603  0.00  0.00     0.034 C 
HETATM   22  C   UNK N   1      26.754  14.992   5.638  0.00  0.00     0.030 C 
HETATM   23  C   UNK N   1      27.932  15.681   5.355  0.00  0.00     0.016 C 
HETATM   24  C   UNK N   1      28.368  15.791   4.030  0.00  0.00    -0.008 C 
HETATM   25  C   UNK N   1      27.535  15.373   2.987  0.00  0.00     0.016 C 
HETATM   26  C   UNK N   1      26.349  14.698   3.273  0.00  0.00     0.030 C 
BRANCH  24  27
HETATM   27  C   UNK N   1      29.805  15.978   3.760  0.00  0.00     0.063 A 
HETATM   28  C   UNK N   1      30.800  15.170   4.355  0.00  0.00     0.096 A 
HETATM   29  S   UNK N   1      32.136  15.562   3.481  0.00  0.00    -0.010 SA
HETATM   30  N   UNK N   1      31.535  16.651   2.425  0.00  0.00    -0.061 NA
HETATM   31  N   UNK N   1      30.230  16.766   2.703  0.00  0.00    -0.292 N 
ATOM     32  HN  UNK N   1      29.605  17.380   2.182  1.00  0.00     0.183 HD
ENDBRANCH  24  27
ENDBRANCH  18  21
ENDBRANCH   8  17
BRANCH   9  33
HETATM   33  C   UNK N   1      22.373  14.818   2.786  0.00  0.00     0.148 C 
HETATM   34  O   UNK N   1      22.915  15.226   1.770  0.00  0.00    -0.650 OA
BRANCH  33  35
HETATM   35  O   UNK N   1      21.255  14.074   2.687  0.00  0.00    -0.776 OA
HETATM   36  H   UNK N   1      20.640  13.472   3.056  0.00  0.00     0.167 HD
ENDBRANCH  33  35
ENDBRANCH   9  33
BRANCH  10  37
HETATM   37  C   UNK N   1      23.310  14.177   7.741  0.00  0.00    -0.027 A 
HETATM   38  C   UNK N   1      24.559  13.759   8.222  0.00  0.00     0.011 A 
HETATM   39  C   UNK N   1      24.662  13.044   9.413  0.00  0.00     0.026 A 
HETATM   40  C   UNK N   1      23.517  12.735  10.145  0.00  0.00     0.055 A 
HETATM   41  C   UNK N   1      22.256  13.159   9.684  0.00  0.00     0.056 A 
HETATM   42 Cl   UNK N   1      23.694  11.811  11.629  0.00  0.00    -0.083 Cl
HETATM   43  C   UNK N   1      22.155  13.873   8.478  0.00  0.00     0.035 A 
HETATM   44 Cl   UNK N   1      20.796  12.791  10.588  0.00  0.00    -0.083 Cl
ENDBRANCH  10  37
TORSDOF 6
ENDMDL
