MODEL 1
REMARK VINA RESULT:      -6.7      0.000      0.000
REMARK  4 active torsions:
REMARK  status: ('A' for Active; 'I' for Inactive)
REMARK    1  A    between atoms: C_2  and  C_15 
REMARK    2  A    between atoms: C_8  and  C_18 
REMARK    3  A    between atoms: C_15  and  O_16 
REMARK    4  A    between atoms: O_17  and  C_18 
ROOT
HETATM    1  C   UNK N   1      29.877  22.076  -4.376  0.00  0.00     0.021 A 
HETATM    2  C   UNK N   1      29.210  23.047  -3.597  0.00  0.00     0.072 A 
HETATM    3  C   UNK N   1      28.424  23.976  -4.273  0.00  0.00     0.104 A 
HETATM    4  C   UNK N   1      28.288  23.967  -5.643  0.00  0.00     0.012 A 
HETATM    5  C   UNK N   1      28.933  23.022  -6.437  0.00  0.00     0.015 A 
HETATM    6  C   UNK N   1      29.738  22.066  -5.785  0.00  0.00     0.002 A 
HETATM    7  O   UNK N   1      27.722  24.958  -3.751  0.00  0.00    -0.307 OA
HETATM    8  C   UNK N   1      26.286  26.701  -4.642  0.00  0.00     0.072 A 
HETATM    9  C   UNK N   1      27.129  25.594  -4.735  0.00  0.00     0.104 A 
HETATM   10  C   UNK N   1      27.449  25.015  -5.944  0.00  0.00     0.012 A 
HETATM   11  C   UNK N   1      26.947  25.505  -7.146  0.00  0.00     0.015 A 
HETATM   12  C   UNK N   1      26.092  26.623  -7.087  0.00  0.00     0.002 A 
HETATM   13  C   UNK N   1      25.763  27.218  -5.845  0.00  0.00     0.021 A 
ENDROOT
BRANCH   2  14
HETATM   14  C   UNK N   1      29.339  23.079  -2.123  0.00  0.00     0.179 C 
HETATM   15  O   UNK N   1      30.440  23.081  -1.600  0.00  0.00    -0.646 OA
BRANCH  14  16
HETATM   16  O   UNK N   1      28.238  23.107  -1.342  0.00  0.00    -0.773 OA
HETATM   17  H   UNK N   1      27.940  22.323  -0.926  0.00  0.00     0.167 HD
ENDBRANCH  14  16
ENDBRANCH   2  14
BRANCH   8  18
HETATM   18  C   UNK N   1      25.954  27.308  -3.333  0.00  0.00     0.179 C 
HETATM   19  O   UNK N   1      25.494  28.438  -3.272  0.00  0.00    -0.646 OA
BRANCH  18  20
HETATM   20  O   UNK N   1      26.159  26.616  -2.196  0.00  0.00    -0.773 OA
HETATM   21  H   UNK N   1      25.987  25.694  -2.171  0.00  0.00     0.167 HD
ENDBRANCH  18  20
ENDBRANCH   8  18
TORSDOF 4
ENDMDL
MODEL 2
REMARK VINA RESULT:      -6.6     13.068     14.484
REMARK  4 active torsions:
REMARK  status: ('A' for Active; 'I' for Inactive)
REMARK    1  A    between atoms: C_2  and  C_15 
REMARK    2  A    between atoms: C_8  and  C_18 
REMARK    3  A    between atoms: C_15  and  O_16 
REMARK    4  A    between atoms: O_17  and  C_18 
ROOT
HETATM    1  C   UNK N   1      27.145  16.849   6.827  0.00  0.00     0.021 A 
HETATM    2  C   UNK N   1      28.274  17.179   7.609  0.00  0.00     0.072 A 
HETATM    3  C   UNK N   1      29.512  17.168   6.976  0.00  0.00     0.104 A 
HETATM    4  C   UNK N   1      29.656  16.853   5.643  0.00  0.00     0.012 A 
HETATM    5  C   UNK N   1      28.562  16.524   4.847  0.00  0.00     0.015 A 
HETATM    6  C   UNK N   1      27.290  16.524   5.456  0.00  0.00     0.002 A 
HETATM    7  O   UNK N   1      30.684  17.441   7.508  0.00  0.00    -0.307 OA
HETATM    8  C   UNK N   1      32.968  17.509   6.687  0.00  0.00     0.072 A 
HETATM    9  C   UNK N   1      31.592  17.315   6.568  0.00  0.00     0.104 A 
HETATM   10  C   UNK N   1      31.003  16.948   5.378  0.00  0.00     0.012 A 
HETATM   11  C   UNK N   1      31.751  16.748   4.222  0.00  0.00     0.015 A 
HETATM   12  C   UNK N   1      33.145  16.936   4.307  0.00  0.00     0.002 A 
HETATM   13  C   UNK N   1      33.750  17.314   5.531  0.00  0.00     0.021 A 
ENDROOT
BRANCH   2  14
HETATM   14  C   UNK N   1      28.147  17.522   9.044  0.00  0.00     0.179 C 
HETATM   15  O   UNK N   1      27.552  16.779   9.805  0.00  0.00    -0.646 OA
BRANCH  14  16
HETATM   16  O   UNK N   1      28.690  18.660   9.523  0.00  0.00    -0.773 OA
HETATM   17  H   UNK N   1      28.301  19.486   9.319  0.00  0.00     0.167 HD
ENDBRANCH  14  16
ENDBRANCH   2  14
BRANCH   8  18
HETATM   18  C   UNK N   1      33.580  17.903   7.976  0.00  0.00     0.179 C 
HETATM   19  O   UNK N   1      34.527  18.674   8.002  0.00  0.00    -0.646 OA
BRANCH  18  20
HETATM   20  O   UNK N   1      33.096  17.413   9.133  0.00  0.00    -0.773 OA
HETATM   21  H   UNK N   1      33.380  17.774   9.950  0.00  0.00     0.167 HD
ENDBRANCH  18  20
ENDBRANCH   8  18
TORSDOF 4
ENDMDL
MODEL 3
REMARK VINA RESULT:      -6.5      1.767      2.530
REMARK  4 active torsions:
REMARK  status: ('A' for Active; 'I' for Inactive)
REMARK    1  A    between atoms: C_2  and  C_15 
REMARK    2  A    between atoms: C_8  and  C_18 
REMARK    3  A    between atoms: C_15  and  O_16 
REMARK    4  A    between atoms: O_17  and  C_18 
ROOT
HETATM    1  C   UNK N   1      31.790  20.750  -4.773  0.00  0.00     0.021 A 
HETATM    2  C   UNK N   1      31.029  21.671  -4.019  0.00  0.00     0.072 A 
HETATM    3  C   UNK N   1      29.907  22.222  -4.631  0.00  0.00     0.104 A 
HETATM    4  C   UNK N   1      29.535  21.897  -5.916  0.00  0.00     0.012 A 
HETATM    5  C   UNK N   1      30.264  20.993  -6.683  0.00  0.00     0.015 A 
HETATM    6  C   UNK N   1      31.408  20.415  -6.095  0.00  0.00     0.002 A 
HETATM    7  O   UNK N   1      29.065  23.092  -4.118  0.00  0.00    -0.307 OA
HETATM    8  C   UNK N   1      27.063  24.214  -4.911  0.00  0.00     0.072 A 
HETATM    9  C   UNK N   1      28.151  23.349  -5.025  0.00  0.00     0.104 A 
HETATM   10  C   UNK N   1      28.397  22.627  -6.172  0.00  0.00     0.012 A 
HETATM   11  C   UNK N   1      27.571  22.721  -7.288  0.00  0.00     0.015 A 
HETATM   12  C   UNK N   1      26.462  23.587  -7.206  0.00  0.00     0.002 A 
HETATM   13  C   UNK N   1      26.209  24.329  -6.026  0.00  0.00     0.021 A 
ENDROOT
BRANCH   2  14
HETATM   14  C   UNK N   1      31.408  22.037  -2.636  0.00  0.00     0.179 C 
HETATM   15  O   UNK N   1      32.431  21.598  -2.140  0.00  0.00    -0.646 OA
BRANCH  14  16
HETATM   16  O   UNK N   1      30.623  22.860  -1.910  0.00  0.00    -0.773 OA
HETATM   17  H   UNK N   1      29.894  23.288  -2.312  0.00  0.00     0.167 HD
ENDBRANCH  14  16
ENDBRANCH   2  14
BRANCH   8  18
HETATM   18  C   UNK N   1      26.817  24.981  -3.668  0.00  0.00     0.179 C 
HETATM   19  O   UNK N   1      26.578  26.177  -3.715  0.00  0.00    -0.646 OA
BRANCH  18  20
HETATM   20  O   UNK N   1      26.855  24.361  -2.473  0.00  0.00    -0.773 OA
HETATM   21  H   UNK N   1      26.069  24.005  -2.105  0.00  0.00     0.167 HD
ENDBRANCH  18  20
ENDBRANCH   8  18
TORSDOF 4
ENDMDL
MODEL 4
REMARK VINA RESULT:      -6.5      1.688      5.318
REMARK  4 active torsions:
REMARK  status: ('A' for Active; 'I' for Inactive)
REMARK    1  A    between atoms: C_2  and  C_15 
REMARK    2  A    between atoms: C_8  and  C_18 
REMARK    3  A    between atoms: C_15  and  O_16 
REMARK    4  A    between atoms: O_17  and  C_18 
ROOT
HETATM    1  C   UNK N   1      26.144  24.514  -5.978  0.00  0.00     0.021 A 
HETATM    2  C   UNK N   1      27.001  24.370  -4.865  0.00  0.00     0.072 A 
HETATM    3  C   UNK N   1      28.073  23.493  -4.996  0.00  0.00     0.104 A 
HETATM    4  C   UNK N   1      28.308  22.785  -6.154  0.00  0.00     0.012 A 
HETATM    5  C   UNK N   1      27.481  22.906  -7.267  0.00  0.00     0.015 A 
HETATM    6  C   UNK N   1      26.384  23.786  -7.169  0.00  0.00     0.002 A 
HETATM    7  O   UNK N   1      28.988  23.209  -4.094  0.00  0.00    -0.307 OA
HETATM    8  C   UNK N   1      30.934  21.760  -4.022  0.00  0.00     0.072 A 
HETATM    9  C   UNK N   1      29.815  22.337  -4.622  0.00  0.00     0.104 A 
HETATM   10  C   UNK N   1      29.437  22.036  -5.912  0.00  0.00     0.012 A 
HETATM   11  C   UNK N   1      30.152  21.133  -6.693  0.00  0.00     0.015 A 
HETATM   12  C   UNK N   1      31.289  20.531  -6.116  0.00  0.00     0.002 A 
HETATM   13  C   UNK N   1      31.678  20.841  -4.790  0.00  0.00     0.021 A 
ENDROOT
BRANCH   2  14
HETATM   14  C   UNK N   1      26.771  25.120  -3.609  0.00  0.00     0.179 C 
HETATM   15  O   UNK N   1      26.519  26.312  -3.640  0.00  0.00    -0.646 OA
BRANCH  14  16
HETATM   16  O   UNK N   1      26.839  24.490  -2.418  0.00  0.00    -0.773 OA
HETATM   17  H   UNK N   1      26.466  23.637  -2.317  0.00  0.00     0.167 HD
ENDBRANCH  14  16
ENDBRANCH   2  14
BRANCH   8  18
HETATM   18  C   UNK N   1      31.323  22.098  -2.634  0.00  0.00     0.179 C 
HETATM   19  O   UNK N   1      32.338  21.629  -2.143  0.00  0.00    -0.646 OA
BRANCH  18  20
HETATM   20  O   UNK N   1      30.557  22.928  -1.900  0.00  0.00    -0.773 OA
HETATM   21  H   UNK N   1      29.656  23.056  -2.126  0.00  0.00     0.167 HD
ENDBRANCH  18  20
ENDBRANCH   8  18
TORSDOF 4
ENDMDL
MODEL 5
REMARK VINA RESULT:      -6.5     21.394     24.803
REMARK  4 active torsions:
REMARK  status: ('A' for Active; 'I' for Inactive)
REMARK    1  A    between atoms: C_2  and  C_15 
REMARK    2  A    between atoms: C_8  and  C_18 
REMARK    3  A    between atoms: C_15  and  O_16 
REMARK    4  A    between atoms: O_17  and  C_18 
ROOT
HETATM    1  C   UNK N   1      35.353  12.411  18.999  0.00  0.00     0.021 A 
HETATM    2  C   UNK N   1      35.448  13.271  17.883  0.00  0.00     0.072 A 
HETATM    3  C   UNK N   1      35.262  12.706  16.625  0.00  0.00     0.104 A 
HETATM    4  C   UNK N   1      34.996  11.366  16.452  0.00  0.00     0.012 A 
HETATM    5  C   UNK N   1      34.897  10.493  17.532  0.00  0.00     0.015 A 
HETATM    6  C   UNK N   1      35.079  11.032  18.822  0.00  0.00     0.002 A 
HETATM    7  O   UNK N   1      35.307  13.316  15.461  0.00  0.00    -0.307 OA
HETATM    8  C   UNK N   1      35.032  12.625  13.150  0.00  0.00     0.072 A 
HETATM    9  C   UNK N   1      35.079  12.420  14.528  0.00  0.00     0.104 A 
HETATM   10  C   UNK N   1      34.877  11.180  15.094  0.00  0.00     0.012 A 
HETATM   11  C   UNK N   1      34.615  10.056  14.317  0.00  0.00     0.015 A 
HETATM   12  C   UNK N   1      34.561  10.227  12.919  0.00  0.00     0.002 A 
HETATM   13  C   UNK N   1      34.768  11.502  12.339  0.00  0.00     0.021 A 
ENDROOT
BRANCH   2  14
HETATM   14  C   UNK N   1      35.733  14.715  18.041  0.00  0.00     0.179 C 
HETATM   15  O   UNK N   1      35.093  15.387  18.833  0.00  0.00    -0.646 OA
BRANCH  14  16
HETATM   16  O   UNK N   1      36.704  15.303  17.311  0.00  0.00    -0.773 OA
HETATM   17  H   UNK N   1      36.776  16.236  17.293  0.00  0.00     0.167 HD
ENDBRANCH  14  16
ENDBRANCH   2  14
BRANCH   8  18
HETATM   18  C   UNK N   1      35.252  13.966  12.563  0.00  0.00     0.179 C 
HETATM   19  O   UNK N   1      34.432  14.450  11.798  0.00  0.00    -0.646 OA
BRANCH  18  20
HETATM   20  O   UNK N   1      36.361  14.665  12.870  0.00  0.00    -0.773 OA
HETATM   21  H   UNK N   1      36.856  14.446  13.636  0.00  0.00     0.167 HD
ENDBRANCH  18  20
ENDBRANCH   8  18
TORSDOF 4
ENDMDL
MODEL 6
REMARK VINA RESULT:      -6.5     13.579     16.192
REMARK  4 active torsions:
REMARK  status: ('A' for Active; 'I' for Inactive)
REMARK    1  A    between atoms: C_2  and  C_15 
REMARK    2  A    between atoms: C_8  and  C_18 
REMARK    3  A    between atoms: C_15  and  O_16 
REMARK    4  A    between atoms: O_17  and  C_18 
ROOT
HETATM    1  C   UNK N   1      28.766  17.897   6.957  0.00  0.00     0.021 A 
HETATM    2  C   UNK N   1      29.523  17.576   8.106  0.00  0.00     0.072 A 
HETATM    3  C   UNK N   1      30.805  17.075   7.905  0.00  0.00     0.104 A 
HETATM    4  C   UNK N   1      31.335  16.890   6.647  0.00  0.00     0.012 A 
HETATM    5  C   UNK N   1      30.614  17.196   5.497  0.00  0.00     0.015 A 
HETATM    6  C   UNK N   1      29.310  17.707   5.663  0.00  0.00     0.002 A 
HETATM    7  O   UNK N   1      31.675  16.714   8.824  0.00  0.00    -0.307 OA
HETATM    8  C   UNK N   1      33.933  15.824   8.792  0.00  0.00     0.072 A 
HETATM    9  C   UNK N   1      32.759  16.299   8.210  0.00  0.00     0.104 A 
HETATM   10  C   UNK N   1      32.601  16.387   6.844  0.00  0.00     0.012 A 
HETATM   11  C   UNK N   1      33.609  16.007   5.964  0.00  0.00     0.015 A 
HETATM   12  C   UNK N   1      34.810  15.522   6.520  0.00  0.00     0.002 A 
HETATM   13  C   UNK N   1      34.972  15.432   7.924  0.00  0.00     0.021 A 
ENDROOT
BRANCH   2  14
HETATM   14  C   UNK N   1      28.977  17.765   9.469  0.00  0.00     0.179 C 
HETATM   15  O   UNK N   1      27.895  17.292   9.771  0.00  0.00    -0.646 OA
BRANCH  14  16
HETATM   16  O   UNK N   1      29.672  18.463  10.391  0.00  0.00    -0.773 OA
HETATM   17  H   UNK N   1      30.597  18.340  10.473  0.00  0.00     0.167 HD
ENDBRANCH  14  16
ENDBRANCH   2  14
BRANCH   8  18
HETATM   18  C   UNK N   1      34.082  15.738  10.263  0.00  0.00     0.179 C 
HETATM   19  O   UNK N   1      35.013  16.292  10.826  0.00  0.00    -0.646 OA
BRANCH  18  20
HETATM   20  O   UNK N   1      33.188  15.043  10.993  0.00  0.00    -0.773 OA
HETATM   21  H   UNK N   1      32.368  14.792  10.614  0.00  0.00     0.167 HD
ENDBRANCH  18  20
ENDBRANCH   8  18
TORSDOF 4
ENDMDL
MODEL 7
REMARK VINA RESULT:      -6.4     13.380     14.956
REMARK  4 active torsions:
REMARK  status: ('A' for Active; 'I' for Inactive)
REMARK    1  A    between atoms: C_2  and  C_15 
REMARK    2  A    between atoms: C_8  and  C_18 
REMARK    3  A    between atoms: C_15  and  O_16 
REMARK    4  A    between atoms: O_17  and  C_18 
ROOT
HETATM    1  C   UNK N   1      34.785  16.136   7.023  0.00  0.00     0.021 A 
HETATM    2  C   UNK N   1      33.865  16.500   8.031  0.00  0.00     0.072 A 
HETATM    3  C   UNK N   1      32.570  16.809   7.629  0.00  0.00     0.104 A 
HETATM    4  C   UNK N   1      32.179  16.769   6.309  0.00  0.00     0.012 A 
HETATM    5  C   UNK N   1      33.063  16.414   5.294  0.00  0.00     0.015 A 
HETATM    6  C   UNK N   1      34.385  16.094   5.665  0.00  0.00     0.002 A 
HETATM    7  O   UNK N   1      31.561  17.170   8.392  0.00  0.00    -0.307 OA
HETATM    8  C   UNK N   1      29.239  17.761   8.001  0.00  0.00     0.072 A 
HETATM    9  C   UNK N   1      30.520  17.368   7.616  0.00  0.00     0.104 A 
HETATM   10  C   UNK N   1      30.851  17.131   6.300  0.00  0.00     0.012 A 
HETATM   11  C   UNK N   1      29.921  17.271   5.275  0.00  0.00     0.015 A 
HETATM   12  C   UNK N   1      28.616  17.667   5.629  0.00  0.00     0.002 A 
HETATM   13  C   UNK N   1      28.276  17.911   6.983  0.00  0.00     0.021 A 
ENDROOT
BRANCH   2  14
HETATM   14  C   UNK N   1      34.260  16.551   9.457  0.00  0.00     0.179 C 
HETATM   15  O   UNK N   1      35.174  17.273   9.818  0.00  0.00    -0.646 OA
BRANCH  14  16
HETATM   16  O   UNK N   1      33.611  15.800  10.371  0.00  0.00    -0.773 OA
HETATM   17  H   UNK N   1      32.903  15.248  10.106  0.00  0.00     0.167 HD
ENDBRANCH  14  16
ENDBRANCH   2  14
BRANCH   8  18
HETATM   18  C   UNK N   1      28.905  18.011   9.422  0.00  0.00     0.179 C 
HETATM   19  O   UNK N   1      27.880  17.557   9.907  0.00  0.00    -0.646 OA
BRANCH  18  20
HETATM   20  O   UNK N   1      29.732  18.743  10.192  0.00  0.00    -0.773 OA
HETATM   21  H   UNK N   1      30.467  19.180   9.807  0.00  0.00     0.167 HD
ENDBRANCH  18  20
ENDBRANCH   8  18
TORSDOF 4
ENDMDL
MODEL 8
REMARK VINA RESULT:      -6.2      2.533      5.596
REMARK  4 active torsions:
REMARK  status: ('A' for Active; 'I' for Inactive)
REMARK    1  A    between atoms: C_2  and  C_15 
REMARK    2  A    between atoms: C_8  and  C_18 
REMARK    3  A    between atoms: C_15  and  O_16 
REMARK    4  A    between atoms: O_17  and  C_18 
ROOT
HETATM    1  C   UNK N   1      27.107  22.267  -8.093  0.00  0.00     0.021 A 
HETATM    2  C   UNK N   1      27.444  22.924  -6.889  0.00  0.00     0.072 A 
HETATM    3  C   UNK N   1      28.528  22.425  -6.173  0.00  0.00     0.104 A 
HETATM    4  C   UNK N   1      29.255  21.337  -6.601  0.00  0.00     0.012 A 
HETATM    5  C   UNK N   1      28.947  20.669  -7.783  0.00  0.00     0.015 A 
HETATM    6  C   UNK N   1      27.854  21.148  -8.534  0.00  0.00     0.002 A 
HETATM    7  O   UNK N   1      29.011  22.878  -5.037  0.00  0.00    -0.307 OA
HETATM    8  C   UNK N   1      30.843  22.242  -3.577  0.00  0.00     0.072 A 
HETATM    9  C   UNK N   1      30.033  22.123  -4.705  0.00  0.00     0.104 A 
HETATM   10  C   UNK N   1      30.231  21.141  -5.651  0.00  0.00     0.012 A 
HETATM   11  C   UNK N   1      31.255  20.207  -5.533  0.00  0.00     0.015 A 
HETATM   12  C   UNK N   1      32.093  20.298  -4.403  0.00  0.00     0.002 A 
HETATM   13  C   UNK N   1      31.889  21.308  -3.431  0.00  0.00     0.021 A 
ENDROOT
BRANCH   2  14
HETATM   14  C   UNK N   1      26.678  24.095  -6.405  0.00  0.00     0.179 C 
HETATM   15  O   UNK N   1      25.459  24.073  -6.394  0.00  0.00    -0.646 OA
BRANCH  14  16
HETATM   16  O   UNK N   1      27.322  25.199  -5.973  0.00  0.00    -0.773 OA
HETATM   17  H   UNK N   1      27.530  25.886  -6.575  0.00  0.00     0.167 HD
ENDBRANCH  14  16
ENDBRANCH   2  14
BRANCH   8  18
HETATM   18  C   UNK N   1      30.613  23.305  -2.572  0.00  0.00     0.179 C 
HETATM   19  O   UNK N   1      30.435  23.021  -1.398  0.00  0.00    -0.646 OA
BRANCH  18  20
HETATM   20  O   UNK N   1      30.600  24.598  -2.948  0.00  0.00    -0.773 OA
HETATM   21  H   UNK N   1      31.133  25.223  -2.497  0.00  0.00     0.167 HD
ENDBRANCH  18  20
ENDBRANCH   8  18
TORSDOF 4
ENDMDL
MODEL 9
REMARK VINA RESULT:      -6.2     15.817     17.818
REMARK  4 active torsions:
REMARK  status: ('A' for Active; 'I' for Inactive)
REMARK    1  A    between atoms: C_2  and  C_15 
REMARK    2  A    between atoms: C_8  and  C_18 
REMARK    3  A    between atoms: C_15  and  O_16 
REMARK    4  A    between atoms: O_17  and  C_18 
ROOT
HETATM    1  C   UNK N   1      23.202  11.679   9.573  0.00  0.00     0.021 A 
HETATM    2  C   UNK N   1      22.152  12.568   9.894  0.00  0.00     0.072 A 
HETATM    3  C   UNK N   1      21.976  13.672   9.065  0.00  0.00     0.104 A 
HETATM    4  C   UNK N   1      22.779  13.907   7.972  0.00  0.00     0.012 A 
HETATM    5  C   UNK N   1      23.821  13.050   7.631  0.00  0.00     0.015 A 
HETATM    6  C   UNK N   1      24.029  11.921   8.450  0.00  0.00     0.002 A 
HETATM    7  O   UNK N   1      21.068  14.618   9.178  0.00  0.00    -0.307 OA
HETATM    8  C   UNK N   1      20.517  16.622   7.924  0.00  0.00     0.072 A 
HETATM    9  C   UNK N   1      21.251  15.467   8.193  0.00  0.00     0.104 A 
HETATM   10  C   UNK N   1      22.310  15.071   7.407  0.00  0.00     0.012 A 
HETATM   11  C   UNK N   1      22.710  15.804   6.293  0.00  0.00     0.015 A 
HETATM   12  C   UNK N   1      21.989  16.977   5.992  0.00  0.00     0.002 A 
HETATM   13  C   UNK N   1      20.900  17.384   6.802  0.00  0.00     0.021 A 
ENDROOT
BRANCH   2  14
HETATM   14  C   UNK N   1      21.274  12.338  11.064  0.00  0.00     0.179 C 
HETATM   15  O   UNK N   1      21.739  11.928  12.114  0.00  0.00    -0.646 OA
BRANCH  14  16
HETATM   16  O   UNK N   1      19.949  12.579  10.979  0.00  0.00    -0.773 OA
HETATM   17  H   UNK N   1      19.456  12.238  10.261  0.00  0.00     0.167 HD
ENDBRANCH  14  16
ENDBRANCH   2  14
BRANCH   8  18
HETATM   18  C   UNK N   1      19.382  17.030   8.782  0.00  0.00     0.179 C 
HETATM   19  O   UNK N   1      19.271  18.187   9.156  0.00  0.00    -0.646 OA
BRANCH  18  20
HETATM   20  O   UNK N   1      18.459  16.124   9.158  0.00  0.00    -0.773 OA
HETATM   21  H   UNK N   1      17.969  16.254   9.947  0.00  0.00     0.167 HD
ENDBRANCH  18  20
ENDBRANCH   8  18
TORSDOF 4
ENDMDL
