REMARK  4 active torsions:
REMARK  status: ('A' for Active; 'I' for Inactive)
REMARK    1  A    between atoms: C_3  and  O_19 
REMARK    2  A    between atoms: C_5  and  O_21 
REMARK    3  A    between atoms: C_11  and  O_26 
REMARK    4  A    between atoms: C_13  and  C_14 
ROOT
HETATM    1  C   UNK N   1       2.376   1.735   0.497  0.00  0.00     0.265 C 
HETATM    2  C   UNK N   1       3.431   0.844  -0.119  0.00  0.00     0.110 C 
HETATM    3  C   UNK N   1       3.165  -0.682   0.071  0.00  0.00     0.137 C 
HETATM    4  C   UNK N   1       1.762  -1.183  -0.361  0.00  0.00     0.040 C 
HETATM    5  C   UNK N   1       1.489  -2.666   0.039  0.00  0.00     0.128 C 
HETATM    6  C   UNK N   1       0.029  -3.151  -0.201  0.00  0.00     0.011 C 
HETATM    7  C   UNK N   1      -0.969  -2.185   0.467  0.00  0.00     0.018 C 
HETATM    8  C   UNK N   1      -2.477  -2.492   0.532  0.00  0.00     0.052 C 
HETATM    9  C   UNK N   1      -3.423  -1.305   0.280  0.00  0.00     0.137 C 
HETATM   10  C   UNK N   1      -3.048   0.150  -0.066  0.00  0.00     0.081 C 
HETATM   11  C   UNK N   1      -1.590   0.622   0.177  0.00  0.00     0.135 C 
HETATM   12  C   UNK N   1      -1.297   2.124  -0.129  0.00  0.00     0.041 C 
HETATM   13  C   UNK N   1       0.085   2.564   0.453  0.00  0.00     0.137 C 
HETATM   14  O   UNK N   1       1.113   1.761  -0.022  0.00  0.00    -0.315 OA
HETATM   15  O   UNK N   1       2.670   2.447   1.449  0.00  0.00    -0.265 OA
HETATM   16  C   UNK N   1       3.601   1.231  -1.581  0.00  0.00     0.023 C 
HETATM   17  C   UNK N   1       1.524  -0.935  -1.848  0.00  0.00     0.015 C 
HETATM   18  C   UNK N   1      -0.263  -3.267  -1.694  0.00  0.00     0.012 C 
HETATM   19  C   UNK N   1      -2.874  -3.615  -0.420  0.00  0.00     0.018 C 
HETATM   20  O   UNK N   1      -4.621  -1.550   0.336  0.00  0.00    -0.297 OA
HETATM   21  C   UNK N   1      -3.506   0.400  -1.497  0.00  0.00     0.020 C 
HETATM   22  C   UNK N   1      -1.363   2.377  -1.633  0.00  0.00     0.015 C 
ENDROOT
BRANCH   3  23
HETATM   23  O   UNK N   1       4.165  -1.409  -0.583  0.00  0.00    -0.394 OA
HETATM   24  H   UNK N   1       4.074  -2.262  -1.037  0.00  0.00     0.210 HD
ENDBRANCH   3  23
BRANCH   5  25
HETATM   25  O   UNK N   1       2.381  -3.524  -0.613  0.00  0.00    -0.395 OA
HETATM   26  H   UNK N   1       2.175  -4.357  -1.065  0.00  0.00     0.210 HD
ENDBRANCH   5  25
BRANCH  13  27
HETATM   27  C   UNK N   1       0.391   4.057   0.236  0.00  0.00     0.028 C 
HETATM   28  C   UNK N   1       0.758   4.405  -1.198  0.00  0.00     0.007 C 
ENDBRANCH  13  27
BRANCH  11  29
HETATM   29  O   UNK N   1      -1.298   0.377   1.525  0.00  0.00    -0.394 OA
HETATM   30  H   UNK N   1      -1.344   0.118   2.459  0.00  0.00     0.210 HD
ENDBRANCH  11  29
TORSDOF 4
