MODEL 1
REMARK VINA RESULT:      -7.2      0.000      0.000
REMARK  4 active torsions:
REMARK  status: ('A' for Active; 'I' for Inactive)
REMARK    1  A    between atoms: C_3  and  O_19 
REMARK    2  A    between atoms: C_5  and  O_21 
REMARK    3  A    between atoms: C_11  and  O_26 
REMARK    4  A    between atoms: C_13  and  C_14 
ROOT
HETATM    1  C   UNK N   1      28.056  24.002  -3.278  0.00  0.00     0.265 C 
HETATM    2  C   UNK N   1      29.392  23.293  -3.264  0.00  0.00     0.110 C 
HETATM    3  C   UNK N   1      29.519  22.155  -4.324  0.00  0.00     0.137 C 
HETATM    4  C   UNK N   1      29.168  22.546  -5.783  0.00  0.00     0.040 C 
HETATM    5  C   UNK N   1      29.119  21.325  -6.752  0.00  0.00     0.128 C 
HETATM    6  C   UNK N   1      28.584  21.642  -8.180  0.00  0.00     0.011 C 
HETATM    7  C   UNK N   1      27.221  22.356  -8.090  0.00  0.00     0.018 C 
HETATM    8  C   UNK N   1      26.375  22.653  -9.342  0.00  0.00     0.052 C 
HETATM    9  C   UNK N   1      25.681  24.026  -9.384  0.00  0.00     0.137 C 
HETATM   10  C   UNK N   1      25.756  25.158  -8.340  0.00  0.00     0.081 C 
HETATM   11  C   UNK N   1      26.292  24.830  -6.921  0.00  0.00     0.135 C 
HETATM   12  C   UNK N   1      26.275  26.006  -5.895  0.00  0.00     0.041 C 
HETATM   13  C   UNK N   1      26.518  25.493  -4.439  0.00  0.00     0.137 C 
HETATM   14  O   UNK N   1      27.705  24.781  -4.344  0.00  0.00    -0.315 OA
HETATM   15  O   UNK N   1      27.304  23.889  -2.319  0.00  0.00    -0.265 OA
HETATM   16  C   UNK N   1      30.496  24.334  -3.387  0.00  0.00     0.023 C 
HETATM   17  C   UNK N   1      30.091  23.649  -6.293  0.00  0.00     0.015 C 
HETATM   18  C   UNK N   1      29.582  22.499  -8.953  0.00  0.00     0.012 C 
HETATM   19  C   UNK N   1      27.182  22.500 -10.627  0.00  0.00     0.018 C 
HETATM   20  O   UNK N   1      25.006  24.258 -10.378  0.00  0.00    -0.297 OA
HETATM   21  C   UNK N   1      26.507  26.313  -8.989  0.00  0.00     0.020 C 
HETATM   22  C   UNK N   1      27.311  27.058  -6.284  0.00  0.00     0.015 C 
ENDROOT
BRANCH   3  23
HETATM   23  O   UNK N   1      30.806  21.609  -4.262  0.00  0.00    -0.394 OA
HETATM   24  H   UNK N   1      31.572  21.958  -3.779  0.00  0.00     0.210 HD
ENDBRANCH   3  23
BRANCH   5  25
HETATM   25  O   UNK N   1      30.377  20.721  -6.847  0.00  0.00    -0.395 OA
HETATM   26  H   UNK N   1      30.615  19.928  -7.353  0.00  0.00     0.210 HD
ENDBRANCH   5  25
BRANCH  13  27
HETATM   27  C   UNK N   1      26.443  26.608  -3.379  0.00  0.00     0.028 C 
HETATM   28  C   UNK N   1      25.501  27.742  -3.748  0.00  0.00     0.007 C 
ENDBRANCH  13  27
BRANCH  11  29
HETATM   29  O   UNK N   1      25.505  23.787  -6.416  0.00  0.00    -0.394 OA
HETATM   30  H   UNK N   1      24.906  23.244  -5.880  0.00  0.00     0.210 HD
ENDBRANCH  11  29
TORSDOF 4
ENDMDL
MODEL 2
REMARK VINA RESULT:      -7.0     14.535     18.169
REMARK  4 active torsions:
REMARK  status: ('A' for Active; 'I' for Inactive)
REMARK    1  A    between atoms: C_3  and  O_19 
REMARK    2  A    between atoms: C_5  and  O_21 
REMARK    3  A    between atoms: C_11  and  O_26 
REMARK    4  A    between atoms: C_13  and  C_14 
ROOT
HETATM    1  C   UNK N   1      36.665  14.263   9.240  0.00  0.00     0.265 C 
HETATM    2  C   UNK N   1      35.957  14.972  10.373  0.00  0.00     0.110 C 
HETATM    3  C   UNK N   1      35.285  16.319   9.960  0.00  0.00     0.137 C 
HETATM    4  C   UNK N   1      34.340  16.254   8.732  0.00  0.00     0.040 C 
HETATM    5  C   UNK N   1      33.863  17.659   8.250  0.00  0.00     0.128 C 
HETATM    6  C   UNK N   1      33.071  17.657   6.909  0.00  0.00     0.011 C 
HETATM    7  C   UNK N   1      33.873  16.920   5.819  0.00  0.00     0.018 C 
HETATM    8  C   UNK N   1      33.414  16.895   4.349  0.00  0.00     0.052 C 
HETATM    9  C   UNK N   1      33.574  15.555   3.610  0.00  0.00     0.137 C 
HETATM   10  C   UNK N   1      34.107  14.221   4.170  0.00  0.00     0.081 C 
HETATM   11  C   UNK N   1      34.894  14.235   5.507  0.00  0.00     0.135 C 
HETATM   12  C   UNK N   1      35.463  12.861   5.980  0.00  0.00     0.041 C 
HETATM   13  C   UNK N   1      36.498  13.042   7.138  0.00  0.00     0.137 C 
HETATM   14  O   UNK N   1      35.945  13.734   8.207  0.00  0.00    -0.315 OA
HETATM   15  O   UNK N   1      37.884  14.150   9.269  0.00  0.00    -0.265 OA
HETATM   16  C   UNK N   1      34.977  14.002  11.016  0.00  0.00     0.023 C 
HETATM   17  C   UNK N   1      33.172  15.306   8.987  0.00  0.00     0.015 C 
HETATM   18  C   UNK N   1      31.702  17.009   7.090  0.00  0.00     0.012 C 
HETATM   19  C   UNK N   1      31.964  17.341   4.195  0.00  0.00     0.018 C 
HETATM   20  O   UNK N   1      33.212  15.538   2.441  0.00  0.00    -0.297 OA
HETATM   21  C   UNK N   1      32.934  13.250   4.199  0.00  0.00     0.020 C 
HETATM   22  C   UNK N   1      34.325  11.937   6.404  0.00  0.00     0.015 C 
ENDROOT
BRANCH   3  23
HETATM   23  O   UNK N   1      34.615  16.857  11.063  0.00  0.00    -0.394 OA
HETATM   24  H   UNK N   1      34.656  17.769  11.392  0.00  0.00     0.210 HD
ENDBRANCH   3  23
BRANCH   5  25
HETATM   25  O   UNK N   1      33.103  18.288   9.241  0.00  0.00    -0.395 OA
HETATM   26  H   UNK N   1      33.335  18.409  10.175  0.00  0.00     0.210 HD
ENDBRANCH   5  25
BRANCH  13  27
HETATM   27  C   UNK N   1      37.140  11.720   7.595  0.00  0.00     0.028 C 
HETATM   28  C   UNK N   1      38.509  11.462   6.986  0.00  0.00     0.007 C 
ENDBRANCH  13  27
BRANCH  11  29
HETATM   29  O   UNK N   1      35.961  15.128   5.347  0.00  0.00    -0.394 OA
HETATM   30  H   UNK N   1      36.535  15.856   5.061  0.00  0.00     0.210 HD
ENDBRANCH  11  29
TORSDOF 4
ENDMDL
MODEL 3
REMARK VINA RESULT:      -6.9      1.785      5.145
REMARK  4 active torsions:
REMARK  status: ('A' for Active; 'I' for Inactive)
REMARK    1  A    between atoms: C_3  and  O_19 
REMARK    2  A    between atoms: C_5  and  O_21 
REMARK    3  A    between atoms: C_11  and  O_26 
REMARK    4  A    between atoms: C_13  and  C_14 
ROOT
HETATM    1  C   UNK N   1      29.891  21.781  -6.207  0.00  0.00     0.265 C 
HETATM    2  C   UNK N   1      29.631  21.625  -7.689  0.00  0.00     0.110 C 
HETATM    3  C   UNK N   1      28.181  22.006  -8.124  0.00  0.00     0.137 C 
HETATM    4  C   UNK N   1      27.681  23.401  -7.664  0.00  0.00     0.040 C 
HETATM    5  C   UNK N   1      26.167  23.637  -7.954  0.00  0.00     0.128 C 
HETATM    6  C   UNK N   1      25.578  24.941  -7.339  0.00  0.00     0.011 C 
HETATM    7  C   UNK N   1      25.889  25.006  -5.831  0.00  0.00     0.018 C 
HETATM    8  C   UNK N   1      25.297  26.102  -4.926  0.00  0.00     0.052 C 
HETATM    9  C   UNK N   1      26.247  26.699  -3.873  0.00  0.00     0.137 C 
HETATM   10  C   UNK N   1      27.732  26.359  -3.634  0.00  0.00     0.081 C 
HETATM   11  C   UNK N   1      28.307  25.058  -4.251  0.00  0.00     0.135 C 
HETATM   12  C   UNK N   1      29.797  24.740  -3.912  0.00  0.00     0.041 C 
HETATM   13  C   UNK N   1      30.169  23.273  -4.301  0.00  0.00     0.137 C 
HETATM   14  O   UNK N   1      29.911  23.024  -5.642  0.00  0.00    -0.315 OA
HETATM   15  O   UNK N   1      30.104  20.786  -5.526  0.00  0.00    -0.265 OA
HETATM   16  C   UNK N   1      30.694  22.401  -8.453  0.00  0.00     0.023 C 
HETATM   17  C   UNK N   1      28.557  24.513  -8.234  0.00  0.00     0.015 C 
HETATM   18  C   UNK N   1      26.134  26.172  -8.049  0.00  0.00     0.012 C 
HETATM   19  C   UNK N   1      24.712  27.256  -5.733  0.00  0.00     0.018 C 
HETATM   20  O   UNK N   1      25.774  27.568  -3.152  0.00  0.00    -0.297 OA
HETATM   21  C   UNK N   1      28.539  27.591  -4.023  0.00  0.00     0.020 C 
HETATM   22  C   UNK N   1      30.719  25.740  -4.605  0.00  0.00     0.015 C 
ENDROOT
BRANCH   3  23
HETATM   23  O   UNK N   1      28.069  21.881  -9.512  0.00  0.00    -0.394 OA
HETATM   24  H   UNK N   1      27.969  22.594 -10.163  0.00  0.00     0.210 HD
ENDBRANCH   3  23
BRANCH   5  25
HETATM   25  O   UNK N   1      25.920  23.615  -9.331  0.00  0.00    -0.395 OA
HETATM   26  H   UNK N   1      25.073  23.458  -9.776  0.00  0.00     0.210 HD
ENDBRANCH   5  25
BRANCH  13  27
HETATM   27  C   UNK N   1      31.611  22.888  -3.924  0.00  0.00     0.028 C 
HETATM   28  C   UNK N   1      31.703  21.951  -2.730  0.00  0.00     0.007 C 
ENDBRANCH  13  27
BRANCH  11  29
HETATM   29  O   UNK N   1      27.512  23.999  -3.795  0.00  0.00    -0.394 OA
HETATM   30  H   UNK N   1      27.147  23.122  -3.598  0.00  0.00     0.210 HD
ENDBRANCH  11  29
TORSDOF 4
ENDMDL
MODEL 4
REMARK VINA RESULT:      -6.9     11.038     12.861
REMARK  4 active torsions:
REMARK  status: ('A' for Active; 'I' for Inactive)
REMARK    1  A    between atoms: C_3  and  O_19 
REMARK    2  A    between atoms: C_5  and  O_21 
REMARK    3  A    between atoms: C_11  and  O_26 
REMARK    4  A    between atoms: C_13  and  C_14 
ROOT
HETATM    1  C   UNK N   1      27.583  17.526   5.197  0.00  0.00     0.265 C 
HETATM    2  C   UNK N   1      28.084  16.240   4.580  0.00  0.00     0.110 C 
HETATM    3  C   UNK N   1      27.002  15.121   4.472  0.00  0.00     0.137 C 
HETATM    4  C   UNK N   1      25.673  15.530   3.785  0.00  0.00     0.040 C 
HETATM    5  C   UNK N   1      24.565  14.436   3.888  0.00  0.00     0.128 C 
HETATM    6  C   UNK N   1      23.160  14.877   3.384  0.00  0.00     0.011 C 
HETATM    7  C   UNK N   1      22.735  16.189   4.072  0.00  0.00     0.018 C 
HETATM    8  C   UNK N   1      21.325  16.782   3.890  0.00  0.00     0.052 C 
HETATM    9  C   UNK N   1      21.248  18.310   3.724  0.00  0.00     0.137 C 
HETATM   10  C   UNK N   1      22.412  19.319   3.681  0.00  0.00     0.081 C 
HETATM   11  C   UNK N   1      23.809  18.869   4.186  0.00  0.00     0.135 C 
HETATM   12  C   UNK N   1      24.924  19.960   4.180  0.00  0.00     0.041 C 
HETATM   13  C   UNK N   1      26.172  19.503   5.001  0.00  0.00     0.137 C 
HETATM   14  O   UNK N   1      26.671  18.295   4.532  0.00  0.00    -0.315 OA
HETATM   15  O   UNK N   1      28.017  17.880   6.286  0.00  0.00    -0.265 OA
HETATM   16  C   UNK N   1      28.728  16.563   3.239  0.00  0.00     0.023 C 
HETATM   17  C   UNK N   1      25.913  15.970   2.343  0.00  0.00     0.015 C 
HETATM   18  C   UNK N   1      23.160  15.049   1.868  0.00  0.00     0.012 C 
HETATM   19  C   UNK N   1      20.584  16.147   2.718  0.00  0.00     0.018 C 
HETATM   20  O   UNK N   1      20.127  18.780   3.583  0.00  0.00    -0.297 OA
HETATM   21  C   UNK N   1      22.463  19.882   2.266  0.00  0.00     0.020 C 
HETATM   22  C   UNK N   1      25.310  20.309   2.745  0.00  0.00     0.015 C 
ENDROOT
BRANCH   3  23
HETATM   23  O   UNK N   1      27.555  14.004   3.838  0.00  0.00    -0.394 OA
HETATM   24  H   UNK N   1      28.059  13.282   4.247  0.00  0.00     0.210 HD
ENDBRANCH   3  23
BRANCH   5  25
HETATM   25  O   UNK N   1      24.959  13.272   3.220  0.00  0.00    -0.395 OA
HETATM   26  H   UNK N   1      25.301  13.197   2.316  0.00  0.00     0.210 HD
ENDBRANCH   5  25
BRANCH  13  27
HETATM   27  C   UNK N   1      27.275  20.574   5.082  0.00  0.00     0.028 C 
HETATM   28  C   UNK N   1      27.167  21.474   6.302  0.00  0.00     0.007 C 
ENDBRANCH  13  27
BRANCH  11  29
HETATM   29  O   UNK N   1      23.642  18.410   5.499  0.00  0.00    -0.394 OA
HETATM   30  H   UNK N   1      23.308  18.238   6.394  0.00  0.00     0.210 HD
ENDBRANCH  11  29
TORSDOF 4
ENDMDL
MODEL 5
REMARK VINA RESULT:      -6.9      2.325      5.778
REMARK  4 active torsions:
REMARK  status: ('A' for Active; 'I' for Inactive)
REMARK    1  A    between atoms: C_3  and  O_19 
REMARK    2  A    between atoms: C_5  and  O_21 
REMARK    3  A    between atoms: C_11  and  O_26 
REMARK    4  A    between atoms: C_13  and  C_14 
ROOT
HETATM    1  C   UNK N   1      32.858  21.186  -6.013  0.00  0.00     0.265 C 
HETATM    2  C   UNK N   1      33.106  20.802  -4.571  0.00  0.00     0.110 C 
HETATM    3  C   UNK N   1      32.541  21.823  -3.535  0.00  0.00     0.137 C 
HETATM    4  C   UNK N   1      31.048  22.207  -3.708  0.00  0.00     0.040 C 
HETATM    5  C   UNK N   1      30.602  23.374  -2.774  0.00  0.00     0.128 C 
HETATM    6  C   UNK N   1      29.170  23.920  -3.048  0.00  0.00     0.011 C 
HETATM    7  C   UNK N   1      29.016  24.287  -4.537  0.00  0.00     0.018 C 
HETATM    8  C   UNK N   1      27.760  25.000  -5.073  0.00  0.00     0.052 C 
HETATM    9  C   UNK N   1      27.227  24.508  -6.430  0.00  0.00     0.137 C 
HETATM   10  C   UNK N   1      27.775  23.364  -7.306  0.00  0.00     0.081 C 
HETATM   11  C   UNK N   1      29.204  22.827  -7.024  0.00  0.00     0.135 C 
HETATM   12  C   UNK N   1      29.722  21.718  -7.992  0.00  0.00     0.041 C 
HETATM   13  C   UNK N   1      31.259  21.491  -7.826  0.00  0.00     0.137 C 
HETATM   14  O   UNK N   1      31.587  21.184  -6.513  0.00  0.00    -0.315 OA
HETATM   15  O   UNK N   1      33.806  21.476  -6.731  0.00  0.00    -0.265 OA
HETATM   16  C   UNK N   1      32.584  19.390  -4.347  0.00  0.00     0.023 C 
HETATM   17  C   UNK N   1      30.147  20.982  -3.570  0.00  0.00     0.015 C 
HETATM   18  C   UNK N   1      28.114  22.896  -2.643  0.00  0.00     0.012 C 
HETATM   19  C   UNK N   1      26.607  24.954  -4.076  0.00  0.00     0.018 C 
HETATM   20  O   UNK N   1      26.231  25.078  -6.856  0.00  0.00    -0.297 OA
HETATM   21  C   UNK N   1      26.729  22.257  -7.298  0.00  0.00     0.020 C 
HETATM   22  C   UNK N   1      28.950  20.420  -7.765  0.00  0.00     0.015 C 
ENDROOT
BRANCH   3  23
HETATM   23  O   UNK N   1      32.775  21.344  -2.242  0.00  0.00    -0.394 OA
HETATM   24  H   UNK N   1      32.810  20.418  -1.952  0.00  0.00     0.210 HD
ENDBRANCH   3  23
BRANCH   5  25
HETATM   25  O   UNK N   1      30.712  22.999  -1.431  0.00  0.00    -0.395 OA
HETATM   26  H   UNK N   1      30.556  23.553  -0.650  0.00  0.00     0.210 HD
ENDBRANCH   5  25
BRANCH  13  27
HETATM   27  C   UNK N   1      31.832  20.453  -8.808  0.00  0.00     0.028 C 
HETATM   28  C   UNK N   1      31.634  20.818 -10.270  0.00  0.00     0.007 C 
ENDBRANCH  13  27
BRANCH  11  29
HETATM   29  O   UNK N   1      30.075  23.922  -7.094  0.00  0.00    -0.394 OA
HETATM   30  H   UNK N   1      30.468  24.808  -7.048  0.00  0.00     0.210 HD
ENDBRANCH  11  29
TORSDOF 4
ENDMDL
MODEL 6
REMARK VINA RESULT:      -6.8      1.842      5.297
REMARK  4 active torsions:
REMARK  status: ('A' for Active; 'I' for Inactive)
REMARK    1  A    between atoms: C_3  and  O_19 
REMARK    2  A    between atoms: C_5  and  O_21 
REMARK    3  A    between atoms: C_11  and  O_26 
REMARK    4  A    between atoms: C_13  and  C_14 
ROOT
HETATM    1  C   UNK N   1      27.169  26.045  -7.676  0.00  0.00     0.265 C 
HETATM    2  C   UNK N   1      27.033  25.114  -8.860  0.00  0.00     0.110 C 
HETATM    3  C   UNK N   1      28.248  24.155  -9.058  0.00  0.00     0.137 C 
HETATM    4  C   UNK N   1      28.672  23.334  -7.812  0.00  0.00     0.040 C 
HETATM    5  C   UNK N   1      30.007  22.552  -8.015  0.00  0.00     0.128 C 
HETATM    6  C   UNK N   1      30.569  21.871  -6.733  0.00  0.00     0.011 C 
HETATM    7  C   UNK N   1      30.675  22.898  -5.589  0.00  0.00     0.018 C 
HETATM    8  C   UNK N   1      31.346  22.551  -4.246  0.00  0.00     0.052 C 
HETATM    9  C   UNK N   1      30.651  23.086  -2.982  0.00  0.00     0.137 C 
HETATM   10  C   UNK N   1      29.344  23.898  -2.890  0.00  0.00     0.081 C 
HETATM   11  C   UNK N   1      28.793  24.572  -4.174  0.00  0.00     0.135 C 
HETATM   12  C   UNK N   1      27.505  25.436  -3.995  0.00  0.00     0.041 C 
HETATM   13  C   UNK N   1      27.233  26.318  -5.256  0.00  0.00     0.137 C 
HETATM   14  O   UNK N   1      27.144  25.545  -6.405  0.00  0.00    -0.315 OA
HETATM   15  O   UNK N   1      27.279  27.250  -7.867  0.00  0.00    -0.265 OA
HETATM   16  C   UNK N   1      25.712  24.368  -8.743  0.00  0.00     0.023 C 
HETATM   17  C   UNK N   1      27.539  22.425  -7.342  0.00  0.00     0.015 C 
HETATM   18  C   UNK N   1      29.688  20.698  -6.314  0.00  0.00     0.012 C 
HETATM   19  C   UNK N   1      31.536  21.048  -4.073  0.00  0.00     0.018 C 
HETATM   20  O   UNK N   1      31.187  22.812  -1.916  0.00  0.00    -0.297 OA
HETATM   21  C   UNK N   1      28.310  23.004  -2.216  0.00  0.00     0.020 C 
HETATM   22  C   UNK N   1      26.309  24.539  -3.686  0.00  0.00     0.015 C 
ENDROOT
BRANCH   3  23
HETATM   23  O   UNK N   1      27.993  23.305 -10.139  0.00  0.00    -0.394 OA
HETATM   24  H   UNK N   1      27.533  22.450 -10.122  0.00  0.00     0.210 HD
ENDBRANCH   3  23
BRANCH   5  25
HETATM   25  O   UNK N   1      29.870  21.599  -9.030  0.00  0.00    -0.395 OA
HETATM   26  H   UNK N   1      30.017  20.643  -8.966  0.00  0.00     0.210 HD
ENDBRANCH   5  25
BRANCH  13  27
HETATM   27  C   UNK N   1      26.009  27.240  -5.102  0.00  0.00     0.028 C 
HETATM   28  C   UNK N   1      26.334  28.591  -4.483  0.00  0.00     0.007 C 
ENDBRANCH  13  27
BRANCH  11  29
HETATM   29  O   UNK N   1      29.811  25.391  -4.678  0.00  0.00    -0.394 OA
HETATM   30  H   UNK N   1      30.547  26.016  -4.771  0.00  0.00     0.210 HD
ENDBRANCH  11  29
TORSDOF 4
ENDMDL
MODEL 7
REMARK VINA RESULT:      -6.7     12.015     13.974
REMARK  4 active torsions:
REMARK  status: ('A' for Active; 'I' for Inactive)
REMARK    1  A    between atoms: C_3  and  O_19 
REMARK    2  A    between atoms: C_5  and  O_21 
REMARK    3  A    between atoms: C_11  and  O_26 
REMARK    4  A    between atoms: C_13  and  C_14 
ROOT
HETATM    1  C   UNK N   1      26.049  18.281   3.960  0.00  0.00     0.265 C 
HETATM    2  C   UNK N   1      25.218  17.141   3.416  0.00  0.00     0.110 C 
HETATM    3  C   UNK N   1      26.034  16.095   2.594  0.00  0.00     0.137 C 
HETATM    4  C   UNK N   1      27.293  15.518   3.292  0.00  0.00     0.040 C 
HETATM    5  C   UNK N   1      28.170  14.638   2.349  0.00  0.00     0.128 C 
HETATM    6  C   UNK N   1      29.538  14.197   2.949  0.00  0.00     0.011 C 
HETATM    7  C   UNK N   1      30.311  15.425   3.469  0.00  0.00     0.018 C 
HETATM    8  C   UNK N   1      31.762  15.318   3.973  0.00  0.00     0.052 C 
HETATM    9  C   UNK N   1      32.106  16.133   5.231  0.00  0.00     0.137 C 
HETATM   10  C   UNK N   1      31.167  17.019   6.073  0.00  0.00     0.081 C 
HETATM   11  C   UNK N   1      29.806  17.452   5.466  0.00  0.00     0.135 C 
HETATM   12  C   UNK N   1      28.936  18.404   6.344  0.00  0.00     0.041 C 
HETATM   13  C   UNK N   1      27.767  19.030   5.518  0.00  0.00     0.137 C 
HETATM   14  O   UNK N   1      26.977  18.048   4.935  0.00  0.00    -0.315 OA
HETATM   15  O   UNK N   1      25.868  19.415   3.535  0.00  0.00    -0.265 OA
HETATM   16  C   UNK N   1      24.448  16.509   4.567  0.00  0.00     0.023 C 
HETATM   17  C   UNK N   1      26.920  14.786   4.579  0.00  0.00     0.015 C 
HETATM   18  C   UNK N   1      29.334  13.184   4.070  0.00  0.00     0.012 C 
HETATM   19  C   UNK N   1      32.174  13.872   4.227  0.00  0.00     0.018 C 
HETATM   20  O   UNK N   1      33.261  16.050   5.628  0.00  0.00    -0.297 OA
HETATM   21  C   UNK N   1      31.006  16.338   7.426  0.00  0.00     0.020 C 
HETATM   22  C   UNK N   1      28.405  17.656   7.564  0.00  0.00     0.015 C 
ENDROOT
BRANCH   3  23
HETATM   23  O   UNK N   1      25.183  15.061   2.190  0.00  0.00    -0.394 OA
HETATM   24  H   UNK N   1      25.336  14.106   2.269  0.00  0.00     0.210 HD
ENDBRANCH   3  23
BRANCH   5  25
HETATM   25  O   UNK N   1      27.459  13.510   1.925  0.00  0.00    -0.395 OA
HETATM   26  H   UNK N   1      26.560  13.481   1.561  0.00  0.00     0.210 HD
ENDBRANCH   5  25
BRANCH  13  27
HETATM   27  C   UNK N   1      26.918  20.031   6.323  0.00  0.00     0.028 C 
HETATM   28  C   UNK N   1      27.339  21.480   6.136  0.00  0.00     0.007 C 
ENDBRANCH  13  27
BRANCH  11  29
HETATM   29  O   UNK N   1      30.084  18.095   4.252  0.00  0.00    -0.394 OA
HETATM   30  H   UNK N   1      30.080  18.385   3.327  0.00  0.00     0.210 HD
ENDBRANCH  11  29
TORSDOF 4
ENDMDL
MODEL 8
REMARK VINA RESULT:      -6.6     15.458     19.127
REMARK  4 active torsions:
REMARK  status: ('A' for Active; 'I' for Inactive)
REMARK    1  A    between atoms: C_3  and  O_19 
REMARK    2  A    between atoms: C_5  and  O_21 
REMARK    3  A    between atoms: C_11  and  O_26 
REMARK    4  A    between atoms: C_13  and  C_14 
ROOT
HETATM    1  C   UNK N   1      38.026  13.329   8.876  0.00  0.00     0.265 C 
HETATM    2  C   UNK N   1      37.599  13.662  10.287  0.00  0.00     0.110 C 
HETATM    3  C   UNK N   1      36.841  15.020  10.419  0.00  0.00     0.137 C 
HETATM    4  C   UNK N   1      35.635  15.217   9.464  0.00  0.00     0.040 C 
HETATM    5  C   UNK N   1      35.051  16.663   9.503  0.00  0.00     0.128 C 
HETATM    6  C   UNK N   1      33.968  16.961   8.425  0.00  0.00     0.011 C 
HETATM    7  C   UNK N   1      34.497  16.596   7.024  0.00  0.00     0.018 C 
HETATM    8  C   UNK N   1      33.706  16.928   5.745  0.00  0.00     0.052 C 
HETATM    9  C   UNK N   1      33.698  15.846   4.651  0.00  0.00     0.137 C 
HETATM   10  C   UNK N   1      34.354  14.451   4.692  0.00  0.00     0.081 C 
HETATM   11  C   UNK N   1      35.432  14.165   5.771  0.00  0.00     0.135 C 
HETATM   12  C   UNK N   1      36.104  12.758   5.711  0.00  0.00     0.041 C 
HETATM   13  C   UNK N   1      37.379  12.699   6.612  0.00  0.00     0.137 C 
HETATM   14  O   UNK N   1      37.088  13.043   7.925  0.00  0.00    -0.315 OA
HETATM   15  O   UNK N   1      39.219  13.296   8.599  0.00  0.00    -0.265 OA
HETATM   16  C   UNK N   1      36.802  12.491  10.843  0.00  0.00     0.023 C 
HETATM   17  C   UNK N   1      34.565  14.157   9.704  0.00  0.00     0.015 C 
HETATM   18  C   UNK N   1      32.683  16.194   8.723  0.00  0.00     0.012 C 
HETATM   19  C   UNK N   1      32.258  17.297   6.047  0.00  0.00     0.018 C 
HETATM   20  O   UNK N   1      33.072  16.113   3.634  0.00  0.00    -0.297 OA
HETATM   21  C   UNK N   1      33.226  13.428   4.716  0.00  0.00     0.020 C 
HETATM   22  C   UNK N   1      35.101  11.679   6.110  0.00  0.00     0.015 C 
ENDROOT
BRANCH   3  23
HETATM   23  O   UNK N   1      36.445  15.199  11.748  0.00  0.00    -0.394 OA
HETATM   24  H   UNK N   1      36.831  14.792  12.540  0.00  0.00     0.210 HD
ENDBRANCH   3  23
BRANCH   5  25
HETATM   25  O   UNK N   1      34.540  16.953  10.773  0.00  0.00    -0.395 OA
HETATM   26  H   UNK N   1      34.501  17.818  11.209  0.00  0.00     0.210 HD
ENDBRANCH   5  25
BRANCH  13  27
HETATM   27  C   UNK N   1      38.118  11.350   6.535  0.00  0.00     0.028 C 
HETATM   28  C   UNK N   1      39.272  11.340   5.545  0.00  0.00     0.007 C 
ENDBRANCH  13  27
BRANCH  11  29
HETATM   29  O   UNK N   1      36.426  15.141   5.627  0.00  0.00    -0.394 OA
HETATM   30  H   UNK N   1      37.269  15.604   5.494  0.00  0.00     0.210 HD
ENDBRANCH  11  29
TORSDOF 4
ENDMDL
MODEL 9
REMARK VINA RESULT:      -6.4     12.330     14.082
REMARK  4 active torsions:
REMARK  status: ('A' for Active; 'I' for Inactive)
REMARK    1  A    between atoms: C_3  and  O_19 
REMARK    2  A    between atoms: C_5  and  O_21 
REMARK    3  A    between atoms: C_11  and  O_26 
REMARK    4  A    between atoms: C_13  and  C_14 
ROOT
HETATM    1  C   UNK N   1      23.134  18.255   3.731  0.00  0.00     0.265 C 
HETATM    2  C   UNK N   1      21.630  18.344   3.851  0.00  0.00     0.110 C 
HETATM    3  C   UNK N   1      20.856  17.572   2.737  0.00  0.00     0.137 C 
HETATM    4  C   UNK N   1      21.263  16.088   2.536  0.00  0.00     0.040 C 
HETATM    5  C   UNK N   1      20.602  15.434   1.283  0.00  0.00     0.128 C 
HETATM    6  C   UNK N   1      21.128  14.011   0.933  0.00  0.00     0.011 C 
HETATM    7  C   UNK N   1      22.665  14.024   0.828  0.00  0.00     0.018 C 
HETATM    8  C   UNK N   1      23.456  12.796   0.339  0.00  0.00     0.052 C 
HETATM    9  C   UNK N   1      24.760  12.484   1.093  0.00  0.00     0.137 C 
HETATM   10  C   UNK N   1      25.358  13.228   2.304  0.00  0.00     0.081 C 
HETATM   11  C   UNK N   1      24.825  14.646   2.644  0.00  0.00     0.135 C 
HETATM   12  C   UNK N   1      25.521  15.370   3.838  0.00  0.00     0.041 C 
HETATM   13  C   UNK N   1      25.144  16.886   3.882  0.00  0.00     0.137 C 
HETATM   14  O   UNK N   1      23.769  17.064   3.940  0.00  0.00    -0.315 OA
HETATM   15  O   UNK N   1      23.778  19.263   3.468  0.00  0.00    -0.265 OA
HETATM   16  C   UNK N   1      21.227  17.910   5.252  0.00  0.00     0.023 C 
HETATM   17  C   UNK N   1      21.020  15.275   3.805  0.00  0.00     0.015 C 
HETATM   18  C   UNK N   1      20.675  12.996   1.977  0.00  0.00     0.012 C 
HETATM   19  C   UNK N   1      22.605  11.531   0.336  0.00  0.00     0.018 C 
HETATM   20  O   UNK N   1      25.389  11.510   0.700  0.00  0.00    -0.297 OA
HETATM   21  C   UNK N   1      25.279  12.280   3.493  0.00  0.00     0.020 C 
HETATM   22  C   UNK N   1      25.165  14.679   5.152  0.00  0.00     0.015 C 
ENDROOT
BRANCH   3  23
HETATM   23  O   UNK N   1      19.482  17.672   2.976  0.00  0.00    -0.394 OA
HETATM   24  H   UNK N   1      18.989  18.455   3.271  0.00  0.00     0.210 HD
ENDBRANCH   3  23
BRANCH   5  25
HETATM   25  O   UNK N   1      19.210  15.398   1.423  0.00  0.00    -0.395 OA
HETATM   26  H   UNK N   1      18.561  15.075   0.779  0.00  0.00     0.210 HD
ENDBRANCH   5  25
BRANCH  13  27
HETATM   27  C   UNK N   1      25.860  17.660   5.003  0.00  0.00     0.028 C 
HETATM   28  C   UNK N   1      27.092  18.419   4.535  0.00  0.00     0.007 C 
ENDBRANCH  13  27
BRANCH  11  29
HETATM   29  O   UNK N   1      24.982  15.431   1.494  0.00  0.00    -0.394 OA
HETATM   30  H   UNK N   1      25.343  15.976   0.777  0.00  0.00     0.210 HD
ENDBRANCH  11  29
TORSDOF 4
ENDMDL
