MODEL 1
REMARK VINA RESULT:      -5.1      0.000      0.000
REMARK  3 active torsions:
REMARK  status: ('A' for Active; 'I' for Inactive)
REMARK    1  A    between atoms: C_2  and  O_3 
REMARK    2  A    between atoms: C_2  and  C_6 
REMARK    3  A    between atoms: O_3  and  C_4 
ROOT
HETATM    1  C   UNK N   1      33.581  17.104   8.619  0.00  0.00     0.086 A 
HETATM    2  C   UNK N   1      32.212  17.048   8.782  0.00  0.00     0.040 A 
HETATM    3  C   UNK N   1      31.199  17.972   8.202  0.00  0.00     0.071 C 
HETATM    4  C   UNK N   1      34.062  16.037   9.351  0.00  0.00     0.040 A 
HETATM    5  C   UNK N   1      35.485  15.629   9.521  0.00  0.00     0.071 C 
HETATM    6  N   UNK N   1      33.028  15.386   9.915  0.00  0.00    -0.304 N 
HETATM    7  N   UNK N   1      31.903  16.000   9.570  0.00  0.00    -0.304 N 
ATOM      8  HN  UNK N   1      30.963  15.725   9.854  1.00  0.00     0.186 HD
HETATM    9  H   UNK N   1      33.094  14.589  10.488  0.00  0.00     0.186 HD
ENDROOT
BRANCH   1  10
HETATM   10  C   UNK N   1      34.367  18.082   7.840  0.00  0.00     0.297 C 
HETATM   11  O   UNK N   1      34.885  19.039   8.398  0.00  0.00    -0.259 OA
BRANCH  10  12
HETATM   12  O   UNK N   1      34.504  17.905   6.505  0.00  0.00    -0.318 OA
BRANCH  12  13
HETATM   13  C   UNK N   1      33.896  16.886   5.817  0.00  0.00     0.174 C 
HETATM   14  C   UNK N   1      32.956  17.480   4.792  0.00  0.00     0.034 C 
ENDBRANCH  12  13
ENDBRANCH  10  12
ENDBRANCH   1  10
TORSDOF 3
ENDMDL
MODEL 2
REMARK VINA RESULT:      -5.1      0.012      2.314
REMARK  3 active torsions:
REMARK  status: ('A' for Active; 'I' for Inactive)
REMARK    1  A    between atoms: C_2  and  O_3 
REMARK    2  A    between atoms: C_2  and  C_6 
REMARK    3  A    between atoms: O_3  and  C_4 
ROOT
HETATM    1  C   UNK N   1      33.592  17.095   8.620  0.00  0.00     0.086 A 
HETATM    2  C   UNK N   1      34.070  16.029   9.353  0.00  0.00     0.040 A 
HETATM    3  C   UNK N   1      35.493  15.624   9.526  0.00  0.00     0.071 C 
HETATM    4  C   UNK N   1      32.221  17.038   8.778  0.00  0.00     0.040 A 
HETATM    5  C   UNK N   1      31.207  17.961   8.194  0.00  0.00     0.071 C 
HETATM    6  N   UNK N   1      31.910  15.990   9.564  0.00  0.00    -0.304 N 
HETATM    7  N   UNK N   1      33.033  15.377   9.914  0.00  0.00    -0.304 N 
ATOM      8  HN  UNK N   1      33.101  14.550  10.508  1.00  0.00     0.186 HD
HETATM    9  H   UNK N   1      31.002  15.724   9.834  0.00  0.00     0.186 HD
ENDROOT
BRANCH   1  10
HETATM   10  C   UNK N   1      34.362  18.083   7.838  0.00  0.00     0.297 C 
HETATM   11  O   UNK N   1      34.877  19.042   8.396  0.00  0.00    -0.259 OA
BRANCH  10  12
HETATM   12  O   UNK N   1      34.490  17.913   6.501  0.00  0.00    -0.318 OA
BRANCH  12  13
HETATM   13  C   UNK N   1      33.892  16.886   5.815  0.00  0.00     0.174 C 
HETATM   14  C   UNK N   1      32.951  17.470   4.785  0.00  0.00     0.034 C 
ENDBRANCH  12  13
ENDBRANCH  10  12
ENDBRANCH   1  10
TORSDOF 3
ENDMDL
MODEL 3
REMARK VINA RESULT:      -4.8     11.345     12.615
REMARK  3 active torsions:
REMARK  status: ('A' for Active; 'I' for Inactive)
REMARK    1  A    between atoms: C_2  and  O_3 
REMARK    2  A    between atoms: C_2  and  C_6 
REMARK    3  A    between atoms: O_3  and  C_4 
ROOT
HETATM    1  C   UNK N   1      22.184  12.793  10.330  0.00  0.00     0.086 A 
HETATM    2  C   UNK N   1      21.674  12.168  11.448  0.00  0.00     0.040 A 
HETATM    3  C   UNK N   1      20.238  12.007  11.812  0.00  0.00     0.071 C 
HETATM    4  C   UNK N   1      23.553  12.673  10.459  0.00  0.00     0.040 A 
HETATM    5  C   UNK N   1      24.596  13.177   9.521  0.00  0.00     0.071 C 
HETATM    6  N   UNK N   1      23.833  12.011  11.598  0.00  0.00    -0.304 N 
HETATM    7  N   UNK N   1      22.691  11.703  12.199  0.00  0.00    -0.304 N 
ATOM      8  HN  UNK N   1      22.599  11.200  13.081  1.00  0.00     0.186 HD
HETATM    9  H   UNK N   1      24.733  11.791  11.929  0.00  0.00     0.186 HD
ENDROOT
BRANCH   1  10
HETATM   10  C   UNK N   1      21.443  13.448   9.233  0.00  0.00     0.297 C 
HETATM   11  O   UNK N   1      20.999  12.782   8.307  0.00  0.00    -0.259 OA
BRANCH  10  12
HETATM   12  O   UNK N   1      21.261  14.789   9.266  0.00  0.00    -0.318 OA
BRANCH  12  13
HETATM   13  C   UNK N   1      20.060  15.390   8.985  0.00  0.00     0.174 C 
HETATM   14  C   UNK N   1      20.321  16.659   8.203  0.00  0.00     0.034 C 
ENDBRANCH  12  13
ENDBRANCH  10  12
ENDBRANCH   1  10
TORSDOF 3
ENDMDL
MODEL 4
REMARK VINA RESULT:      -4.7     15.460     17.407
REMARK  3 active torsions:
REMARK  status: ('A' for Active; 'I' for Inactive)
REMARK    1  A    between atoms: C_2  and  O_3 
REMARK    2  A    between atoms: C_2  and  C_6 
REMARK    3  A    between atoms: O_3  and  C_4 
ROOT
HETATM    1  C   UNK N   1      26.200  25.943  -4.222  0.00  0.00     0.086 A 
HETATM    2  C   UNK N   1      26.568  24.622  -4.073  0.00  0.00     0.040 A 
HETATM    3  C   UNK N   1      27.474  24.053  -3.036  0.00  0.00     0.071 C 
HETATM    4  C   UNK N   1      25.359  25.947  -5.317  0.00  0.00     0.040 A 
HETATM    5  C   UNK N   1      24.670  27.122  -5.920  0.00  0.00     0.071 C 
HETATM    6  N   UNK N   1      25.238  24.691  -5.786  0.00  0.00    -0.304 N 
HETATM    7  N   UNK N   1      25.973  23.885  -5.031  0.00  0.00    -0.304 N 
ATOM      8  HN  UNK N   1      26.071  22.878  -5.154  1.00  0.00     0.186 HD
HETATM    9  H   UNK N   1      24.696  24.416  -6.560  0.00  0.00     0.186 HD
ENDROOT
BRANCH   1  10
HETATM   10  C   UNK N   1      26.609  27.101  -3.403  0.00  0.00     0.297 C 
HETATM   11  O   UNK N   1      25.848  27.557  -2.560  0.00  0.00    -0.259 OA
BRANCH  10  12
HETATM   12  O   UNK N   1      27.831  27.650  -3.596  0.00  0.00    -0.318 OA
BRANCH  12  13
HETATM   13  C   UNK N   1      28.244  28.155  -4.802  0.00  0.00     0.174 C 
HETATM   14  C   UNK N   1      27.463  29.417  -5.096  0.00  0.00     0.034 C 
ENDBRANCH  12  13
ENDBRANCH  10  12
ENDBRANCH   1  10
TORSDOF 3
ENDMDL
MODEL 5
REMARK VINA RESULT:      -4.7     15.461     17.269
REMARK  3 active torsions:
REMARK  status: ('A' for Active; 'I' for Inactive)
REMARK    1  A    between atoms: C_2  and  O_3 
REMARK    2  A    between atoms: C_2  and  C_6 
REMARK    3  A    between atoms: O_3  and  C_4 
ROOT
HETATM    1  C   UNK N   1      26.197  25.954  -4.230  0.00  0.00     0.086 A 
HETATM    2  C   UNK N   1      25.350  25.953  -5.319  0.00  0.00     0.040 A 
HETATM    3  C   UNK N   1      24.657  27.127  -5.919  0.00  0.00     0.071 C 
HETATM    4  C   UNK N   1      26.569  24.633  -4.079  0.00  0.00     0.040 A 
HETATM    5  C   UNK N   1      27.481  24.065  -3.047  0.00  0.00     0.071 C 
HETATM    6  N   UNK N   1      25.970  23.893  -5.032  0.00  0.00    -0.304 N 
HETATM    7  N   UNK N   1      25.229  24.695  -5.785  0.00  0.00    -0.304 N 
ATOM      8  HN  UNK N   1      24.664  24.408  -6.584  1.00  0.00     0.186 HD
HETATM    9  H   UNK N   1      26.066  22.921  -5.150  0.00  0.00     0.186 HD
ENDROOT
BRANCH   1  10
HETATM   10  C   UNK N   1      26.619  27.102  -3.403  0.00  0.00     0.297 C 
HETATM   11  O   UNK N   1      25.868  27.553  -2.548  0.00  0.00    -0.259 OA
BRANCH  10  12
HETATM   12  O   UNK N   1      27.841  27.647  -3.604  0.00  0.00    -0.318 OA
BRANCH  12  13
HETATM   13  C   UNK N   1      28.261  28.121  -4.821  0.00  0.00     0.174 C 
HETATM   14  C   UNK N   1      27.495  29.386  -5.143  0.00  0.00     0.034 C 
ENDBRANCH  12  13
ENDBRANCH  10  12
ENDBRANCH   1  10
TORSDOF 3
ENDMDL
MODEL 6
REMARK VINA RESULT:      -4.6     10.964     12.356
REMARK  3 active torsions:
REMARK  status: ('A' for Active; 'I' for Inactive)
REMARK    1  A    between atoms: C_2  and  O_3 
REMARK    2  A    between atoms: C_2  and  C_6 
REMARK    3  A    between atoms: O_3  and  C_4 
ROOT
HETATM    1  C   UNK N   1      22.565  12.864   9.751  0.00  0.00     0.086 A 
HETATM    2  C   UNK N   1      23.942  12.922   9.803  0.00  0.00     0.040 A 
HETATM    3  C   UNK N   1      24.867  13.333   8.710  0.00  0.00     0.071 C 
HETATM    4  C   UNK N   1      22.188  12.429  11.006  0.00  0.00     0.040 A 
HETATM    5  C   UNK N   1      20.803  12.191  11.500  0.00  0.00     0.071 C 
HETATM    6  N   UNK N   1      23.290  12.241  11.758  0.00  0.00    -0.304 N 
HETATM    7  N   UNK N   1      24.356  12.540  11.027  0.00  0.00    -0.304 N 
ATOM      8  HN  UNK N   1      25.325  12.490  11.339  1.00  0.00     0.186 HD
HETATM    9  H   UNK N   1      23.302  11.933  12.693  0.00  0.00     0.186 HD
ENDROOT
BRANCH   1  10
HETATM   10  C   UNK N   1      21.681  13.191   8.614  0.00  0.00     0.297 C 
HETATM   11  O   UNK N   1      21.137  12.297   7.981  0.00  0.00    -0.259 OA
BRANCH  10  12
HETATM   12  O   UNK N   1      21.482  14.489   8.284  0.00  0.00    -0.318 OA
BRANCH  12  13
HETATM   13  C   UNK N   1      20.703  15.340   9.026  0.00  0.00     0.174 C 
HETATM   14  C   UNK N   1      19.838  16.153   8.088  0.00  0.00     0.034 C 
ENDBRANCH  12  13
ENDBRANCH  10  12
ENDBRANCH   1  10
TORSDOF 3
ENDMDL
MODEL 7
REMARK VINA RESULT:      -4.5     10.990     12.001
REMARK  3 active torsions:
REMARK  status: ('A' for Active; 'I' for Inactive)
REMARK    1  A    between atoms: C_2  and  O_3 
REMARK    2  A    between atoms: C_2  and  C_6 
REMARK    3  A    between atoms: O_3  and  C_4 
ROOT
HETATM    1  C   UNK N   1      42.304  21.603   2.838  0.00  0.00     0.086 A 
HETATM    2  C   UNK N   1      43.215  22.411   3.485  0.00  0.00     0.040 A 
HETATM    3  C   UNK N   1      44.224  21.995   4.500  0.00  0.00     0.071 C 
HETATM    4  C   UNK N   1      41.608  22.460   2.009  0.00  0.00     0.040 A 
HETATM    5  C   UNK N   1      40.499  22.111   1.077  0.00  0.00     0.071 C 
HETATM    6  N   UNK N   1      42.088  23.709   2.161  0.00  0.00    -0.304 N 
HETATM    7  N   UNK N   1      43.064  23.680   3.059  0.00  0.00    -0.304 N 
ATOM      8  HN  UNK N   1      43.609  24.483   3.373  1.00  0.00     0.186 HD
HETATM    9  H   UNK N   1      41.768  24.510   1.687  0.00  0.00     0.186 HD
ENDROOT
BRANCH   1  10
HETATM   10  C   UNK N   1      42.106  20.148   2.990  0.00  0.00     0.297 C 
HETATM   11  O   UNK N   1      41.302  19.718   3.805  0.00  0.00    -0.259 OA
BRANCH  10  12
HETATM   12  O   UNK N   1      42.825  19.299   2.217  0.00  0.00    -0.318 OA
BRANCH  12  13
HETATM   13  C   UNK N   1      43.538  18.243   2.727  0.00  0.00     0.174 C 
HETATM   14  C   UNK N   1      44.955  18.697   2.999  0.00  0.00     0.034 C 
ENDBRANCH  12  13
ENDBRANCH  10  12
ENDBRANCH   1  10
TORSDOF 3
ENDMDL
MODEL 8
REMARK VINA RESULT:      -4.5      9.223     10.500
REMARK  3 active torsions:
REMARK  status: ('A' for Active; 'I' for Inactive)
REMARK    1  A    between atoms: C_2  and  O_3 
REMARK    2  A    between atoms: C_2  and  C_6 
REMARK    3  A    between atoms: O_3  and  C_4 
ROOT
HETATM    1  C   UNK N   1      35.263  12.690  17.418  0.00  0.00     0.086 A 
HETATM    2  C   UNK N   1      35.250  11.463  18.049  0.00  0.00     0.040 A 
HETATM    3  C   UNK N   1      35.216  10.121  17.403  0.00  0.00     0.071 C 
HETATM    4  C   UNK N   1      35.294  13.609  18.448  0.00  0.00     0.040 A 
HETATM    5  C   UNK N   1      35.319  15.094  18.331  0.00  0.00     0.071 C 
HETATM    6  N   UNK N   1      35.300  12.954  19.625  0.00  0.00    -0.304 N 
HETATM    7  N   UNK N   1      35.273  11.650  19.382  0.00  0.00    -0.304 N 
ATOM      8  HN  UNK N   1      35.271  10.913  20.087  1.00  0.00     0.186 HD
HETATM    9  H   UNK N   1      35.321  13.372  20.515  0.00  0.00     0.186 HD
ENDROOT
BRANCH   1  10
HETATM   10  C   UNK N   1      35.246  12.970  15.968  0.00  0.00     0.297 C 
HETATM   11  O   UNK N   1      34.186  12.994  15.359  0.00  0.00    -0.259 OA
BRANCH  10  12
HETATM   12  O   UNK N   1      36.416  13.199  15.326  0.00  0.00    -0.318 OA
BRANCH  12  13
HETATM   13  C   UNK N   1      36.786  12.537  14.183  0.00  0.00     0.174 C 
HETATM   14  C   UNK N   1      37.590  11.314  14.566  0.00  0.00     0.034 C 
ENDBRANCH  12  13
ENDBRANCH  10  12
ENDBRANCH   1  10
TORSDOF 3
ENDMDL
MODEL 9
REMARK VINA RESULT:      -4.4     12.621     14.203
REMARK  3 active torsions:
REMARK  status: ('A' for Active; 'I' for Inactive)
REMARK    1  A    between atoms: C_2  and  O_3 
REMARK    2  A    between atoms: C_2  and  C_6 
REMARK    3  A    between atoms: O_3  and  C_4 
ROOT
HETATM    1  C   UNK N   1      20.468  18.860   2.607  0.00  0.00     0.086 A 
HETATM    2  C   UNK N   1      19.961  17.581   2.706  0.00  0.00     0.040 A 
HETATM    3  C   UNK N   1      19.735  16.797   3.953  0.00  0.00     0.071 C 
HETATM    4  C   UNK N   1      20.477  19.126   1.253  0.00  0.00     0.040 A 
HETATM    5  C   UNK N   1      20.932  20.377   0.582  0.00  0.00     0.071 C 
HETATM    6  N   UNK N   1      19.999  18.057   0.589  0.00  0.00    -0.304 N 
HETATM    7  N   UNK N   1      19.684  17.118   1.472  0.00  0.00    -0.304 N 
ATOM      8  HN  UNK N   1      19.299  16.199   1.254  1.00  0.00     0.186 HD
HETATM    9  H   UNK N   1      19.898  17.983  -0.387  0.00  0.00     0.186 HD
ENDROOT
BRANCH   1  10
HETATM   10  C   UNK N   1      20.907  19.754   3.698  0.00  0.00     0.297 C 
HETATM   11  O   UNK N   1      20.234  20.729   4.003  0.00  0.00    -0.259 OA
BRANCH  10  12
HETATM   12  O   UNK N   1      22.060  19.480   4.353  0.00  0.00    -0.318 OA
BRANCH  12  13
HETATM   13  C   UNK N   1      23.222  19.131   3.712  0.00  0.00     0.174 C 
HETATM   14  C   UNK N   1      23.844  20.376   3.117  0.00  0.00     0.034 C 
ENDBRANCH  12  13
ENDBRANCH  10  12
ENDBRANCH   1  10
TORSDOF 3
ENDMDL
