MODEL 1
REMARK VINA RESULT:      -4.6      0.000      0.000
REMARK  11 active torsions:
REMARK  status: ('A' for Active; 'I' for Inactive)
REMARK    1  A    between atoms: C_1  and  O_12 
REMARK    2  A    between atoms: C_1  and  O_13 
REMARK    3  A    between atoms: C_2  and  C_3 
REMARK    4  A    between atoms: C_2  and  O_12 
REMARK    5  A    between atoms: C_3  and  C_4 
REMARK    6  A    between atoms: C_4  and  C_5 
REMARK    7  A    between atoms: C_5  and  C_6 
REMARK    8  A    between atoms: C_6  and  C_7 
REMARK    9  A    between atoms: C_7  and  C_8 
REMARK   10  A    between atoms: C_8  and  C_9 
REMARK   11  A    between atoms: C_9  and  C_10 
ROOT
HETATM    1  C   UNK N   1      28.649  24.847  -3.627  0.00  0.00     0.002 C 
ENDROOT
BRANCH   1   2
HETATM    2  C   UNK N   1      29.411  23.544  -3.602  0.00  0.00     0.026 C 
BRANCH   2   3
HETATM    3  C   UNK N   1      29.494  23.032  -2.185  0.00  0.00     0.170 C 
BRANCH   3   4
HETATM    4  O   UNK N   1      30.831  22.958  -1.811  0.00  0.00    -0.367 OA
BRANCH   4   5
HETATM    5  C   UNK N   1      31.407  22.097  -2.741  0.00  0.00     0.334 C 
BRANCH   5   6
HETATM    6  O   UNK N   1      32.359  21.302  -2.108  0.00  0.00    -0.377 OA
HETATM    7  H   UNK N   1      32.574  21.455  -1.174  0.00  0.00     0.212 HD
ENDBRANCH   5   6
ENDBRANCH   4   5
ENDBRANCH   3   4
ENDBRANCH   2   3
ENDBRANCH   1   2
BRANCH   1   8
HETATM    8  C   UNK N   1      27.181  24.514  -3.673  0.00  0.00     0.000 C 
BRANCH   8   9
HETATM    9  C   UNK N   1      26.782  24.081  -5.062  0.00  0.00     0.000 C 
BRANCH   9  10
HETATM   10  C   UNK N   1      25.441  24.707  -5.348  0.00  0.00     0.000 C 
BRANCH  10  11
HETATM   11  C   UNK N   1      25.595  25.923  -6.225  0.00  0.00     0.000 C 
BRANCH  11  12
HETATM   12  C   UNK N   1      24.759  27.025  -5.619  0.00  0.00    -0.000 C 
BRANCH  12  13
HETATM   13  C   UNK N   1      25.617  27.912  -4.748  0.00  0.00    -0.005 C 
HETATM   14  C   UNK N   1      26.892  28.237  -5.495  0.00  0.00     0.005 C 
ENDBRANCH  12  13
ENDBRANCH  11  12
ENDBRANCH  10  11
ENDBRANCH   9  10
ENDBRANCH   8   9
ENDBRANCH   1   8
TORSDOF 11
ENDMDL
MODEL 2
REMARK VINA RESULT:      -4.3     12.226     14.944
REMARK  11 active torsions:
REMARK  status: ('A' for Active; 'I' for Inactive)
REMARK    1  A    between atoms: C_1  and  O_12 
REMARK    2  A    between atoms: C_1  and  O_13 
REMARK    3  A    between atoms: C_2  and  C_3 
REMARK    4  A    between atoms: C_2  and  O_12 
REMARK    5  A    between atoms: C_3  and  C_4 
REMARK    6  A    between atoms: C_4  and  C_5 
REMARK    7  A    between atoms: C_5  and  C_6 
REMARK    8  A    between atoms: C_6  and  C_7 
REMARK    9  A    between atoms: C_7  and  C_8 
REMARK   10  A    between atoms: C_8  and  C_9 
REMARK   11  A    between atoms: C_9  and  C_10 
ROOT
HETATM    1  C   UNK N   1      32.957  18.305   8.197  0.00  0.00     0.002 C 
ENDROOT
BRANCH   1   2
HETATM    2  C   UNK N   1      34.395  17.883   8.016  0.00  0.00     0.026 C 
BRANCH   2   3
HETATM    3  C   UNK N   1      34.756  16.852   9.057  0.00  0.00     0.170 C 
BRANCH   3   4
HETATM    4  O   UNK N   1      35.404  17.486  10.112  0.00  0.00    -0.367 OA
BRANCH   4   5
HETATM    5  C   UNK N   1      35.675  16.466  11.020  0.00  0.00     0.334 C 
BRANCH   5   6
HETATM    6  O   UNK N   1      36.990  16.040  10.857  0.00  0.00    -0.377 OA
HETATM    7  H   UNK N   1      37.295  15.230  11.296  0.00  0.00     0.212 HD
ENDBRANCH   5   6
ENDBRANCH   4   5
ENDBRANCH   3   4
ENDBRANCH   2   3
ENDBRANCH   1   2
BRANCH   1   8
HETATM    8  C   UNK N   1      32.115  17.056   8.210  0.00  0.00     0.000 C 
BRANCH   8   9
HETATM    9  C   UNK N   1      30.674  17.389   7.917  0.00  0.00     0.000 C 
BRANCH   9  10
HETATM   10  C   UNK N   1      30.218  18.349   8.987  0.00  0.00     0.000 C 
BRANCH  10  11
HETATM   11  C   UNK N   1      28.729  18.567   8.910  0.00  0.00     0.000 C 
BRANCH  11  12
HETATM   12  C   UNK N   1      28.335  18.481   7.455  0.00  0.00    -0.000 C 
BRANCH  12  13
HETATM   13  C   UNK N   1      27.746  19.793   6.995  0.00  0.00    -0.005 C 
HETATM   14  C   UNK N   1      27.780  19.837   5.483  0.00  0.00     0.005 C 
ENDBRANCH  12  13
ENDBRANCH  11  12
ENDBRANCH  10  11
ENDBRANCH   9  10
ENDBRANCH   8   9
ENDBRANCH   1   8
TORSDOF 11
ENDMDL
MODEL 3
REMARK VINA RESULT:      -4.2      9.770     11.568
REMARK  11 active torsions:
REMARK  status: ('A' for Active; 'I' for Inactive)
REMARK    1  A    between atoms: C_1  and  O_12 
REMARK    2  A    between atoms: C_1  and  O_13 
REMARK    3  A    between atoms: C_2  and  C_3 
REMARK    4  A    between atoms: C_2  and  O_12 
REMARK    5  A    between atoms: C_3  and  C_4 
REMARK    6  A    between atoms: C_4  and  C_5 
REMARK    7  A    between atoms: C_5  and  C_6 
REMARK    8  A    between atoms: C_6  and  C_7 
REMARK    9  A    between atoms: C_7  and  C_8 
REMARK   10  A    between atoms: C_8  and  C_9 
REMARK   11  A    between atoms: C_9  and  C_10 
ROOT
HETATM    1  C   UNK N   1      22.844  18.552   4.139  0.00  0.00     0.002 C 
ENDROOT
BRANCH   1   2
HETATM    2  C   UNK N   1      21.796  19.487   3.585  0.00  0.00     0.026 C 
BRANCH   2   3
HETATM    3  C   UNK N   1      22.453  20.526   2.710  0.00  0.00     0.170 C 
BRANCH   3   4
HETATM    4  O   UNK N   1      21.466  21.245   2.045  0.00  0.00    -0.367 OA
BRANCH   4   5
HETATM    5  C   UNK N   1      20.931  20.341   1.132  0.00  0.00     0.334 C 
BRANCH   5   6
HETATM    6  O   UNK N   1      20.763  20.972  -0.098  0.00  0.00    -0.377 OA
HETATM    7  H   UNK N   1      21.467  21.539  -0.451  0.00  0.00     0.212 HD
ENDBRANCH   5   6
ENDBRANCH   4   5
ENDBRANCH   3   4
ENDBRANCH   2   3
ENDBRANCH   1   2
BRANCH   1   8
HETATM    8  C   UNK N   1      24.192  19.156   3.844  0.00  0.00     0.000 C 
BRANCH   8   9
HETATM    9  C   UNK N   1      25.290  18.308   4.435  0.00  0.00     0.000 C 
BRANCH   9  10
HETATM   10  C   UNK N   1      26.557  18.651   3.695  0.00  0.00     0.000 C 
BRANCH  10  11
HETATM   11  C   UNK N   1      27.028  20.037   4.055  0.00  0.00     0.000 C 
BRANCH  11  12
HETATM   12  C   UNK N   1      27.522  19.989   5.481  0.00  0.00    -0.000 C 
BRANCH  12  13
HETATM   13  C   UNK N   1      27.457  21.365   6.102  0.00  0.00    -0.005 C 
HETATM   14  C   UNK N   1      26.222  21.446   6.972  0.00  0.00     0.005 C 
ENDBRANCH  12  13
ENDBRANCH  11  12
ENDBRANCH  10  11
ENDBRANCH   9  10
ENDBRANCH   8   9
ENDBRANCH   1   8
TORSDOF 11
ENDMDL
MODEL 4
REMARK VINA RESULT:      -4.1     12.906     13.891
REMARK  11 active torsions:
REMARK  status: ('A' for Active; 'I' for Inactive)
REMARK    1  A    between atoms: C_1  and  O_12 
REMARK    2  A    between atoms: C_1  and  O_13 
REMARK    3  A    between atoms: C_2  and  C_3 
REMARK    4  A    between atoms: C_2  and  O_12 
REMARK    5  A    between atoms: C_3  and  C_4 
REMARK    6  A    between atoms: C_4  and  C_5 
REMARK    7  A    between atoms: C_5  and  C_6 
REMARK    8  A    between atoms: C_6  and  C_7 
REMARK    9  A    between atoms: C_7  and  C_8 
REMARK   10  A    between atoms: C_8  and  C_9 
REMARK   11  A    between atoms: C_9  and  C_10 
ROOT
HETATM    1  C   UNK N   1      31.828  17.302   5.181  0.00  0.00     0.002 C 
ENDROOT
BRANCH   1   2
HETATM    2  C   UNK N   1      33.286  17.540   5.495  0.00  0.00     0.026 C 
BRANCH   2   3
HETATM    3  C   UNK N   1      33.713  16.646   6.632  0.00  0.00     0.170 C 
BRANCH   3   4
HETATM    4  O   UNK N   1      34.755  17.258   7.319  0.00  0.00    -0.367 OA
BRANCH   4   5
HETATM    5  C   UNK N   1      34.148  18.289   8.031  0.00  0.00     0.334 C 
BRANCH   5   6
HETATM    6  O   UNK N   1      35.111  19.224   8.400  0.00  0.00    -0.377 OA
HETATM    7  H   UNK N   1      34.922  19.859   9.109  0.00  0.00     0.212 HD
ENDBRANCH   5   6
ENDBRANCH   4   5
ENDBRANCH   3   4
ENDBRANCH   2   3
ENDBRANCH   1   2
BRANCH   1   8
HETATM    8  C   UNK N   1      31.323  16.256   6.139  0.00  0.00     0.000 C 
BRANCH   8   9
HETATM    9  C   UNK N   1      29.817  16.294   6.215  0.00  0.00     0.000 C 
BRANCH   9  10
HETATM   10  C   UNK N   1      29.409  17.741   6.102  0.00  0.00     0.000 C 
BRANCH  10  11
HETATM   11  C   UNK N   1      28.037  17.957   6.689  0.00  0.00     0.000 C 
BRANCH  11  12
HETATM   12  C   UNK N   1      28.192  18.897   7.860  0.00  0.00    -0.000 C 
BRANCH  12  13
HETATM   13  C   UNK N   1      28.356  18.114   9.141  0.00  0.00    -0.005 C 
HETATM   14  C   UNK N   1      29.649  18.534   9.804  0.00  0.00     0.005 C 
ENDBRANCH  12  13
ENDBRANCH  11  12
ENDBRANCH  10  11
ENDBRANCH   9  10
ENDBRANCH   8   9
ENDBRANCH   1   8
TORSDOF 11
ENDMDL
MODEL 5
REMARK VINA RESULT:      -4.0     20.557     24.232
REMARK  11 active torsions:
REMARK  status: ('A' for Active; 'I' for Inactive)
REMARK    1  A    between atoms: C_1  and  O_12 
REMARK    2  A    between atoms: C_1  and  O_13 
REMARK    3  A    between atoms: C_2  and  C_3 
REMARK    4  A    between atoms: C_2  and  O_12 
REMARK    5  A    between atoms: C_3  and  C_4 
REMARK    6  A    between atoms: C_4  and  C_5 
REMARK    7  A    between atoms: C_5  and  C_6 
REMARK    8  A    between atoms: C_6  and  C_7 
REMARK    9  A    between atoms: C_7  and  C_8 
REMARK   10  A    between atoms: C_8  and  C_9 
REMARK   11  A    between atoms: C_9  and  C_10 
ROOT
HETATM    1  C   UNK N   1      34.489  11.644  13.493  0.00  0.00     0.002 C 
ENDROOT
BRANCH   1   2
HETATM    2  C   UNK N   1      35.390  12.780  13.910  0.00  0.00     0.026 C 
BRANCH   2   3
HETATM    3  C   UNK N   1      35.755  13.608  12.703  0.00  0.00     0.170 C 
BRANCH   3   4
HETATM    4  O   UNK N   1      34.603  14.206  12.204  0.00  0.00    -0.367 OA
BRANCH   4   5
HETATM    5  C   UNK N   1      35.068  15.213  11.363  0.00  0.00     0.334 C 
BRANCH   5   6
HETATM    6  O   UNK N   1      36.367  15.558  11.729  0.00  0.00    -0.377 OA
HETATM    7  H   UNK N   1      37.113  15.306  11.162  0.00  0.00     0.212 HD
ENDBRANCH   5   6
ENDBRANCH   4   5
ENDBRANCH   3   4
ENDBRANCH   2   3
ENDBRANCH   1   2
BRANCH   1   8
HETATM    8  C   UNK N   1      33.881  11.064  14.744  0.00  0.00     0.000 C 
BRANCH   8   9
HETATM    9  C   UNK N   1      34.735   9.938  15.271  0.00  0.00     0.000 C 
BRANCH   9  10
HETATM   10  C   UNK N   1      34.762  10.073  16.772  0.00  0.00     0.000 C 
BRANCH  10  11
HETATM   11  C   UNK N   1      35.716  11.160  17.194  0.00  0.00     0.000 C 
BRANCH  11  12
HETATM   12  C   UNK N   1      35.476  11.427  18.661  0.00  0.00    -0.000 C 
BRANCH  12  13
HETATM   13  C   UNK N   1      35.100  12.874  18.873  0.00  0.00    -0.005 C 
HETATM   14  C   UNK N   1      35.175  13.594  17.544  0.00  0.00     0.005 C 
ENDBRANCH  12  13
ENDBRANCH  11  12
ENDBRANCH  10  11
ENDBRANCH   9  10
ENDBRANCH   8   9
ENDBRANCH   1   8
TORSDOF 11
ENDMDL
MODEL 6
REMARK VINA RESULT:      -3.9     17.056     19.022
REMARK  11 active torsions:
REMARK  status: ('A' for Active; 'I' for Inactive)
REMARK    1  A    between atoms: C_1  and  O_12 
REMARK    2  A    between atoms: C_1  and  O_13 
REMARK    3  A    between atoms: C_2  and  C_3 
REMARK    4  A    between atoms: C_2  and  O_12 
REMARK    5  A    between atoms: C_3  and  C_4 
REMARK    6  A    between atoms: C_4  and  C_5 
REMARK    7  A    between atoms: C_5  and  C_6 
REMARK    8  A    between atoms: C_6  and  C_7 
REMARK    9  A    between atoms: C_7  and  C_8 
REMARK   10  A    between atoms: C_8  and  C_9 
REMARK   11  A    between atoms: C_9  and  C_10 
ROOT
HETATM    1  C   UNK N   1      21.220  14.219   8.217  0.00  0.00     0.002 C 
ENDROOT
BRANCH   1   2
HETATM    2  C   UNK N   1      20.397  15.162   7.374  0.00  0.00     0.026 C 
BRANCH   2   3
HETATM    3  C   UNK N   1      19.842  16.266   8.240  0.00  0.00     0.170 C 
BRANCH   3   4
HETATM    4  O   UNK N   1      18.501  16.454   7.925  0.00  0.00    -0.367 OA
BRANCH   4   5
HETATM    5  C   UNK N   1      17.948  17.017   9.072  0.00  0.00     0.334 C 
BRANCH   5   6
HETATM    6  O   UNK N   1      18.596  18.215   9.358  0.00  0.00    -0.377 OA
HETATM    7  H   UNK N   1      19.360  18.491   8.828  0.00  0.00     0.212 HD
ENDBRANCH   5   6
ENDBRANCH   4   5
ENDBRANCH   3   4
ENDBRANCH   2   3
ENDBRANCH   1   2
BRANCH   1   8
HETATM    8  C   UNK N   1      20.785  14.393   9.648  0.00  0.00     0.000 C 
BRANCH   8   9
HETATM    9  C   UNK N   1      20.826  13.072  10.376  0.00  0.00     0.000 C 
BRANCH   9  10
HETATM   10  C   UNK N   1      21.950  12.272   9.769  0.00  0.00     0.000 C 
BRANCH  10  11
HETATM   11  C   UNK N   1      22.973  11.910  10.814  0.00  0.00     0.000 C 
BRANCH  11  12
HETATM   12  C   UNK N   1      24.316  12.388  10.315  0.00  0.00    -0.000 C 
BRANCH  12  13
HETATM   13  C   UNK N   1      24.362  12.331   8.807  0.00  0.00    -0.005 C 
HETATM   14  C   UNK N   1      25.045  13.580   8.295  0.00  0.00     0.005 C 
ENDBRANCH  12  13
ENDBRANCH  11  12
ENDBRANCH  10  11
ENDBRANCH   9  10
ENDBRANCH   8   9
ENDBRANCH   1   8
TORSDOF 11
ENDMDL
MODEL 7
REMARK VINA RESULT:      -3.9     11.311     13.281
REMARK  11 active torsions:
REMARK  status: ('A' for Active; 'I' for Inactive)
REMARK    1  A    between atoms: C_1  and  O_12 
REMARK    2  A    between atoms: C_1  and  O_13 
REMARK    3  A    between atoms: C_2  and  C_3 
REMARK    4  A    between atoms: C_2  and  O_12 
REMARK    5  A    between atoms: C_3  and  C_4 
REMARK    6  A    between atoms: C_4  and  C_5 
REMARK    7  A    between atoms: C_5  and  C_6 
REMARK    8  A    between atoms: C_6  and  C_7 
REMARK    9  A    between atoms: C_7  and  C_8 
REMARK   10  A    between atoms: C_8  and  C_9 
REMARK   11  A    between atoms: C_9  and  C_10 
ROOT
HETATM    1  C   UNK N   1      30.078  18.466   9.114  0.00  0.00     0.002 C 
ENDROOT
BRANCH   1   2
HETATM    2  C   UNK N   1      31.127  17.567   8.506  0.00  0.00     0.026 C 
BRANCH   2   3
HETATM    3  C   UNK N   1      32.407  18.341   8.310  0.00  0.00     0.170 C 
BRANCH   3   4
HETATM    4  O   UNK N   1      33.482  17.529   8.655  0.00  0.00    -0.367 OA
BRANCH   4   5
HETATM    5  C   UNK N   1      34.534  17.987   7.867  0.00  0.00     0.334 C 
BRANCH   5   6
HETATM    6  O   UNK N   1      35.115  19.098   8.473  0.00  0.00    -0.377 OA
HETATM    7  H   UNK N   1      36.080  19.194   8.484  0.00  0.00     0.212 HD
ENDBRANCH   5   6
ENDBRANCH   4   5
ENDBRANCH   3   4
ENDBRANCH   2   3
ENDBRANCH   1   2
BRANCH   1   8
HETATM    8  C   UNK N   1      28.732  17.864   8.808  0.00  0.00     0.000 C 
BRANCH   8   9
HETATM    9  C   UNK N   1      28.771  17.126   7.493  0.00  0.00     0.000 C 
BRANCH   9  10
HETATM   10  C   UNK N   1      27.795  17.814   6.574  0.00  0.00     0.000 C 
BRANCH  10  11
HETATM   11  C   UNK N   1      28.515  18.472   5.426  0.00  0.00     0.000 C 
BRANCH  11  12
HETATM   12  C   UNK N   1      27.865  19.816   5.197  0.00  0.00    -0.000 C 
BRANCH  12  13
HETATM   13  C   UNK N   1      27.544  20.472   6.519  0.00  0.00    -0.005 C 
HETATM   14  C   UNK N   1      26.741  21.727   6.256  0.00  0.00     0.005 C 
ENDBRANCH  12  13
ENDBRANCH  11  12
ENDBRANCH  10  11
ENDBRANCH   9  10
ENDBRANCH   8   9
ENDBRANCH   1   8
TORSDOF 11
ENDMDL
MODEL 8
REMARK VINA RESULT:      -3.9      3.950      5.840
REMARK  11 active torsions:
REMARK  status: ('A' for Active; 'I' for Inactive)
REMARK    1  A    between atoms: C_1  and  O_12 
REMARK    2  A    between atoms: C_1  and  O_13 
REMARK    3  A    between atoms: C_2  and  C_3 
REMARK    4  A    between atoms: C_2  and  O_12 
REMARK    5  A    between atoms: C_3  and  C_4 
REMARK    6  A    between atoms: C_4  and  C_5 
REMARK    7  A    between atoms: C_5  and  C_6 
REMARK    8  A    between atoms: C_6  and  C_7 
REMARK    9  A    between atoms: C_7  and  C_8 
REMARK   10  A    between atoms: C_8  and  C_9 
REMARK   11  A    between atoms: C_9  and  C_10 
ROOT
HETATM    1  C   UNK N   1      25.319  25.930  -5.948  0.00  0.00     0.002 C 
ENDROOT
BRANCH   1   2
HETATM    2  C   UNK N   1      25.928  26.138  -7.313  0.00  0.00     0.026 C 
BRANCH   2   3
HETATM    3  C   UNK N   1      25.783  24.878  -8.131  0.00  0.00     0.170 C 
BRANCH   3   4
HETATM    4  O   UNK N   1      25.237  23.882  -7.330  0.00  0.00    -0.367 OA
BRANCH   4   5
HETATM    5  C   UNK N   1      25.339  22.723  -8.094  0.00  0.00     0.334 C 
BRANCH   5   6
HETATM    6  O   UNK N   1      24.072  22.175  -8.275  0.00  0.00    -0.377 OA
HETATM    7  H   UNK N   1      23.977  21.232  -8.480  0.00  0.00     0.212 HD
ENDBRANCH   5   6
ENDBRANCH   4   5
ENDBRANCH   3   4
ENDBRANCH   2   3
ENDBRANCH   1   2
BRANCH   1   8
HETATM    8  C   UNK N   1      24.845  27.272  -5.454  0.00  0.00     0.000 C 
BRANCH   8   9
HETATM    9  C   UNK N   1      25.563  27.648  -4.181  0.00  0.00     0.000 C 
BRANCH   9  10
HETATM   10  C   UNK N   1      26.190  28.998  -4.413  0.00  0.00     0.000 C 
BRANCH  10  11
HETATM   11  C   UNK N   1      27.492  28.862  -5.161  0.00  0.00     0.000 C 
BRANCH  11  12
HETATM   12  C   UNK N   1      28.391  27.968  -4.341  0.00  0.00    -0.000 C 
BRANCH  12  13
HETATM   13  C   UNK N   1      29.007  26.904  -5.218  0.00  0.00    -0.005 C 
HETATM   14  C   UNK N   1      28.797  25.556  -4.564  0.00  0.00     0.005 C 
ENDBRANCH  12  13
ENDBRANCH  11  12
ENDBRANCH  10  11
ENDBRANCH   9  10
ENDBRANCH   8   9
ENDBRANCH   1   8
TORSDOF 11
ENDMDL
MODEL 9
REMARK VINA RESULT:      -3.9     10.726     13.262
REMARK  11 active torsions:
REMARK  status: ('A' for Active; 'I' for Inactive)
REMARK    1  A    between atoms: C_1  and  O_12 
REMARK    2  A    between atoms: C_1  and  O_13 
REMARK    3  A    between atoms: C_2  and  C_3 
REMARK    4  A    between atoms: C_2  and  O_12 
REMARK    5  A    between atoms: C_3  and  C_4 
REMARK    6  A    between atoms: C_4  and  C_5 
REMARK    7  A    between atoms: C_5  and  C_6 
REMARK    8  A    between atoms: C_6  and  C_7 
REMARK    9  A    between atoms: C_7  and  C_8 
REMARK   10  A    between atoms: C_8  and  C_9 
REMARK   11  A    between atoms: C_9  and  C_10 
ROOT
HETATM    1  C   UNK N   1      31.747  17.085   8.453  0.00  0.00     0.002 C 
ENDROOT
BRANCH   1   2
HETATM    2  C   UNK N   1      32.847  18.077   8.165  0.00  0.00     0.026 C 
BRANCH   2   3
HETATM    3  C   UNK N   1      34.001  17.373   7.494  0.00  0.00     0.170 C 
BRANCH   3   4
HETATM    4  O   UNK N   1      34.217  17.950   6.248  0.00  0.00    -0.367 OA
BRANCH   4   5
HETATM    5  C   UNK N   1      33.612  17.078   5.348  0.00  0.00     0.334 C 
BRANCH   5   6
HETATM    6  O   UNK N   1      32.906  17.810   4.397  0.00  0.00    -0.377 OA
HETATM    7  H   UNK N   1      32.656  17.397   3.556  0.00  0.00     0.212 HD
ENDBRANCH   5   6
ENDBRANCH   4   5
ENDBRANCH   3   4
ENDBRANCH   2   3
ENDBRANCH   1   2
BRANCH   1   8
HETATM    8  C   UNK N   1      30.444  17.720   8.043  0.00  0.00     0.000 C 
BRANCH   8   9
HETATM    9  C   UNK N   1      29.647  18.120   9.259  0.00  0.00     0.000 C 
BRANCH   9  10
HETATM   10  C   UNK N   1      28.300  18.584   8.768  0.00  0.00     0.000 C 
BRANCH  10  11
HETATM   11  C   UNK N   1      28.343  18.882   7.291  0.00  0.00     0.000 C 
BRANCH  11  12
HETATM   12  C   UNK N   1      27.448  20.073   7.045  0.00  0.00    -0.000 C 
BRANCH  12  13
HETATM   13  C   UNK N   1      27.656  20.602   5.646  0.00  0.00    -0.005 C 
HETATM   14  C   UNK N   1      28.084  19.457   4.754  0.00  0.00     0.005 C 
ENDBRANCH  12  13
ENDBRANCH  11  12
ENDBRANCH  10  11
ENDBRANCH   9  10
ENDBRANCH   8   9
ENDBRANCH   1   8
TORSDOF 11
ENDMDL
