REMARK  11 active torsions:
REMARK  status: ('A' for Active; 'I' for Inactive)
REMARK    1  A    between atoms: C_1  and  O_12 
REMARK    2  A    between atoms: C_1  and  O_13 
REMARK    3  A    between atoms: C_2  and  C_3 
REMARK    4  A    between atoms: C_2  and  O_12 
REMARK    5  A    between atoms: C_3  and  C_4 
REMARK    6  A    between atoms: C_4  and  C_5 
REMARK    7  A    between atoms: C_5  and  C_6 
REMARK    8  A    between atoms: C_6  and  C_7 
REMARK    9  A    between atoms: C_7  and  C_8 
REMARK   10  A    between atoms: C_8  and  C_9 
REMARK   11  A    between atoms: C_9  and  C_10 
ROOT
HETATM    1  C   UNK N   1      -1.759   0.527  -0.000  0.00  0.00     0.002 C 
ENDROOT
BRANCH   1   2
HETATM    2  C   UNK N   1      -2.928  -0.428  -0.000  0.00  0.00     0.026 C 
BRANCH   2   3
HETATM    3  C   UNK N   1      -4.220   0.351  -0.000  0.00  0.00     0.170 C 
BRANCH   3   4
HETATM    4  O   UNK N   1      -5.285  -0.543   0.000  0.00  0.00    -0.367 OA
BRANCH   4   5
HETATM    5  C   UNK N   1      -6.419   0.264   0.000  0.00  0.00     0.334 C 
BRANCH   5   6
HETATM    6  O   UNK N   1      -7.557  -0.538  -0.000  0.00  0.00    -0.377 OA
HETATM    7  H   UNK N   1      -8.437  -0.130  -0.000  0.00  0.00     0.212 HD
ENDBRANCH   5   6
ENDBRANCH   4   5
ENDBRANCH   3   4
ENDBRANCH   2   3
ENDBRANCH   1   2
BRANCH   1   8
HETATM    8  C   UNK N   1      -0.499  -0.298   0.000  0.00  0.00     0.000 C 
BRANCH   8   9
HETATM    9  C   UNK N   1       0.716   0.596   0.000  0.00  0.00     0.000 C 
BRANCH   9  10
HETATM   10  C   UNK N   1       1.924  -0.305  -0.000  0.00  0.00     0.000 C 
BRANCH  10  11
HETATM   11  C   UNK N   1       3.195   0.505  -0.000  0.00  0.00     0.000 C 
BRANCH  11  12
HETATM   12  C   UNK N   1       4.350  -0.468  -0.000  0.00  0.00    -0.000 C 
BRANCH  12  13
HETATM   13  C   UNK N   1       5.662   0.280   0.000  0.00  0.00    -0.005 C 
HETATM   14  C   UNK N   1       6.793  -0.725   0.000  0.00  0.00     0.005 C 
ENDBRANCH  12  13
ENDBRANCH  11  12
ENDBRANCH  10  11
ENDBRANCH   9  10
ENDBRANCH   8   9
ENDBRANCH   1   8
TORSDOF 11
