REMARK  4 active torsions:
REMARK  status: ('A' for Active; 'I' for Inactive)
REMARK    1  A    between atoms: C_1  and  C_15 
REMARK    2  A    between atoms: C_1  and  O_16 
REMARK    3  A    between atoms: C_5  and  C_15 
REMARK    4  A    between atoms: C_9  and  C_15 
ROOT
HETATM    1  C   UNK N   1       0.605   0.642   0.540  0.00  0.00     0.149 C 
ENDROOT
BRANCH   1   2
HETATM    2  C   UNK N   1       1.830   1.391   0.017  0.00  0.00     0.153 C 
HETATM    3  O   UNK N   1       1.953   2.583   0.260  0.00  0.00    -0.649 OA
BRANCH   2   4
HETATM    4  O   UNK N   1       2.810   0.767  -0.662  0.00  0.00    -0.776 OA
HETATM    5  H   UNK N   1       2.775  -0.041  -1.136  0.00  0.00     0.167 HD
ENDBRANCH   2   4
ENDBRANCH   1   2
BRANCH   1   6
HETATM    6  C   UNK N   1      -0.689   1.342   0.141  0.00  0.00    -0.040 A 
HETATM    7  C   UNK N   1      -0.918   2.661   0.565  0.00  0.00     0.008 A 
HETATM    8  C   UNK N   1      -2.115   3.312   0.252  0.00  0.00     0.001 A 
HETATM    9  C   UNK N   1      -3.102   2.648  -0.478  0.00  0.00     0.000 A 
HETATM   10  C   UNK N   1      -2.891   1.335  -0.904  0.00  0.00     0.001 A 
HETATM   11  C   UNK N   1      -1.692   0.685  -0.598  0.00  0.00     0.008 A 
ENDBRANCH   1   6
BRANCH   1  12
HETATM   12  C   UNK N   1       0.560  -0.868   0.305  0.00  0.00    -0.040 A 
HETATM   13  C   UNK N   1       1.471  -1.537  -0.530  0.00  0.00     0.008 A 
HETATM   14  C   UNK N   1       1.387  -2.919  -0.718  0.00  0.00     0.001 A 
HETATM   15  C   UNK N   1       0.386  -3.651  -0.077  0.00  0.00     0.000 A 
HETATM   16  C   UNK N   1      -0.525  -3.002   0.758  0.00  0.00     0.001 A 
HETATM   17  C   UNK N   1      -0.436  -1.620   0.951  0.00  0.00     0.008 A 
ENDBRANCH   1  12
TORSDOF 4
