MODEL 1
REMARK VINA RESULT:      -6.1      0.000      0.000
REMARK  4 active torsions:
REMARK  status: ('A' for Active; 'I' for Inactive)
REMARK    1  A    between atoms: C_1  and  C_15 
REMARK    2  A    between atoms: C_1  and  O_16 
REMARK    3  A    between atoms: C_5  and  C_15 
REMARK    4  A    between atoms: C_9  and  C_15 
ROOT
HETATM    1  C   UNK N   1      35.397  13.002  15.223  0.00  0.00     0.149 C 
ENDROOT
BRANCH   1   2
HETATM    2  C   UNK N   1      36.475  13.974  14.745  0.00  0.00     0.153 C 
HETATM    3  O   UNK N   1      36.260  14.672  13.764  0.00  0.00    -0.649 OA
BRANCH   2   4
HETATM    4  O   UNK N   1      37.639  14.126  15.402  0.00  0.00    -0.776 OA
HETATM    5  H   UNK N   1      38.214  14.866  15.416  0.00  0.00     0.167 HD
ENDBRANCH   2   4
ENDBRANCH   1   2
BRANCH   1   6
HETATM    6  C   UNK N   1      35.285  11.794  14.300  0.00  0.00    -0.040 A 
HETATM    7  C   UNK N   1      36.447  11.259  13.722  0.00  0.00     0.008 A 
HETATM    8  C   UNK N   1      36.370  10.180  12.836  0.00  0.00     0.001 A 
HETATM    9  C   UNK N   1      35.129   9.631  12.509  0.00  0.00     0.000 A 
HETATM   10  C   UNK N   1      33.964  10.154  13.073  0.00  0.00     0.001 A 
HETATM   11  C   UNK N   1      34.040  11.229  13.964  0.00  0.00     0.008 A 
ENDBRANCH   1   6
BRANCH   1  12
HETATM   12  C   UNK N   1      35.413  12.619  16.703  0.00  0.00    -0.040 A 
HETATM   13  C   UNK N   1      35.694  11.317  17.150  0.00  0.00     0.008 A 
HETATM   14  C   UNK N   1      35.693  11.013  18.514  0.00  0.00     0.001 A 
HETATM   15  C   UNK N   1      35.405  12.007  19.451  0.00  0.00     0.000 A 
HETATM   16  C   UNK N   1      35.126  13.306  19.023  0.00  0.00     0.001 A 
HETATM   17  C   UNK N   1      35.135  13.611  17.659  0.00  0.00     0.008 A 
ENDBRANCH   1  12
TORSDOF 4
ENDMDL
MODEL 2
REMARK VINA RESULT:      -5.7     11.253     12.861
REMARK  4 active torsions:
REMARK  status: ('A' for Active; 'I' for Inactive)
REMARK    1  A    between atoms: C_1  and  C_15 
REMARK    2  A    between atoms: C_1  and  O_16 
REMARK    3  A    between atoms: C_5  and  C_15 
REMARK    4  A    between atoms: C_9  and  C_15 
ROOT
HETATM    1  C   UNK N   1      28.813  17.603   7.537  0.00  0.00     0.149 C 
ENDROOT
BRANCH   1   2
HETATM    2  C   UNK N   1      28.239  17.720   8.949  0.00  0.00     0.153 C 
HETATM    3  O   UNK N   1      27.459  16.869   9.351  0.00  0.00    -0.649 OA
BRANCH   2   4
HETATM    4  O   UNK N   1      28.606  18.707   9.787  0.00  0.00    -0.776 OA
HETATM    5  H   UNK N   1      28.080  19.187  10.396  0.00  0.00     0.167 HD
ENDBRANCH   2   4
ENDBRANCH   1   2
BRANCH   1   6
HETATM    6  C   UNK N   1      28.174  18.612   6.590  0.00  0.00    -0.040 A 
HETATM    7  C   UNK N   1      27.962  18.258   5.247  0.00  0.00     0.008 A 
HETATM    8  C   UNK N   1      27.420  19.178   4.345  0.00  0.00     0.001 A 
HETATM    9  C   UNK N   1      27.094  20.467   4.772  0.00  0.00     0.000 A 
HETATM   10  C   UNK N   1      27.303  20.835   6.103  0.00  0.00     0.001 A 
HETATM   11  C   UNK N   1      27.838  19.914   7.007  0.00  0.00     0.008 A 
ENDBRANCH   1   6
BRANCH   1  12
HETATM   12  C   UNK N   1      30.335  17.548   7.408  0.00  0.00    -0.040 A 
HETATM   13  C   UNK N   1      31.203  17.932   8.444  0.00  0.00     0.008 A 
HETATM   14  C   UNK N   1      32.589  17.869   8.277  0.00  0.00     0.001 A 
HETATM   15  C   UNK N   1      33.126  17.426   7.067  0.00  0.00     0.000 A 
HETATM   16  C   UNK N   1      32.278  17.037   6.029  0.00  0.00     0.001 A 
HETATM   17  C   UNK N   1      30.892  17.094   6.200  0.00  0.00     0.008 A 
ENDBRANCH   1  12
TORSDOF 4
ENDMDL
MODEL 3
REMARK VINA RESULT:      -5.7      8.070      9.712
REMARK  4 active torsions:
REMARK  status: ('A' for Active; 'I' for Inactive)
REMARK    1  A    between atoms: C_1  and  C_15 
REMARK    2  A    between atoms: C_1  and  O_16 
REMARK    3  A    between atoms: C_5  and  C_15 
REMARK    4  A    between atoms: C_9  and  C_15 
ROOT
HETATM    1  C   UNK N   1      33.217  17.366   8.578  0.00  0.00     0.149 C 
ENDROOT
BRANCH   1   2
HETATM    2  C   UNK N   1      34.213  18.219   7.794  0.00  0.00     0.153 C 
HETATM    3  O   UNK N   1      34.847  19.088   8.376  0.00  0.00    -0.649 OA
BRANCH   2   4
HETATM    4  O   UNK N   1      34.455  18.011   6.487  0.00  0.00    -0.776 OA
HETATM    5  H   UNK N   1      33.968  18.308   5.743  0.00  0.00     0.167 HD
ENDBRANCH   2   4
ENDBRANCH   1   2
BRANCH   1   6
HETATM    6  C   UNK N   1      31.791  17.572   8.079  0.00  0.00    -0.040 A 
HETATM    7  C   UNK N   1      30.850  18.191   8.917  0.00  0.00     0.008 A 
HETATM    8  C   UNK N   1      29.525  18.352   8.503  0.00  0.00     0.001 A 
HETATM    9  C   UNK N   1      29.122  17.886   7.251  0.00  0.00     0.000 A 
HETATM   10  C   UNK N   1      30.045  17.265   6.407  0.00  0.00     0.001 A 
HETATM   11  C   UNK N   1      31.372  17.109   6.816  0.00  0.00     0.008 A 
ENDBRANCH   1   6
BRANCH   1  12
HETATM   12  C   UNK N   1      33.569  15.891   8.777  0.00  0.00    -0.040 A 
HETATM   13  C   UNK N   1      32.599  14.876   8.831  0.00  0.00     0.008 A 
HETATM   14  C   UNK N   1      32.969  13.542   9.019  0.00  0.00     0.001 A 
HETATM   15  C   UNK N   1      34.316  13.205   9.162  0.00  0.00     0.000 A 
HETATM   16  C   UNK N   1      35.293  14.201   9.108  0.00  0.00     0.001 A 
HETATM   17  C   UNK N   1      34.922  15.535   8.913  0.00  0.00     0.008 A 
ENDBRANCH   1  12
TORSDOF 4
ENDMDL
MODEL 4
REMARK VINA RESULT:      -5.7      3.640      6.292
REMARK  4 active torsions:
REMARK  status: ('A' for Active; 'I' for Inactive)
REMARK    1  A    between atoms: C_1  and  C_15 
REMARK    2  A    between atoms: C_1  and  O_16 
REMARK    3  A    between atoms: C_5  and  C_15 
REMARK    4  A    between atoms: C_9  and  C_15 
ROOT
HETATM    1  C   UNK N   1      35.516  10.058  19.660  0.00  0.00     0.149 C 
ENDROOT
BRANCH   1   2
HETATM    2  C   UNK N   1      36.553  10.065  20.783  0.00  0.00     0.153 C 
HETATM    3  O   UNK N   1      37.045   9.009  21.152  0.00  0.00    -0.649 OA
BRANCH   2   4
HETATM    4  O   UNK N   1      36.982  11.209  21.347  0.00  0.00    -0.776 OA
HETATM    5  H   UNK N   1      37.060  12.061  20.965  0.00  0.00     0.167 HD
ENDBRANCH   2   4
ENDBRANCH   1   2
BRANCH   1   6
HETATM    6  C   UNK N   1      34.143   9.637  20.171  0.00  0.00    -0.040 A 
HETATM    7  C   UNK N   1      33.339   8.801  19.379  0.00  0.00     0.008 A 
HETATM    8  C   UNK N   1      32.058   8.436  19.802  0.00  0.00     0.001 A 
HETATM    9  C   UNK N   1      31.560   8.911  21.016  0.00  0.00     0.000 A 
HETATM   10  C   UNK N   1      32.346   9.746  21.814  0.00  0.00     0.001 A 
HETATM   11  C   UNK N   1      33.630  10.107  21.395  0.00  0.00     0.008 A 
ENDBRANCH   1   6
BRANCH   1  12
HETATM   12  C   UNK N   1      35.461  11.289  18.755  0.00  0.00    -0.040 A 
HETATM   13  C   UNK N   1      35.211  12.583  19.244  0.00  0.00     0.008 A 
HETATM   14  C   UNK N   1      35.166  13.678  18.377  0.00  0.00     0.001 A 
HETATM   15  C   UNK N   1      35.364  13.493  17.008  0.00  0.00     0.000 A 
HETATM   16  C   UNK N   1      35.617  12.215  16.507  0.00  0.00     0.001 A 
HETATM   17  C   UNK N   1      35.669  11.121  17.376  0.00  0.00     0.008 A 
ENDBRANCH   1  12
TORSDOF 4
ENDMDL
MODEL 5
REMARK VINA RESULT:      -5.7      7.930      9.805
REMARK  4 active torsions:
REMARK  status: ('A' for Active; 'I' for Inactive)
REMARK    1  A    between atoms: C_1  and  C_15 
REMARK    2  A    between atoms: C_1  and  O_16 
REMARK    3  A    between atoms: C_5  and  C_15 
REMARK    4  A    between atoms: C_9  and  C_15 
ROOT
HETATM    1  C   UNK N   1      33.188  16.224   7.605  0.00  0.00     0.149 C 
ENDROOT
BRANCH   1   2
HETATM    2  C   UNK N   1      34.177  16.798   6.592  0.00  0.00     0.153 C 
HETATM    3  O   UNK N   1      34.093  17.975   6.273  0.00  0.00    -0.649 OA
BRANCH   2   4
HETATM    4  O   UNK N   1      35.175  16.059   6.074  0.00  0.00    -0.776 OA
HETATM    5  H   UNK N   1      35.591  15.299   6.432  0.00  0.00     0.167 HD
ENDBRANCH   2   4
ENDBRANCH   1   2
BRANCH   1   6
HETATM    6  C   UNK N   1      33.845  16.005   8.963  0.00  0.00    -0.040 A 
HETATM    7  C   UNK N   1      34.791  16.932   9.428  0.00  0.00     0.008 A 
HETATM    8  C   UNK N   1      35.443  16.733  10.649  0.00  0.00     0.001 A 
HETATM    9  C   UNK N   1      35.165  15.599  11.414  0.00  0.00     0.000 A 
HETATM   10  C   UNK N   1      34.228  14.666  10.963  0.00  0.00     0.001 A 
HETATM   11  C   UNK N   1      33.571  14.867   9.746  0.00  0.00     0.008 A 
ENDBRANCH   1   6
BRANCH   1  12
HETATM   12  C   UNK N   1      31.823  16.906   7.709  0.00  0.00    -0.040 A 
HETATM   13  C   UNK N   1      31.516  17.848   8.706  0.00  0.00     0.008 A 
HETATM   14  C   UNK N   1      30.252  18.442   8.764  0.00  0.00     0.001 A 
HETATM   15  C   UNK N   1      29.276  18.098   7.827  0.00  0.00     0.000 A 
HETATM   16  C   UNK N   1      29.566  17.166   6.829  0.00  0.00     0.001 A 
HETATM   17  C   UNK N   1      30.833  16.578   6.768  0.00  0.00     0.008 A 
ENDBRANCH   1  12
TORSDOF 4
ENDMDL
MODEL 6
REMARK VINA RESULT:      -5.7      9.681     11.722
REMARK  4 active torsions:
REMARK  status: ('A' for Active; 'I' for Inactive)
REMARK    1  A    between atoms: C_1  and  C_15 
REMARK    2  A    between atoms: C_1  and  O_16 
REMARK    3  A    between atoms: C_5  and  C_15 
REMARK    4  A    between atoms: C_9  and  C_15 
ROOT
HETATM    1  C   UNK N   1      32.800  16.802   7.333  0.00  0.00     0.149 C 
ENDROOT
BRANCH   1   2
HETATM    2  C   UNK N   1      33.903  17.577   8.053  0.00  0.00     0.153 C 
HETATM    3  O   UNK N   1      34.585  18.373   7.424  0.00  0.00    -0.649 OA
BRANCH   2   4
HETATM    4  O   UNK N   1      34.115  17.450   9.376  0.00  0.00    -0.776 OA
HETATM    5  H   UNK N   1      34.289  16.674   9.872  0.00  0.00     0.167 HD
ENDBRANCH   2   4
ENDBRANCH   1   2
BRANCH   1   6
HETATM    6  C   UNK N   1      31.416  17.308   7.723  0.00  0.00    -0.040 A 
HETATM    7  C   UNK N   1      31.298  18.293   8.718  0.00  0.00     0.008 A 
HETATM    8  C   UNK N   1      30.040  18.744   9.128  0.00  0.00     0.001 A 
HETATM    9  C   UNK N   1      28.885  18.207   8.557  0.00  0.00     0.000 A 
HETATM   10  C   UNK N   1      28.985  17.224   7.570  0.00  0.00     0.001 A 
HETATM   11  C   UNK N   1      30.243  16.778   7.154  0.00  0.00     0.008 A 
ENDBRANCH   1   6
BRANCH   1  12
HETATM   12  C   UNK N   1      32.957  16.608   5.825  0.00  0.00    -0.040 A 
HETATM   13  C   UNK N   1      32.495  17.543   4.883  0.00  0.00     0.008 A 
HETATM   14  C   UNK N   1      32.657  17.320   3.514  0.00  0.00     0.001 A 
HETATM   15  C   UNK N   1      33.280  16.153   3.066  0.00  0.00     0.000 A 
HETATM   16  C   UNK N   1      33.747  15.215   3.988  0.00  0.00     0.001 A 
HETATM   17  C   UNK N   1      33.590  15.443   5.359  0.00  0.00     0.008 A 
ENDBRANCH   1  12
TORSDOF 4
ENDMDL
MODEL 7
REMARK VINA RESULT:      -5.6     23.785     25.382
REMARK  4 active torsions:
REMARK  status: ('A' for Active; 'I' for Inactive)
REMARK    1  A    between atoms: C_1  and  C_15 
REMARK    2  A    between atoms: C_1  and  O_16 
REMARK    3  A    between atoms: C_5  and  C_15 
REMARK    4  A    between atoms: C_9  and  C_15 
ROOT
HETATM    1  C   UNK N   1      26.729  24.787  -4.185  0.00  0.00     0.149 C 
ENDROOT
BRANCH   1   2
HETATM    2  C   UNK N   1      26.329  23.914  -5.373  0.00  0.00     0.153 C 
HETATM    3  O   UNK N   1      25.164  23.906  -5.746  0.00  0.00    -0.649 OA
BRANCH   2   4
HETATM    4  O   UNK N   1      27.231  23.190  -6.061  0.00  0.00    -0.776 OA
HETATM    5  H   UNK N   1      27.404  23.188  -6.982  0.00  0.00     0.167 HD
ENDBRANCH   2   4
ENDBRANCH   1   2
BRANCH   1   6
HETATM    6  C   UNK N   1      28.050  24.329  -3.576  0.00  0.00    -0.040 A 
HETATM    7  C   UNK N   1      29.255  24.845  -4.078  0.00  0.00     0.008 A 
HETATM    8  C   UNK N   1      30.483  24.410  -3.570  0.00  0.00     0.001 A 
HETATM    9  C   UNK N   1      30.520  23.444  -2.563  0.00  0.00     0.000 A 
HETATM   10  C   UNK N   1      29.330  22.918  -2.056  0.00  0.00     0.001 A 
HETATM   11  C   UNK N   1      28.101  23.357  -2.558  0.00  0.00     0.008 A 
ENDBRANCH   1   6
BRANCH   1  12
HETATM   12  C   UNK N   1      26.659  26.302  -4.379  0.00  0.00    -0.040 A 
HETATM   13  C   UNK N   1      26.931  26.927  -5.608  0.00  0.00     0.008 A 
HETATM   14  C   UNK N   1      26.859  28.316  -5.736  0.00  0.00     0.001 A 
HETATM   15  C   UNK N   1      26.518  29.101  -4.633  0.00  0.00     0.000 A 
HETATM   16  C   UNK N   1      26.242  28.496  -3.406  0.00  0.00     0.001 A 
HETATM   17  C   UNK N   1      26.308  27.105  -3.281  0.00  0.00     0.008 A 
ENDBRANCH   1  12
TORSDOF 4
ENDMDL
MODEL 8
REMARK VINA RESULT:      -5.4      0.837      4.663
REMARK  4 active torsions:
REMARK  status: ('A' for Active; 'I' for Inactive)
REMARK    1  A    between atoms: C_1  and  C_15 
REMARK    2  A    between atoms: C_1  and  O_16 
REMARK    3  A    between atoms: C_5  and  C_15 
REMARK    4  A    between atoms: C_9  and  C_15 
ROOT
HETATM    1  C   UNK N   1      36.361  12.410  14.483  0.00  0.00     0.149 C 
ENDROOT
BRANCH   1   2
HETATM    2  C   UNK N   1      36.196  13.856  14.019  0.00  0.00     0.153 C 
HETATM    3  O   UNK N   1      35.234  14.158  13.327  0.00  0.00    -0.649 OA
BRANCH   2   4
HETATM    4  O   UNK N   1      37.052  14.825  14.391  0.00  0.00    -0.776 OA
HETATM    5  H   UNK N   1      37.963  14.915  14.190  0.00  0.00     0.167 HD
ENDBRANCH   2   4
ENDBRANCH   1   2
BRANCH   1   6
HETATM    6  C   UNK N   1      36.010  12.254  15.959  0.00  0.00    -0.040 A 
HETATM    7  C   UNK N   1      36.231  11.021  16.593  0.00  0.00     0.008 A 
HETATM    8  C   UNK N   1      35.877  10.836  17.933  0.00  0.00     0.001 A 
HETATM    9  C   UNK N   1      35.288  11.878  18.651  0.00  0.00     0.000 A 
HETATM   10  C   UNK N   1      35.059  13.110  18.034  0.00  0.00     0.001 A 
HETATM   11  C   UNK N   1      35.418  13.298  16.696  0.00  0.00     0.008 A 
ENDBRANCH   1   6
BRANCH   1  12
HETATM   12  C   UNK N   1      35.737  11.322  13.607  0.00  0.00    -0.040 A 
HETATM   13  C   UNK N   1      36.496  10.503  12.754  0.00  0.00     0.008 A 
HETATM   14  C   UNK N   1      35.880   9.525  11.969  0.00  0.00     0.001 A 
HETATM   15  C   UNK N   1      34.496   9.357  12.021  0.00  0.00     0.000 A 
HETATM   16  C   UNK N   1      33.728  10.161  12.865  0.00  0.00     0.001 A 
HETATM   17  C   UNK N   1      34.345  11.135  13.656  0.00  0.00     0.008 A 
ENDBRANCH   1  12
TORSDOF 4
ENDMDL
MODEL 9
REMARK VINA RESULT:      -5.4     25.118     27.045
REMARK  4 active torsions:
REMARK  status: ('A' for Active; 'I' for Inactive)
REMARK    1  A    between atoms: C_1  and  C_15 
REMARK    2  A    between atoms: C_1  and  O_16 
REMARK    3  A    between atoms: C_5  and  C_15 
REMARK    4  A    between atoms: C_9  and  C_15 
ROOT
HETATM    1  C   UNK N   1      25.988  22.578  -7.829  0.00  0.00     0.149 C 
ENDROOT
BRANCH   1   2
HETATM    2  C   UNK N   1      24.704  21.778  -7.615  0.00  0.00     0.153 C 
HETATM    3  O   UNK N   1      24.713  20.823  -6.851  0.00  0.00    -0.649 OA
BRANCH   2   4
HETATM    4  O   UNK N   1      23.543  22.123  -8.202  0.00  0.00    -0.776 OA
HETATM    5  H   UNK N   1      23.253  22.970  -8.478  0.00  0.00     0.167 HD
ENDBRANCH   2   4
ENDBRANCH   1   2
BRANCH   1   6
HETATM    6  C   UNK N   1      25.907  23.949  -7.167  0.00  0.00    -0.040 A 
HETATM    7  C   UNK N   1      25.692  24.034  -5.782  0.00  0.00     0.008 A 
HETATM    8  C   UNK N   1      25.569  25.278  -5.156  0.00  0.00     0.001 A 
HETATM    9  C   UNK N   1      25.647  26.451  -5.909  0.00  0.00     0.000 A 
HETATM   10  C   UNK N   1      25.857  26.383  -7.288  0.00  0.00     0.001 A 
HETATM   11  C   UNK N   1      25.988  25.140  -7.914  0.00  0.00     0.008 A 
ENDBRANCH   1   6
BRANCH   1  12
HETATM   12  C   UNK N   1      27.309  21.861  -7.550  0.00  0.00    -0.040 A 
HETATM   13  C   UNK N   1      28.272  22.358  -6.655  0.00  0.00     0.008 A 
HETATM   14  C   UNK N   1      29.468  21.670  -6.437  0.00  0.00     0.001 A 
HETATM   15  C   UNK N   1      29.720  20.476  -7.115  0.00  0.00     0.000 A 
HETATM   16  C   UNK N   1      28.773  19.967  -8.005  0.00  0.00     0.001 A 
HETATM   17  C   UNK N   1      27.573  20.653  -8.218  0.00  0.00     0.008 A 
ENDBRANCH   1  12
TORSDOF 4
ENDMDL
