REMARK  13 active torsions:
REMARK  status: ('A' for Active; 'I' for Inactive)
REMARK    1  A    between atoms: C_1  and  C_7 
REMARK    2  A    between atoms: C_4  and  O_11 
REMARK    3  A    between atoms: C_7  and  N_8 
REMARK    4  A    between atoms: O_11  and  C_12 
REMARK    5  A    between atoms: C_12  and  C_13 
REMARK    6  A    between atoms: C_13  and  C_14 
REMARK    7  A    between atoms: C_14  and  C_15 
REMARK    8  A    between atoms: C_15  and  C_16 
REMARK    9  A    between atoms: C_16  and  C_17 
REMARK   10  A    between atoms: C_17  and  O_18 
REMARK   11  A    between atoms: O_18  and  C_19 
REMARK   12  A    between atoms: C_22  and  C_25 
REMARK   13  A    between atoms: C_25  and  N_26 
ROOT
HETATM    1  C   UNK N   1      -0.703  -0.051  -0.187  0.00  0.00     0.002 C 
ENDROOT
BRANCH   1   2
HETATM    2  C   UNK N   1      -1.146  -1.490  -0.376  0.00  0.00     0.027 C 
BRANCH   2   3
HETATM    3  C   UNK N   1      -2.214  -1.819   0.653  0.00  0.00     0.175 C 
BRANCH   3   4
HETATM    4  O   UNK N   1      -3.476  -1.831   0.095  0.00  0.00    -0.351 OA
BRANCH   4   5
HETATM    5  C   UNK N   1      -4.289  -0.747   0.055  0.00  0.00     0.068 A 
HETATM    6  C   UNK N   1      -3.806   0.544   0.328  0.00  0.00     0.037 A 
HETATM    7  C   UNK N   1      -4.667   1.642   0.288  0.00  0.00     0.018 A 
HETATM    8  C   UNK N   1      -6.025   1.468  -0.009  0.00  0.00     0.007 A 
HETATM    9  C   UNK N   1      -6.508   0.179  -0.281  0.00  0.00     0.018 A 
HETATM   10  C   UNK N   1      -5.642  -0.920  -0.257  0.00  0.00     0.037 A 
BRANCH   8  11
HETATM   11  C   UNK N   1      -6.944   2.627  -0.028  0.00  0.00     0.102 C 
HETATM   12  N   UNK N   1      -6.498   3.811   0.187  0.00  0.00    -0.385 N 
HETATM   13  H   UNK N   1      -5.540   3.969   0.352  0.00  0.00     0.157 HD
ATOM     14  HN  UNK N   1      -7.145   4.600   0.187  1.00  0.00     0.157 HD
BRANCH  11  15
HETATM   15  N   UNK N   1      -8.325   2.439  -0.260  0.00  0.00    -0.385 N 
HETATM   16  H   UNK N   1      -8.920   3.206  -0.422  0.00  0.00     0.157 HD
HETATM   17  H   UNK N   1      -8.697   1.527  -0.260  0.00  0.00     0.157 HD
ENDBRANCH  11  15
ENDBRANCH   8  11
ENDBRANCH   4   5
ENDBRANCH   3   4
ENDBRANCH   2   3
ENDBRANCH   1   2
BRANCH   1  18
HETATM   18  C   UNK N   1       0.717   0.135  -0.684  0.00  0.00     0.002 C 
BRANCH  18  19
HETATM   19  C   UNK N   1       1.126   1.589  -0.526  0.00  0.00     0.027 C 
BRANCH  19  20
HETATM   20  C   UNK N   1       2.137   1.733   0.597  0.00  0.00     0.175 C 
BRANCH  20  21
HETATM   21  O   UNK N   1       3.420   1.793   0.091  0.00  0.00    -0.351 OA
BRANCH  21  22
HETATM   22  C   UNK N   1       4.250   0.723   0.053  0.00  0.00     0.068 A 
HETATM   23  C   UNK N   1       5.602   0.913  -0.254  0.00  0.00     0.037 A 
HETATM   24  C   UNK N   1       6.480  -0.177  -0.280  0.00  0.00     0.018 A 
HETATM   25  C   UNK N   1       6.010  -1.472  -0.012  0.00  0.00     0.007 A 
HETATM   26  C   UNK N   1       4.653  -1.662   0.281  0.00  0.00     0.018 A 
HETATM   27  C   UNK N   1       3.781  -0.574   0.319  0.00  0.00     0.037 A 
BRANCH  25  28
HETATM   28  C   UNK N   1       6.940  -2.622  -0.028  0.00  0.00     0.102 C 
HETATM   29  N   UNK N   1       6.504  -3.810   0.192  0.00  0.00    -0.385 N 
HETATM   30  H   UNK N   1       5.549  -3.976   0.360  0.00  0.00     0.157 HD
ATOM     31  HN  UNK N   1       7.158  -4.593   0.192  1.00  0.00     0.157 HD
BRANCH  28  32
HETATM   32  N   UNK N   1       8.319  -2.422  -0.259  0.00  0.00    -0.385 N 
HETATM   33  H   UNK N   1       8.920  -3.184  -0.420  0.00  0.00     0.157 HD
HETATM   34  H   UNK N   1       8.683  -1.507  -0.259  0.00  0.00     0.157 HD
ENDBRANCH  28  32
ENDBRANCH  25  28
ENDBRANCH  21  22
ENDBRANCH  20  21
ENDBRANCH  19  20
ENDBRANCH  18  19
ENDBRANCH   1  18
TORSDOF 13
