MODEL 1
REMARK VINA RESULT:      -5.9      0.000      0.000
REMARK  13 active torsions:
REMARK  status: ('A' for Active; 'I' for Inactive)
REMARK    1  A    between atoms: C_1  and  C_7 
REMARK    2  A    between atoms: C_4  and  O_11 
REMARK    3  A    between atoms: C_7  and  N_8 
REMARK    4  A    between atoms: O_11  and  C_12 
REMARK    5  A    between atoms: C_12  and  C_13 
REMARK    6  A    between atoms: C_13  and  C_14 
REMARK    7  A    between atoms: C_14  and  C_15 
REMARK    8  A    between atoms: C_15  and  C_16 
REMARK    9  A    between atoms: C_16  and  C_17 
REMARK   10  A    between atoms: C_17  and  O_18 
REMARK   11  A    between atoms: O_18  and  C_19 
REMARK   12  A    between atoms: C_22  and  C_25 
REMARK   13  A    between atoms: C_25  and  N_26 
ROOT
HETATM    1  C   UNK N   1      35.893   8.639  13.118  0.00  0.00     0.002 C 
ENDROOT
BRANCH   1   2
HETATM    2  C   UNK N   1      34.996   9.495  12.243  0.00  0.00     0.027 C 
BRANCH   2   3
HETATM    3  C   UNK N   1      34.168  10.410  13.129  0.00  0.00     0.175 C 
BRANCH   3   4
HETATM    4  O   UNK N   1      34.165   9.987  14.442  0.00  0.00    -0.351 OA
BRANCH   4   5
HETATM    5  C   UNK N   1      34.456  10.795  15.491  0.00  0.00     0.068 A 
HETATM    6  C   UNK N   1      34.832  10.271  16.739  0.00  0.00     0.037 A 
HETATM    7  C   UNK N   1      35.118  11.126  17.805  0.00  0.00     0.018 A 
HETATM    8  C   UNK N   1      35.017  12.514  17.648  0.00  0.00     0.007 A 
HETATM    9  C   UNK N   1      34.640  13.038  16.402  0.00  0.00     0.018 A 
HETATM   10  C   UNK N   1      34.370  12.182  15.328  0.00  0.00     0.037 A 
BRANCH   8  11
HETATM   11  C   UNK N   1      35.296  13.421  18.783  0.00  0.00     0.102 C 
HETATM   12  N   UNK N   1      35.496  12.945  19.958  0.00  0.00    -0.385 N 
HETATM   13  H   UNK N   1      35.483  11.974  20.120  0.00  0.00     0.157 HD
ATOM     14  HN  UNK N   1      35.672  13.582  20.736  1.00  0.00     0.157 HD
BRANCH  11  15
HETATM   15  N   UNK N   1      35.321  14.820  18.589  0.00  0.00    -0.385 N 
HETATM   16  H   UNK N   1      35.151  15.438  19.337  0.00  0.00     0.157 HD
HETATM   17  H   UNK N   1      35.513  15.182  17.694  0.00  0.00     0.157 HD
ENDBRANCH  11  15
ENDBRANCH   8  11
ENDBRANCH   4   5
ENDBRANCH   3   4
ENDBRANCH   2   3
ENDBRANCH   1   2
BRANCH   1  18
HETATM   18  C   UNK N   1      37.334   9.098  13.007  0.00  0.00     0.002 C 
BRANCH  18  19
HETATM   19  C   UNK N   1      37.786   9.685  14.333  0.00  0.00     0.027 C 
BRANCH  19  20
HETATM   20  C   UNK N   1      37.941  11.190  14.218  0.00  0.00     0.175 C 
BRANCH  20  21
HETATM   21  O   UNK N   1      37.924  11.581  12.894  0.00  0.00    -0.351 OA
BRANCH  21  22
HETATM   22  C   UNK N   1      37.090  12.535  12.416  0.00  0.00     0.068 A 
HETATM   23  C   UNK N   1      36.685  12.486  11.077  0.00  0.00     0.037 A 
HETATM   24  C   UNK N   1      35.808  13.453  10.569  0.00  0.00     0.018 A 
HETATM   25  C   UNK N   1      35.339  14.487  11.393  0.00  0.00     0.007 A 
HETATM   26  C   UNK N   1      35.757  14.543  12.729  0.00  0.00     0.018 A 
HETATM   27  C   UNK N   1      36.620  13.573  13.239  0.00  0.00     0.037 A 
BRANCH  25  28
HETATM   28  C   UNK N   1      34.404  15.501  10.859  0.00  0.00     0.102 C 
HETATM   29  N   UNK N   1      33.182  15.190  10.616  0.00  0.00    -0.385 N 
HETATM   30  H   UNK N   1      32.846  14.282  10.792  0.00  0.00     0.157 HD
ATOM     31  HN  UNK N   1      32.551  15.895  10.234  1.00  0.00     0.157 HD
BRANCH  28  32
HETATM   32  N   UNK N   1      34.852  16.813  10.587  0.00  0.00    -0.385 N 
HETATM   33  H   UNK N   1      34.212  17.546  10.446  0.00  0.00     0.157 HD
HETATM   34  H   UNK N   1      35.819  16.995  10.539  0.00  0.00     0.157 HD
ENDBRANCH  28  32
ENDBRANCH  25  28
ENDBRANCH  21  22
ENDBRANCH  20  21
ENDBRANCH  19  20
ENDBRANCH  18  19
ENDBRANCH   1  18
TORSDOF 13
ENDMDL
MODEL 2
REMARK VINA RESULT:      -5.8     20.471     24.606
REMARK  13 active torsions:
REMARK  status: ('A' for Active; 'I' for Inactive)
REMARK    1  A    between atoms: C_1  and  C_7 
REMARK    2  A    between atoms: C_4  and  O_11 
REMARK    3  A    between atoms: C_7  and  N_8 
REMARK    4  A    between atoms: O_11  and  C_12 
REMARK    5  A    between atoms: C_12  and  C_13 
REMARK    6  A    between atoms: C_13  and  C_14 
REMARK    7  A    between atoms: C_14  and  C_15 
REMARK    8  A    between atoms: C_15  and  C_16 
REMARK    9  A    between atoms: C_16  and  C_17 
REMARK   10  A    between atoms: C_17  and  O_18 
REMARK   11  A    between atoms: O_18  and  C_19 
REMARK   12  A    between atoms: C_22  and  C_25 
REMARK   13  A    between atoms: C_25  and  N_26 
ROOT
HETATM    1  C   UNK N   1      28.552  29.395  -4.898  0.00  0.00     0.002 C 
ENDROOT
BRANCH   1   2
HETATM    2  C   UNK N   1      27.149  29.864  -4.558  0.00  0.00     0.027 C 
BRANCH   2   3
HETATM    3  C   UNK N   1      26.709  29.208  -3.260  0.00  0.00     0.175 C 
BRANCH   3   4
HETATM    4  O   UNK N   1      25.659  28.334  -3.459  0.00  0.00    -0.351 OA
BRANCH   4   5
HETATM    5  C   UNK N   1      25.774  27.164  -4.133  0.00  0.00     0.068 A 
HETATM    6  C   UNK N   1      25.258  27.009  -5.431  0.00  0.00     0.037 A 
HETATM    7  C   UNK N   1      25.384  25.789  -6.098  0.00  0.00     0.018 A 
HETATM    8  C   UNK N   1      26.011  24.701  -5.477  0.00  0.00     0.007 A 
HETATM    9  C   UNK N   1      26.526  24.855  -4.181  0.00  0.00     0.018 A 
HETATM   10  C   UNK N   1      26.415  26.082  -3.517  0.00  0.00     0.037 A 
BRANCH   8  11
HETATM   11  C   UNK N   1      26.123  23.401  -6.173  0.00  0.00     0.102 C 
HETATM   12  N   UNK N   1      27.276  22.931  -6.486  0.00  0.00    -0.385 N 
HETATM   13  H   UNK N   1      28.100  23.417  -6.255  0.00  0.00     0.157 HD
ATOM     14  HN  UNK N   1      27.338  22.041  -6.980  1.00  0.00     0.157 HD
BRANCH  11  15
HETATM   15  N   UNK N   1      24.962  22.676  -6.522  0.00  0.00    -0.385 N 
HETATM   16  H   UNK N   1      24.096  22.872  -6.097  0.00  0.00     0.157 HD
HETATM   17  H   UNK N   1      25.020  21.963  -7.199  0.00  0.00     0.157 HD
ENDBRANCH  11  15
ENDBRANCH   8  11
ENDBRANCH   4   5
ENDBRANCH   3   4
ENDBRANCH   2   3
ENDBRANCH   1   2
BRANCH   1  18
HETATM   18  C   UNK N   1      28.541  28.578  -6.175  0.00  0.00     0.002 C 
BRANCH  18  19
HETATM   19  C   UNK N   1      29.012  27.164  -5.879  0.00  0.00     0.027 C 
BRANCH  19  20
HETATM   20  C   UNK N   1      30.126  27.185  -4.848  0.00  0.00     0.175 C 
BRANCH  20  21
HETATM   21  O   UNK N   1      29.848  26.313  -3.815  0.00  0.00    -0.351 OA
BRANCH  21  22
HETATM   22  C   UNK N   1      30.408  25.083  -3.715  0.00  0.00     0.068 A 
HETATM   23  C   UNK N   1      29.814  24.122  -2.890  0.00  0.00     0.037 A 
HETATM   24  C   UNK N   1      30.366  22.840  -2.787  0.00  0.00     0.018 A 
HETATM   25  C   UNK N   1      31.529  22.511  -3.501  0.00  0.00     0.007 A 
HETATM   26  C   UNK N   1      32.131  23.479  -4.315  0.00  0.00     0.018 A 
HETATM   27  C   UNK N   1      31.573  24.752  -4.426  0.00  0.00     0.037 A 
BRANCH  25  28
HETATM   28  C   UNK N   1      32.106  21.153  -3.402  0.00  0.00     0.102 C 
HETATM   29  N   UNK N   1      31.572  20.174  -4.040  0.00  0.00    -0.385 N 
HETATM   30  H   UNK N   1      30.784  20.313  -4.612  0.00  0.00     0.157 HD
ATOM     31  HN  UNK N   1      31.971  19.240  -3.952  1.00  0.00     0.157 HD
BRANCH  28  32
HETATM   32  N   UNK N   1      33.233  20.913  -2.585  0.00  0.00    -0.385 N 
HETATM   33  H   UNK N   1      33.351  21.393  -1.734  0.00  0.00     0.157 HD
HETATM   34  H   UNK N   1      33.910  20.258  -2.871  0.00  0.00     0.157 HD
ENDBRANCH  28  32
ENDBRANCH  25  28
ENDBRANCH  21  22
ENDBRANCH  20  21
ENDBRANCH  19  20
ENDBRANCH  18  19
ENDBRANCH   1  18
TORSDOF 13
ENDMDL
MODEL 3
REMARK VINA RESULT:      -5.6      3.664      9.337
REMARK  13 active torsions:
REMARK  status: ('A' for Active; 'I' for Inactive)
REMARK    1  A    between atoms: C_1  and  C_7 
REMARK    2  A    between atoms: C_4  and  O_11 
REMARK    3  A    between atoms: C_7  and  N_8 
REMARK    4  A    between atoms: O_11  and  C_12 
REMARK    5  A    between atoms: C_12  and  C_13 
REMARK    6  A    between atoms: C_13  and  C_14 
REMARK    7  A    between atoms: C_14  and  C_15 
REMARK    8  A    between atoms: C_15  and  C_16 
REMARK    9  A    between atoms: C_16  and  C_17 
REMARK   10  A    between atoms: C_17  and  O_18 
REMARK   11  A    between atoms: O_18  and  C_19 
REMARK   12  A    between atoms: C_22  and  C_25 
REMARK   13  A    between atoms: C_25  and  N_26 
ROOT
HETATM    1  C   UNK N   1      34.561  14.288  10.430  0.00  0.00     0.002 C 
ENDROOT
BRANCH   1   2
HETATM    2  C   UNK N   1      35.397  15.310   9.683  0.00  0.00     0.027 C 
BRANCH   2   3
HETATM    3  C   UNK N   1      35.158  16.683  10.288  0.00  0.00     0.175 C 
BRANCH   3   4
HETATM    4  O   UNK N   1      34.965  17.644   9.317  0.00  0.00    -0.351 OA
BRANCH   4   5
HETATM    5  C   UNK N   1      34.011  17.559   8.357  0.00  0.00     0.068 A 
HETATM    6  C   UNK N   1      32.649  17.447   8.682  0.00  0.00     0.037 A 
HETATM    7  C   UNK N   1      31.689  17.352   7.674  0.00  0.00     0.018 A 
HETATM    8  C   UNK N   1      32.073  17.352   6.326  0.00  0.00     0.007 A 
HETATM    9  C   UNK N   1      33.433  17.463   6.001  0.00  0.00     0.018 A 
HETATM   10  C   UNK N   1      34.395  17.574   7.011  0.00  0.00     0.037 A 
BRANCH   8  11
HETATM   11  C   UNK N   1      31.059  17.227   5.256  0.00  0.00     0.102 C 
HETATM   12  N   UNK N   1      29.909  16.716   5.510  0.00  0.00    -0.385 N 
HETATM   13  H   UNK N   1      29.679  16.414   6.418  0.00  0.00     0.157 HD
ATOM     14  HN  UNK N   1      29.225  16.621   4.759  1.00  0.00     0.157 HD
BRANCH  11  15
HETATM   15  N   UNK N   1      31.355  17.648   3.941  0.00  0.00    -0.385 N 
HETATM   16  H   UNK N   1      30.636  17.890   3.313  0.00  0.00     0.157 HD
HETATM   17  H   UNK N   1      32.294  17.700   3.648  0.00  0.00     0.157 HD
ENDBRANCH  11  15
ENDBRANCH   8  11
ENDBRANCH   4   5
ENDBRANCH   3   4
ENDBRANCH   2   3
ENDBRANCH   1   2
BRANCH   1  18
HETATM   18  C   UNK N   1      34.978  14.224  11.885  0.00  0.00     0.002 C 
BRANCH  18  19
HETATM   19  C   UNK N   1      35.794  12.966  12.127  0.00  0.00     0.027 C 
BRANCH  19  20
HETATM   20  C   UNK N   1      35.018  11.993  12.996  0.00  0.00     0.175 C 
BRANCH  20  21
HETATM   21  O   UNK N   1      34.414  12.655  14.046  0.00  0.00    -0.351 OA
BRANCH  21  22
HETATM   22  C   UNK N   1      34.670  12.367  15.345  0.00  0.00     0.068 A 
HETATM   23  C   UNK N   1      34.804  11.032  15.740  0.00  0.00     0.037 A 
HETATM   24  C   UNK N   1      35.087  10.714  17.073  0.00  0.00     0.018 A 
HETATM   25  C   UNK N   1      35.225  11.732  18.030  0.00  0.00     0.007 A 
HETATM   26  C   UNK N   1      35.076  13.068  17.636  0.00  0.00     0.018 A 
HETATM   27  C   UNK N   1      34.806  13.385  16.304  0.00  0.00     0.037 A 
BRANCH  25  28
HETATM   28  C   UNK N   1      35.536  11.397  19.437  0.00  0.00     0.102 C 
HETATM   29  N   UNK N   1      35.504  10.176  19.834  0.00  0.00    -0.385 N 
HETATM   30  H   UNK N   1      35.288   9.446  19.210  0.00  0.00     0.157 HD
ATOM     31  HN  UNK N   1      35.707   9.960  20.810  1.00  0.00     0.157 HD
BRANCH  28  32
HETATM   32  N   UNK N   1      35.845  12.419  20.362  0.00  0.00    -0.385 N 
HETATM   33  H   UNK N   1      35.356  12.494  21.213  0.00  0.00     0.157 HD
HETATM   34  H   UNK N   1      36.559  13.064  20.152  0.00  0.00     0.157 HD
ENDBRANCH  28  32
ENDBRANCH  25  28
ENDBRANCH  21  22
ENDBRANCH  20  21
ENDBRANCH  19  20
ENDBRANCH  18  19
ENDBRANCH   1  18
TORSDOF 13
ENDMDL
MODEL 4
REMARK VINA RESULT:      -5.6      4.287      6.095
REMARK  13 active torsions:
REMARK  status: ('A' for Active; 'I' for Inactive)
REMARK    1  A    between atoms: C_1  and  C_7 
REMARK    2  A    between atoms: C_4  and  O_11 
REMARK    3  A    between atoms: C_7  and  N_8 
REMARK    4  A    between atoms: O_11  and  C_12 
REMARK    5  A    between atoms: C_12  and  C_13 
REMARK    6  A    between atoms: C_13  and  C_14 
REMARK    7  A    between atoms: C_14  and  C_15 
REMARK    8  A    between atoms: C_15  and  C_16 
REMARK    9  A    between atoms: C_16  and  C_17 
REMARK   10  A    between atoms: C_17  and  O_18 
REMARK   11  A    between atoms: O_18  and  C_19 
REMARK   12  A    between atoms: C_22  and  C_25 
REMARK   13  A    between atoms: C_25  and  N_26 
ROOT
HETATM    1  C   UNK N   1      35.958  15.155  12.132  0.00  0.00     0.002 C 
ENDROOT
BRANCH   1   2
HETATM    2  C   UNK N   1      35.247  13.859  12.476  0.00  0.00     0.027 C 
BRANCH   2   3
HETATM    3  C   UNK N   1      35.778  13.340  13.801  0.00  0.00     0.175 C 
BRANCH   3   4
HETATM    4  O   UNK N   1      34.772  13.194  14.734  0.00  0.00    -0.351 OA
BRANCH   4   5
HETATM    5  C   UNK N   1      34.969  12.693  15.978  0.00  0.00     0.068 A 
HETATM    6  C   UNK N   1      34.984  13.524  17.111  0.00  0.00     0.037 A 
HETATM    7  C   UNK N   1      35.197  12.983  18.380  0.00  0.00     0.018 A 
HETATM    8  C   UNK N   1      35.415  11.608  18.537  0.00  0.00     0.007 A 
HETATM    9  C   UNK N   1      35.400  10.777  17.406  0.00  0.00     0.018 A 
HETATM   10  C   UNK N   1      35.170  11.317  16.136  0.00  0.00     0.037 A 
BRANCH   8  11
HETATM   11  C   UNK N   1      35.665  11.035  19.878  0.00  0.00     0.102 C 
HETATM   12  N   UNK N   1      36.792  10.483  20.146  0.00  0.00    -0.385 N 
HETATM   13  H   UNK N   1      37.510  10.445  19.473  0.00  0.00     0.157 HD
ATOM     14  HN  UNK N   1      36.947  10.078  21.070  1.00  0.00     0.157 HD
BRANCH  11  15
HETATM   15  N   UNK N   1      34.658  11.071  20.869  0.00  0.00    -0.385 N 
HETATM   16  H   UNK N   1      34.753  10.560  21.705  0.00  0.00     0.157 HD
HETATM   17  H   UNK N   1      33.851  11.615  20.720  0.00  0.00     0.157 HD
ENDBRANCH  11  15
ENDBRANCH   8  11
ENDBRANCH   4   5
ENDBRANCH   3   4
ENDBRANCH   2   3
ENDBRANCH   1   2
BRANCH   1  18
HETATM   18  C   UNK N   1      36.044  15.328  10.628  0.00  0.00     0.002 C 
BRANCH  18  19
HETATM   19  C   UNK N   1      34.674  15.682  10.077  0.00  0.00     0.027 C 
BRANCH  19  20
HETATM   20  C   UNK N   1      34.743  16.974   9.284  0.00  0.00     0.175 C 
BRANCH  20  21
HETATM   21  O   UNK N   1      33.475  17.430   8.986  0.00  0.00    -0.351 OA
BRANCH  21  22
HETATM   22  C   UNK N   1      32.946  17.383   7.740  0.00  0.00     0.068 A 
HETATM   23  C   UNK N   1      33.784  17.547   6.631  0.00  0.00     0.037 A 
HETATM   24  C   UNK N   1      33.261  17.482   5.334  0.00  0.00     0.018 A 
HETATM   25  C   UNK N   1      31.889  17.266   5.134  0.00  0.00     0.007 A 
HETATM   26  C   UNK N   1      31.049  17.116   6.246  0.00  0.00     0.018 A 
HETATM   27  C   UNK N   1      31.573  17.169   7.537  0.00  0.00     0.037 A 
BRANCH  25  28
HETATM   28  C   UNK N   1      31.338  17.186   3.764  0.00  0.00     0.102 C 
HETATM   29  N   UNK N   1      32.126  17.117   2.752  0.00  0.00    -0.385 N 
HETATM   30  H   UNK N   1      33.102  17.103   2.871  0.00  0.00     0.157 HD
ATOM     31  HN  UNK N   1      31.734  17.077   1.811  1.00  0.00     0.157 HD
BRANCH  28  32
HETATM   32  N   UNK N   1      29.941  17.211   3.553  0.00  0.00    -0.385 N 
HETATM   33  H   UNK N   1      29.358  16.525   3.950  0.00  0.00     0.157 HD
HETATM   34  H   UNK N   1      29.546  17.925   3.002  0.00  0.00     0.157 HD
ENDBRANCH  28  32
ENDBRANCH  25  28
ENDBRANCH  21  22
ENDBRANCH  20  21
ENDBRANCH  19  20
ENDBRANCH  18  19
ENDBRANCH   1  18
TORSDOF 13
ENDMDL
MODEL 5
REMARK VINA RESULT:      -5.5     11.917     15.330
REMARK  13 active torsions:
REMARK  status: ('A' for Active; 'I' for Inactive)
REMARK    1  A    between atoms: C_1  and  C_7 
REMARK    2  A    between atoms: C_4  and  O_11 
REMARK    3  A    between atoms: C_7  and  N_8 
REMARK    4  A    between atoms: O_11  and  C_12 
REMARK    5  A    between atoms: C_12  and  C_13 
REMARK    6  A    between atoms: C_13  and  C_14 
REMARK    7  A    between atoms: C_14  and  C_15 
REMARK    8  A    between atoms: C_15  and  C_16 
REMARK    9  A    between atoms: C_16  and  C_17 
REMARK   10  A    between atoms: C_17  and  O_18 
REMARK   11  A    between atoms: O_18  and  C_19 
REMARK   12  A    between atoms: C_22  and  C_25 
REMARK   13  A    between atoms: C_25  and  N_26 
ROOT
HETATM    1  C   UNK N   1      25.896  16.851   3.201  0.00  0.00     0.002 C 
ENDROOT
BRANCH   1   2
HETATM    2  C   UNK N   1      25.341  18.092   3.875  0.00  0.00     0.027 C 
BRANCH   2   3
HETATM    3  C   UNK N   1      26.387  19.191   3.828  0.00  0.00     0.175 C 
BRANCH   3   4
HETATM    4  O   UNK N   1      27.659  18.697   4.034  0.00  0.00    -0.351 OA
BRANCH   4   5
HETATM    5  C   UNK N   1      28.196  18.495   5.262  0.00  0.00     0.068 A 
HETATM    6  C   UNK N   1      27.814  19.273   6.368  0.00  0.00     0.037 A 
HETATM    7  C   UNK N   1      28.390  19.049   7.620  0.00  0.00     0.018 A 
HETATM    8  C   UNK N   1      29.365  18.057   7.785  0.00  0.00     0.007 A 
HETATM    9  C   UNK N   1      29.747  17.280   6.681  0.00  0.00     0.018 A 
HETATM   10  C   UNK N   1      29.159  17.493   5.429  0.00  0.00     0.037 A 
BRANCH   8  11
HETATM   11  C   UNK N   1      29.994  17.835   9.105  0.00  0.00     0.102 C 
HETATM   12  N   UNK N   1      29.767  18.644  10.075  0.00  0.00    -0.385 N 
HETATM   13  H   UNK N   1      29.163  19.413   9.962  0.00  0.00     0.157 HD
ATOM     14  HN  UNK N   1      30.220  18.488  10.977  1.00  0.00     0.157 HD
BRANCH  11  15
HETATM   15  N   UNK N   1      30.867  16.742   9.305  0.00  0.00    -0.385 N 
HETATM   16  H   UNK N   1      31.618  16.804   9.939  0.00  0.00     0.157 HD
HETATM   17  H   UNK N   1      30.723  15.908   8.803  0.00  0.00     0.157 HD
ENDBRANCH  11  15
ENDBRANCH   8  11
ENDBRANCH   4   5
ENDBRANCH   3   4
ENDBRANCH   2   3
ENDBRANCH   1   2
BRANCH   1  18
HETATM   18  C   UNK N   1      25.816  15.660   4.136  0.00  0.00     0.002 C 
BRANCH  18  19
HETATM   19  C   UNK N   1      25.365  16.121   5.511  0.00  0.00     0.027 C 
BRANCH  19  20
HETATM   20  C   UNK N   1      24.263  15.219   6.034  0.00  0.00     0.175 C 
BRANCH  20  21
HETATM   21  O   UNK N   1      23.168  15.964   6.422  0.00  0.00    -0.351 OA
BRANCH  21  22
HETATM   22  C   UNK N   1      22.398  16.656   5.548  0.00  0.00     0.068 A 
HETATM   23  C   UNK N   1      22.148  18.014   5.777  0.00  0.00     0.037 A 
HETATM   24  C   UNK N   1      21.371  18.751   4.876  0.00  0.00     0.018 A 
HETATM   25  C   UNK N   1      20.823  18.132   3.742  0.00  0.00     0.007 A 
HETATM   26  C   UNK N   1      21.062  16.769   3.522  0.00  0.00     0.018 A 
HETATM   27  C   UNK N   1      21.847  16.038   4.413  0.00  0.00     0.037 A 
BRANCH  25  28
HETATM   28  C   UNK N   1      20.011  18.913   2.784  0.00  0.00     0.102 C 
HETATM   29  N   UNK N   1      18.911  18.434   2.326  0.00  0.00    -0.385 N 
HETATM   30  H   UNK N   1      18.585  17.551   2.613  0.00  0.00     0.157 HD
ATOM     31  HN  UNK N   1      18.367  18.977   1.655  1.00  0.00     0.157 HD
BRANCH  28  32
HETATM   32  N   UNK N   1      20.450  20.181   2.343  0.00  0.00    -0.385 N 
HETATM   33  H   UNK N   1      20.640  20.348   1.393  0.00  0.00     0.157 HD
HETATM   34  H   UNK N   1      20.568  20.908   2.998  0.00  0.00     0.157 HD
ENDBRANCH  28  32
ENDBRANCH  25  28
ENDBRANCH  21  22
ENDBRANCH  20  21
ENDBRANCH  19  20
ENDBRANCH  18  19
ENDBRANCH   1  18
TORSDOF 13
ENDMDL
MODEL 6
REMARK VINA RESULT:      -5.5      3.989      5.895
REMARK  13 active torsions:
REMARK  status: ('A' for Active; 'I' for Inactive)
REMARK    1  A    between atoms: C_1  and  C_7 
REMARK    2  A    between atoms: C_4  and  O_11 
REMARK    3  A    between atoms: C_7  and  N_8 
REMARK    4  A    between atoms: O_11  and  C_12 
REMARK    5  A    between atoms: C_12  and  C_13 
REMARK    6  A    between atoms: C_13  and  C_14 
REMARK    7  A    between atoms: C_14  and  C_15 
REMARK    8  A    between atoms: C_15  and  C_16 
REMARK    9  A    between atoms: C_16  and  C_17 
REMARK   10  A    between atoms: C_17  and  O_18 
REMARK   11  A    between atoms: O_18  and  C_19 
REMARK   12  A    between atoms: C_22  and  C_25 
REMARK   13  A    between atoms: C_25  and  N_26 
ROOT
HETATM    1  C   UNK N   1      35.047  14.650  11.792  0.00  0.00     0.002 C 
ENDROOT
BRANCH   1   2
HETATM    2  C   UNK N   1      36.046  14.129  12.808  0.00  0.00     0.027 C 
BRANCH   2   3
HETATM    3  C   UNK N   1      35.411  12.991  13.590  0.00  0.00     0.175 C 
BRANCH   3   4
HETATM    4  O   UNK N   1      34.834  13.436  14.762  0.00  0.00    -0.351 OA
BRANCH   4   5
HETATM    5  C   UNK N   1      35.041  12.853  15.968  0.00  0.00     0.068 A 
HETATM    6  C   UNK N   1      35.298  11.476  16.084  0.00  0.00     0.037 A 
HETATM    7  C   UNK N   1      35.499  10.900  17.340  0.00  0.00     0.018 A 
HETATM    8  C   UNK N   1      35.433  11.684  18.499  0.00  0.00     0.007 A 
HETATM    9  C   UNK N   1      35.177  13.058  18.383  0.00  0.00     0.018 A 
HETATM   10  C   UNK N   1      34.990  13.640  17.124  0.00  0.00     0.037 A 
BRANCH   8  11
HETATM   11  C   UNK N   1      35.623  11.071  19.832  0.00  0.00     0.102 C 
HETATM   12  N   UNK N   1      34.711  11.176  20.729  0.00  0.00    -0.385 N 
HETATM   13  H   UNK N   1      33.868  11.650  20.541  0.00  0.00     0.157 HD
ATOM     14  HN  UNK N   1      34.860  10.762  21.649  1.00  0.00     0.157 HD
BRANCH  11  15
HETATM   15  N   UNK N   1      36.819  10.384  20.138  0.00  0.00    -0.385 N 
HETATM   16  H   UNK N   1      37.688  10.844  20.109  0.00  0.00     0.157 HD
HETATM   17  H   UNK N   1      36.781   9.431  20.384  0.00  0.00     0.157 HD
ENDBRANCH  11  15
ENDBRANCH   8  11
ENDBRANCH   4   5
ENDBRANCH   3   4
ENDBRANCH   2   3
ENDBRANCH   1   2
BRANCH   1  18
HETATM   18  C   UNK N   1      35.765  15.343  10.651  0.00  0.00     0.002 C 
BRANCH  18  19
HETATM   19  C   UNK N   1      34.842  16.365  10.013  0.00  0.00     0.027 C 
BRANCH  19  20
HETATM   20  C   UNK N   1      34.349  15.864   8.668  0.00  0.00     0.175 C 
BRANCH  20  21
HETATM   21  O   UNK N   1      33.786  16.894   7.941  0.00  0.00    -0.351 OA
BRANCH  21  22
HETATM   22  C   UNK N   1      32.460  17.169   7.956  0.00  0.00     0.068 A 
HETATM   23  C   UNK N   1      31.593  16.416   7.156  0.00  0.00     0.037 A 
HETATM   24  C   UNK N   1      30.217  16.672   7.171  0.00  0.00     0.018 A 
HETATM   25  C   UNK N   1      29.695  17.695   7.977  0.00  0.00     0.007 A 
HETATM   26  C   UNK N   1      30.566  18.457   8.767  0.00  0.00     0.018 A 
HETATM   27  C   UNK N   1      31.936  18.194   8.761  0.00  0.00     0.037 A 
BRANCH  25  28
HETATM   28  C   UNK N   1      28.240  17.958   8.002  0.00  0.00     0.102 C 
HETATM   29  N   UNK N   1      27.683  18.420   9.063  0.00  0.00    -0.385 N 
HETATM   30  H   UNK N   1      28.213  18.618   9.868  0.00  0.00     0.157 HD
ATOM     31  HN  UNK N   1      26.676  18.583   9.072  1.00  0.00     0.157 HD
BRANCH  28  32
HETATM   32  N   UNK N   1      27.445  17.679   6.868  0.00  0.00    -0.385 N 
HETATM   33  H   UNK N   1      27.281  18.367   6.184  0.00  0.00     0.157 HD
HETATM   34  H   UNK N   1      27.049  16.783   6.761  0.00  0.00     0.157 HD
ENDBRANCH  28  32
ENDBRANCH  25  28
ENDBRANCH  21  22
ENDBRANCH  20  21
ENDBRANCH  19  20
ENDBRANCH  18  19
ENDBRANCH   1  18
TORSDOF 13
ENDMDL
MODEL 7
REMARK VINA RESULT:      -5.4     13.515     16.471
REMARK  13 active torsions:
REMARK  status: ('A' for Active; 'I' for Inactive)
REMARK    1  A    between atoms: C_1  and  C_7 
REMARK    2  A    between atoms: C_4  and  O_11 
REMARK    3  A    between atoms: C_7  and  N_8 
REMARK    4  A    between atoms: O_11  and  C_12 
REMARK    5  A    between atoms: C_12  and  C_13 
REMARK    6  A    between atoms: C_13  and  C_14 
REMARK    7  A    between atoms: C_14  and  C_15 
REMARK    8  A    between atoms: C_15  and  C_16 
REMARK    9  A    between atoms: C_16  and  C_17 
REMARK   10  A    between atoms: C_17  and  O_18 
REMARK   11  A    between atoms: O_18  and  C_19 
REMARK   12  A    between atoms: C_22  and  C_25 
REMARK   13  A    between atoms: C_25  and  N_26 
ROOT
HETATM    1  C   UNK N   1      21.282  13.151  10.095  0.00  0.00     0.002 C 
ENDROOT
BRANCH   1   2
HETATM    2  C   UNK N   1      22.614  12.501  10.420  0.00  0.00     0.027 C 
BRANCH   2   3
HETATM    3  C   UNK N   1      22.966  11.516   9.318  0.00  0.00     0.175 C 
BRANCH   3   4
HETATM    4  O   UNK N   1      24.104  11.897   8.636  0.00  0.00    -0.351 OA
BRANCH   4   5
HETATM    5  C   UNK N   1      24.147  12.942   7.774  0.00  0.00     0.068 A 
HETATM    6  C   UNK N   1      23.206  13.081   6.739  0.00  0.00     0.037 A 
HETATM    7  C   UNK N   1      23.279  14.163   5.860  0.00  0.00     0.018 A 
HETATM    8  C   UNK N   1      24.300  15.114   5.989  0.00  0.00     0.007 A 
HETATM    9  C   UNK N   1      25.240  14.976   7.021  0.00  0.00     0.018 A 
HETATM   10  C   UNK N   1      25.158  13.900   7.913  0.00  0.00     0.037 A 
BRANCH   8  11
HETATM   11  C   UNK N   1      24.393  16.248   5.044  0.00  0.00     0.102 C 
HETATM   12  N   UNK N   1      23.800  16.194   3.907  0.00  0.00    -0.385 N 
HETATM   13  H   UNK N   1      23.264  15.408   3.652  0.00  0.00     0.157 HD
ATOM     14  HN  UNK N   1      23.886  16.976   3.257  1.00  0.00     0.157 HD
BRANCH  11  15
HETATM   15  N   UNK N   1      25.154  17.391   5.374  0.00  0.00    -0.385 N 
HETATM   16  H   UNK N   1      25.021  18.243   4.899  0.00  0.00     0.157 HD
HETATM   17  H   UNK N   1      25.828  17.335   6.090  0.00  0.00     0.157 HD
ENDBRANCH  11  15
ENDBRANCH   8  11
ENDBRANCH   4   5
ENDBRANCH   3   4
ENDBRANCH   2   3
ENDBRANCH   1   2
BRANCH   1  18
HETATM   18  C   UNK N   1      21.496  14.537   9.521  0.00  0.00     0.002 C 
BRANCH  18  19
HETATM   19  C   UNK N   1      20.197  15.046   8.919  0.00  0.00     0.027 C 
BRANCH  19  20
HETATM   20  C   UNK N   1      20.330  16.509   8.540  0.00  0.00     0.175 C 
BRANCH  20  21
HETATM   21  O   UNK N   1      21.291  16.673   7.563  0.00  0.00    -0.351 OA
BRANCH  21  22
HETATM   22  C   UNK N   1      21.002  17.079   6.303  0.00  0.00     0.068 A 
HETATM   23  C   UNK N   1      20.231  16.255   5.476  0.00  0.00     0.037 A 
HETATM   24  C   UNK N   1      19.906  16.664   4.177  0.00  0.00     0.018 A 
HETATM   25  C   UNK N   1      20.362  17.898   3.688  0.00  0.00     0.007 A 
HETATM   26  C   UNK N   1      21.146  18.715   4.513  0.00  0.00     0.018 A 
HETATM   27  C   UNK N   1      21.459  18.313   5.811  0.00  0.00     0.037 A 
BRANCH  25  28
HETATM   28  C   UNK N   1      20.008  18.335   2.320  0.00  0.00     0.102 C 
HETATM   29  N   UNK N   1      20.344  19.504   1.907  0.00  0.00    -0.385 N 
HETATM   30  H   UNK N   1      20.851  20.119   2.485  0.00  0.00     0.157 HD
ATOM     31  HN  UNK N   1      20.083  19.799   0.966  1.00  0.00     0.157 HD
BRANCH  28  32
HETATM   32  N   UNK N   1      19.276  17.482   1.465  0.00  0.00    -0.385 N 
HETATM   33  H   UNK N   1      19.575  16.561   1.292  0.00  0.00     0.157 HD
HETATM   34  H   UNK N   1      18.455  17.815   1.035  0.00  0.00     0.157 HD
ENDBRANCH  28  32
ENDBRANCH  25  28
ENDBRANCH  21  22
ENDBRANCH  20  21
ENDBRANCH  19  20
ENDBRANCH  18  19
ENDBRANCH   1  18
TORSDOF 13
ENDMDL
MODEL 8
REMARK VINA RESULT:      -5.4     20.281     24.364
REMARK  13 active torsions:
REMARK  status: ('A' for Active; 'I' for Inactive)
REMARK    1  A    between atoms: C_1  and  C_7 
REMARK    2  A    between atoms: C_4  and  O_11 
REMARK    3  A    between atoms: C_7  and  N_8 
REMARK    4  A    between atoms: O_11  and  C_12 
REMARK    5  A    between atoms: C_12  and  C_13 
REMARK    6  A    between atoms: C_13  and  C_14 
REMARK    7  A    between atoms: C_14  and  C_15 
REMARK    8  A    between atoms: C_15  and  C_16 
REMARK    9  A    between atoms: C_16  and  C_17 
REMARK   10  A    between atoms: C_17  and  O_18 
REMARK   11  A    between atoms: O_18  and  C_19 
REMARK   12  A    between atoms: C_22  and  C_25 
REMARK   13  A    between atoms: C_25  and  N_26 
ROOT
HETATM    1  C   UNK N   1      28.630  23.543  -6.384  0.00  0.00     0.002 C 
ENDROOT
BRANCH   1   2
HETATM    2  C   UNK N   1      28.153  24.030  -5.028  0.00  0.00     0.027 C 
BRANCH   2   3
HETATM    3  C   UNK N   1      29.112  25.090  -4.516  0.00  0.00     0.175 C 
BRANCH   3   4
HETATM    4  O   UNK N   1      29.861  24.633  -3.451  0.00  0.00    -0.351 OA
BRANCH   4   5
HETATM    5  C   UNK N   1      30.839  23.702  -3.567  0.00  0.00     0.068 A 
HETATM    6  C   UNK N   1      31.901  23.860  -4.473  0.00  0.00     0.037 A 
HETATM    7  C   UNK N   1      32.891  22.882  -4.578  0.00  0.00     0.018 A 
HETATM    8  C   UNK N   1      32.829  21.723  -3.793  0.00  0.00     0.007 A 
HETATM    9  C   UNK N   1      31.769  21.564  -2.888  0.00  0.00     0.018 A 
HETATM   10  C   UNK N   1      30.785  22.552  -2.771  0.00  0.00     0.037 A 
BRANCH   8  11
HETATM   11  C   UNK N   1      33.864  20.674  -3.920  0.00  0.00     0.102 C 
HETATM   12  N   UNK N   1      35.055  20.980  -4.285  0.00  0.00    -0.385 N 
HETATM   13  H   UNK N   1      35.304  21.915  -4.471  0.00  0.00     0.157 HD
ATOM     14  HN  UNK N   1      35.756  20.245  -4.385  1.00  0.00     0.157 HD
BRANCH  11  15
HETATM   15  N   UNK N   1      33.544  19.322  -3.663  0.00  0.00    -0.385 N 
HETATM   16  H   UNK N   1      32.609  19.015  -3.658  0.00  0.00     0.157 HD
HETATM   17  H   UNK N   1      34.268  18.678  -3.487  0.00  0.00     0.157 HD
ENDBRANCH  11  15
ENDBRANCH   8  11
ENDBRANCH   4   5
ENDBRANCH   3   4
ENDBRANCH   2   3
ENDBRANCH   1   2
BRANCH   1  18
HETATM   18  C   UNK N   1      27.457  23.076  -7.222  0.00  0.00     0.002 C 
BRANCH  18  19
HETATM   19  C   UNK N   1      26.178  23.716  -6.710  0.00  0.00     0.027 C 
BRANCH  19  20
HETATM   20  C   UNK N   1      25.527  24.541  -7.806  0.00  0.00     0.175 C 
BRANCH  20  21
HETATM   21  O   UNK N   1      26.132  25.777  -7.908  0.00  0.00    -0.351 OA
BRANCH  21  22
HETATM   22  C   UNK N   1      26.216  26.647  -6.873  0.00  0.00     0.068 A 
HETATM   23  C   UNK N   1      27.338  27.476  -6.762  0.00  0.00     0.037 A 
HETATM   24  C   UNK N   1      27.435  28.395  -5.710  0.00  0.00     0.018 A 
HETATM   25  C   UNK N   1      26.415  28.483  -4.750  0.00  0.00     0.007 A 
HETATM   26  C   UNK N   1      25.300  27.642  -4.855  0.00  0.00     0.018 A 
HETATM   27  C   UNK N   1      25.198  26.735  -5.910  0.00  0.00     0.037 A 
BRANCH  25  28
HETATM   28  C   UNK N   1      26.513  29.462  -3.646  0.00  0.00     0.102 C 
HETATM   29  N   UNK N   1      27.005  29.112  -2.512  0.00  0.00    -0.385 N 
HETATM   30  H   UNK N   1      27.336  28.198  -2.365  0.00  0.00     0.157 HD
ATOM     31  HN  UNK N   1      27.054  29.793  -1.754  1.00  0.00     0.157 HD
BRANCH  28  32
HETATM   32  N   UNK N   1      26.042  30.783  -3.818  0.00  0.00    -0.385 N 
HETATM   33  H   UNK N   1      26.038  31.206  -4.706  0.00  0.00     0.157 HD
HETATM   34  H   UNK N   1      25.712  31.285  -3.038  0.00  0.00     0.157 HD
ENDBRANCH  28  32
ENDBRANCH  25  28
ENDBRANCH  21  22
ENDBRANCH  20  21
ENDBRANCH  19  20
ENDBRANCH  18  19
ENDBRANCH   1  18
TORSDOF 13
ENDMDL
MODEL 9
REMARK VINA RESULT:      -5.2      4.225      6.111
REMARK  13 active torsions:
REMARK  status: ('A' for Active; 'I' for Inactive)
REMARK    1  A    between atoms: C_1  and  C_7 
REMARK    2  A    between atoms: C_4  and  O_11 
REMARK    3  A    between atoms: C_7  and  N_8 
REMARK    4  A    between atoms: O_11  and  C_12 
REMARK    5  A    between atoms: C_12  and  C_13 
REMARK    6  A    between atoms: C_13  and  C_14 
REMARK    7  A    between atoms: C_14  and  C_15 
REMARK    8  A    between atoms: C_15  and  C_16 
REMARK    9  A    between atoms: C_16  and  C_17 
REMARK   10  A    between atoms: C_17  and  O_18 
REMARK   11  A    between atoms: O_18  and  C_19 
REMARK   12  A    between atoms: C_22  and  C_25 
REMARK   13  A    between atoms: C_25  and  N_26 
ROOT
HETATM    1  C   UNK N   1      35.650  13.692   9.693  0.00  0.00     0.002 C 
ENDROOT
BRANCH   1   2
HETATM    2  C   UNK N   1      35.074  13.173  10.997  0.00  0.00     0.027 C 
BRANCH   2   3
HETATM    3  C   UNK N   1      36.213  12.737  11.903  0.00  0.00     0.175 C 
BRANCH   3   4
HETATM    4  O   UNK N   1      35.753  12.058  13.013  0.00  0.00    -0.351 OA
BRANCH   4   5
HETATM    5  C   UNK N   1      35.684  12.604  14.252  0.00  0.00     0.068 A 
HETATM    6  C   UNK N   1      36.658  13.506  14.712  0.00  0.00     0.037 A 
HETATM    7  C   UNK N   1      36.568  14.047  15.996  0.00  0.00     0.018 A 
HETATM    8  C   UNK N   1      35.514  13.685  16.845  0.00  0.00     0.007 A 
HETATM    9  C   UNK N   1      34.542  12.783  16.387  0.00  0.00     0.018 A 
HETATM   10  C   UNK N   1      34.623  12.253  15.094  0.00  0.00     0.037 A 
BRANCH   8  11
HETATM   11  C   UNK N   1      35.430  14.238  18.215  0.00  0.00     0.102 C 
HETATM   12  N   UNK N   1      35.722  15.468  18.436  0.00  0.00    -0.385 N 
HETATM   13  H   UNK N   1      35.991  16.065  17.700  0.00  0.00     0.157 HD
ATOM     14  HN  UNK N   1      35.676  15.833  19.387  1.00  0.00     0.157 HD
BRANCH  11  15
HETATM   15  N   UNK N   1      35.049  13.412  19.296  0.00  0.00    -0.385 N 
HETATM   16  H   UNK N   1      34.883  13.791  20.189  0.00  0.00     0.157 HD
HETATM   17  H   UNK N   1      34.948  12.443  19.154  0.00  0.00     0.157 HD
ENDBRANCH  11  15
ENDBRANCH   8  11
ENDBRANCH   4   5
ENDBRANCH   3   4
ENDBRANCH   2   3
ENDBRANCH   1   2
BRANCH   1  18
HETATM   18  C   UNK N   1      34.764  14.781   9.120  0.00  0.00     0.002 C 
BRANCH  18  19
HETATM   19  C   UNK N   1      33.684  14.157   8.254  0.00  0.00     0.027 C 
BRANCH  19  20
HETATM   20  C   UNK N   1      33.512  14.951   6.972  0.00  0.00     0.175 C 
BRANCH  20  21
HETATM   21  O   UNK N   1      33.319  16.289   7.251  0.00  0.00    -0.351 OA
BRANCH  21  22
HETATM   22  C   UNK N   1      32.092  16.839   7.416  0.00  0.00     0.068 A 
HETATM   23  C   UNK N   1      31.099  16.603   6.460  0.00  0.00     0.037 A 
HETATM   24  C   UNK N   1      29.819  17.147   6.622  0.00  0.00     0.018 A 
HETATM   25  C   UNK N   1      29.525  17.946   7.738  0.00  0.00     0.007 A 
HETATM   26  C   UNK N   1      30.526  18.194   8.687  0.00  0.00     0.018 A 
HETATM   27  C   UNK N   1      31.797  17.641   8.531  0.00  0.00     0.037 A 
BRANCH  25  28
HETATM   28  C   UNK N   1      28.170  18.512   7.915  0.00  0.00     0.102 C 
HETATM   29  N   UNK N   1      27.664  18.624   9.091  0.00  0.00    -0.385 N 
HETATM   30  H   UNK N   1      28.171  18.352   9.888  0.00  0.00     0.157 HD
ATOM     31  HN  UNK N   1      26.723  19.003   9.198  1.00  0.00     0.157 HD
BRANCH  28  32
HETATM   32  N   UNK N   1      27.409  18.908   6.793  0.00  0.00    -0.385 N 
HETATM   33  H   UNK N   1      27.064  18.243   6.156  0.00  0.00     0.157 HD
HETATM   34  H   UNK N   1      27.223  19.864   6.647  0.00  0.00     0.157 HD
ENDBRANCH  28  32
ENDBRANCH  25  28
ENDBRANCH  21  22
ENDBRANCH  20  21
ENDBRANCH  19  20
ENDBRANCH  18  19
ENDBRANCH   1  18
TORSDOF 13
ENDMDL
