MODEL 1
REMARK VINA RESULT:      -4.7      0.000      0.000
REMARK  9 active torsions:
REMARK  status: ('A' for Active; 'I' for Inactive)
REMARK    1  A    between atoms: C_1  and  C_3 
REMARK    2  A    between atoms: C_1  and  O_12 
REMARK    3  A    between atoms: C_3  and  C_4 
REMARK    4  A    between atoms: C_4  and  C_5 
REMARK    5  A    between atoms: C_5  and  C_6 
REMARK    6  A    between atoms: C_6  and  C_7 
REMARK    7  A    between atoms: C_7  and  C_8 
REMARK    8  A    between atoms: C_8  and  C_9 
REMARK    9  A    between atoms: C_9  and  C_10 
ROOT
HETATM    1  C   UNK N   1      21.208  14.990   8.300  0.00  0.00     0.001 C 
ENDROOT
BRANCH   1   2
HETATM    2  C   UNK N   1      20.098  15.804   8.919  0.00  0.00     0.010 C 
BRANCH   2   3
HETATM    3  C   UNK N   1      20.011  17.170   8.269  0.00  0.00     0.110 C 
BRANCH   3   4
HETATM    4  C   UNK N   1      19.382  18.165   9.198  0.00  0.00     0.139 C 
HETATM    5  O   UNK N   1      20.072  19.030   9.706  0.00  0.00    -0.650 OA
BRANCH   4   6
HETATM    6  O   UNK N   1      18.063  18.114   9.476  0.00  0.00    -0.776 OA
HETATM    7  H   UNK N   1      17.441  18.016   8.782  0.00  0.00     0.167 HD
ENDBRANCH   4   6
ENDBRANCH   3   4
ENDBRANCH   2   3
ENDBRANCH   1   2
BRANCH   1   8
HETATM    8  C   UNK N   1      21.792  14.113   9.382  0.00  0.00     0.000 C 
BRANCH   8   9
HETATM    9  C   UNK N   1      20.677  13.434  10.136  0.00  0.00     0.000 C 
BRANCH   9  10
HETATM   10  C   UNK N   1      21.262  12.372  11.038  0.00  0.00     0.000 C 
BRANCH  10  11
HETATM   11  C   UNK N   1      22.558  11.891  10.431  0.00  0.00    -0.000 C 
BRANCH  11  12
HETATM   12  C   UNK N   1      23.652  11.907  11.473  0.00  0.00    -0.005 C 
HETATM   13  C   UNK N   1      23.019  11.866  12.847  0.00  0.00     0.005 C 
ENDBRANCH  11  12
ENDBRANCH  10  11
ENDBRANCH   9  10
ENDBRANCH   8   9
ENDBRANCH   1   8
TORSDOF 9
ENDMDL
MODEL 2
REMARK VINA RESULT:      -4.5      8.768      9.635
REMARK  9 active torsions:
REMARK  status: ('A' for Active; 'I' for Inactive)
REMARK    1  A    between atoms: C_1  and  C_3 
REMARK    2  A    between atoms: C_1  and  O_12 
REMARK    3  A    between atoms: C_3  and  C_4 
REMARK    4  A    between atoms: C_4  and  C_5 
REMARK    5  A    between atoms: C_5  and  C_6 
REMARK    6  A    between atoms: C_6  and  C_7 
REMARK    7  A    between atoms: C_7  and  C_8 
REMARK    8  A    between atoms: C_8  and  C_9 
REMARK    9  A    between atoms: C_9  and  C_10 
ROOT
HETATM    1  C   UNK N   1      23.901  19.649   3.722  0.00  0.00     0.001 C 
ENDROOT
BRANCH   1   2
HETATM    2  C   UNK N   1      22.469  19.446   3.290  0.00  0.00     0.010 C 
BRANCH   2   3
HETATM    3  C   UNK N   1      21.929  20.698   2.629  0.00  0.00     0.110 C 
BRANCH   3   4
HETATM    4  C   UNK N   1      21.025  20.351   1.484  0.00  0.00     0.139 C 
HETATM    5  O   UNK N   1      21.330  20.688   0.355  0.00  0.00    -0.650 OA
BRANCH   4   6
HETATM    6  O   UNK N   1      19.879  19.669   1.690  0.00  0.00    -0.776 OA
HETATM    7  H   UNK N   1      19.871  18.926   2.261  0.00  0.00     0.167 HD
ENDBRANCH   4   6
ENDBRANCH   3   4
ENDBRANCH   2   3
ENDBRANCH   1   2
BRANCH   1   8
HETATM    8  C   UNK N   1      24.572  20.524   2.691  0.00  0.00     0.000 C 
BRANCH   8   9
HETATM    9  C   UNK N   1      26.055  20.572   2.959  0.00  0.00     0.000 C 
BRANCH   9  10
HETATM   10  C   UNK N   1      26.427  19.450   3.899  0.00  0.00     0.000 C 
BRANCH  10  11
HETATM   11  C   UNK N   1      27.596  19.901   4.742  0.00  0.00    -0.000 C 
BRANCH  11  12
HETATM   12  C   UNK N   1      27.250  21.189   5.453  0.00  0.00    -0.005 C 
HETATM   13  C   UNK N   1      26.451  20.862   6.696  0.00  0.00     0.005 C 
ENDBRANCH  11  12
ENDBRANCH  10  11
ENDBRANCH   9  10
ENDBRANCH   8   9
ENDBRANCH   1   8
TORSDOF 9
ENDMDL
MODEL 3
REMARK VINA RESULT:      -4.5     10.745     12.198
REMARK  9 active torsions:
REMARK  status: ('A' for Active; 'I' for Inactive)
REMARK    1  A    between atoms: C_1  and  C_3 
REMARK    2  A    between atoms: C_1  and  O_12 
REMARK    3  A    between atoms: C_3  and  C_4 
REMARK    4  A    between atoms: C_4  and  C_5 
REMARK    5  A    between atoms: C_5  and  C_6 
REMARK    6  A    between atoms: C_6  and  C_7 
REMARK    7  A    between atoms: C_7  and  C_8 
REMARK    8  A    between atoms: C_8  and  C_9 
REMARK    9  A    between atoms: C_9  and  C_10 
ROOT
HETATM    1  C   UNK N   1      30.671  17.060   7.574  0.00  0.00     0.001 C 
ENDROOT
BRANCH   1   2
HETATM    2  C   UNK N   1      32.114  17.232   7.167  0.00  0.00     0.010 C 
BRANCH   2   3
HETATM    3  C   UNK N   1      32.880  17.996   8.228  0.00  0.00     0.110 C 
BRANCH   3   4
HETATM    4  C   UNK N   1      34.273  18.302   7.766  0.00  0.00     0.139 C 
HETATM    5  O   UNK N   1      34.691  17.794   6.742  0.00  0.00    -0.650 OA
BRANCH   4   6
HETATM    6  O   UNK N   1      35.068  19.134   8.470  0.00  0.00    -0.776 OA
HETATM    7  H   UNK N   1      34.938  19.237   9.392  0.00  0.00     0.167 HD
ENDBRANCH   4   6
ENDBRANCH   3   4
ENDBRANCH   2   3
ENDBRANCH   1   2
BRANCH   1   8
HETATM    8  C   UNK N   1      30.512  17.637   8.960  0.00  0.00     0.000 C 
BRANCH   8   9
HETATM    9  C   UNK N   1      29.152  18.274   9.088  0.00  0.00     0.000 C 
BRANCH   9  10
HETATM   10  C   UNK N   1      28.461  18.246   7.744  0.00  0.00     0.000 C 
BRANCH  10  11
HETATM   11  C   UNK N   1      27.984  19.642   7.424  0.00  0.00    -0.000 C 
BRANCH  11  12
HETATM   12  C   UNK N   1      27.559  19.721   5.976  0.00  0.00    -0.005 C 
HETATM   13  C   UNK N   1      26.841  21.034   5.748  0.00  0.00     0.005 C 
ENDBRANCH  11  12
ENDBRANCH  10  11
ENDBRANCH   9  10
ENDBRANCH   8   9
ENDBRANCH   1   8
TORSDOF 9
ENDMDL
MODEL 4
REMARK VINA RESULT:      -4.5     10.823     12.014
REMARK  9 active torsions:
REMARK  status: ('A' for Active; 'I' for Inactive)
REMARK    1  A    between atoms: C_1  and  C_3 
REMARK    2  A    between atoms: C_1  and  O_12 
REMARK    3  A    between atoms: C_3  and  C_4 
REMARK    4  A    between atoms: C_4  and  C_5 
REMARK    5  A    between atoms: C_5  and  C_6 
REMARK    6  A    between atoms: C_6  and  C_7 
REMARK    7  A    between atoms: C_7  and  C_8 
REMARK    8  A    between atoms: C_8  and  C_9 
REMARK    9  A    between atoms: C_9  and  C_10 
ROOT
HETATM    1  C   UNK N   1      31.604  15.972   8.007  0.00  0.00     0.001 C 
ENDROOT
BRANCH   1   2
HETATM    2  C   UNK N   1      33.095  16.169   8.133  0.00  0.00     0.010 C 
BRANCH   2   3
HETATM    3  C   UNK N   1      33.404  17.518   8.750  0.00  0.00     0.110 C 
BRANCH   3   4
HETATM    4  C   UNK N   1      34.373  18.285   7.901  0.00  0.00     0.139 C 
HETATM    5  O   UNK N   1      35.075  19.139   8.414  0.00  0.00    -0.650 OA
BRANCH   4   6
HETATM    6  O   UNK N   1      34.478  18.042   6.579  0.00  0.00    -0.776 OA
HETATM    7  H   UNK N   1      33.940  17.388   6.179  0.00  0.00     0.167 HD
ENDBRANCH   4   6
ENDBRANCH   3   4
ENDBRANCH   2   3
ENDBRANCH   1   2
BRANCH   1   8
HETATM    8  C   UNK N   1      31.180  16.523   6.667  0.00  0.00     0.000 C 
BRANCH   8   9
HETATM    9  C   UNK N   1      29.675  16.596   6.605  0.00  0.00     0.000 C 
BRANCH   9  10
HETATM   10  C   UNK N   1      29.213  17.889   7.234  0.00  0.00     0.000 C 
BRANCH  10  11
HETATM   11  C   UNK N   1      28.145  17.570   8.252  0.00  0.00    -0.000 C 
BRANCH  11  12
HETATM   12  C   UNK N   1      28.752  17.516   9.635  0.00  0.00    -0.005 C 
HETATM   13  C   UNK N   1      29.701  18.683   9.798  0.00  0.00     0.005 C 
ENDBRANCH  11  12
ENDBRANCH  10  11
ENDBRANCH   9  10
ENDBRANCH   8   9
ENDBRANCH   1   8
TORSDOF 9
ENDMDL
MODEL 5
REMARK VINA RESULT:      -4.4      3.848      6.117
REMARK  9 active torsions:
REMARK  status: ('A' for Active; 'I' for Inactive)
REMARK    1  A    between atoms: C_1  and  C_3 
REMARK    2  A    between atoms: C_1  and  O_12 
REMARK    3  A    between atoms: C_3  and  C_4 
REMARK    4  A    between atoms: C_4  and  C_5 
REMARK    5  A    between atoms: C_5  and  C_6 
REMARK    6  A    between atoms: C_6  and  C_7 
REMARK    7  A    between atoms: C_7  and  C_8 
REMARK    8  A    between atoms: C_8  and  C_9 
REMARK    9  A    between atoms: C_9  and  C_10 
ROOT
HETATM    1  C   UNK N   1      22.128  13.016   9.520  0.00  0.00     0.001 C 
ENDROOT
BRANCH   1   2
HETATM    2  C   UNK N   1      22.763  11.841  10.222  0.00  0.00     0.010 C 
BRANCH   2   3
HETATM    3  C   UNK N   1      22.453  11.874  11.705  0.00  0.00     0.110 C 
BRANCH   3   4
HETATM    4  C   UNK N   1      23.702  12.074  12.509  0.00  0.00     0.139 C 
HETATM    5  O   UNK N   1      23.633  12.126  13.724  0.00  0.00    -0.650 OA
BRANCH   4   6
HETATM    6  O   UNK N   1      24.902  12.196  11.904  0.00  0.00    -0.776 OA
HETATM    7  H   UNK N   1      24.968  12.635  11.079  0.00  0.00     0.167 HD
ENDBRANCH   4   6
ENDBRANCH   3   4
ENDBRANCH   2   3
ENDBRANCH   1   2
BRANCH   1   8
HETATM    8  C   UNK N   1      20.804  13.291  10.191  0.00  0.00     0.000 C 
BRANCH   8   9
HETATM    9  C   UNK N   1      20.154  14.491   9.550  0.00  0.00     0.000 C 
BRANCH   9  10
HETATM   10  C   UNK N   1      20.688  14.656   8.147  0.00  0.00     0.000 C 
BRANCH  10  11
HETATM   11  C   UNK N   1      20.998  16.116   7.923  0.00  0.00    -0.000 C 
BRANCH  11  12
HETATM   12  C   UNK N   1      21.759  16.288   6.628  0.00  0.00    -0.005 C 
HETATM   13  C   UNK N   1      22.985  15.401   6.661  0.00  0.00     0.005 C 
ENDBRANCH  11  12
ENDBRANCH  10  11
ENDBRANCH   9  10
ENDBRANCH   8   9
ENDBRANCH   1   8
TORSDOF 9
ENDMDL
MODEL 6
REMARK VINA RESULT:      -4.4     16.930     19.283
REMARK  9 active torsions:
REMARK  status: ('A' for Active; 'I' for Inactive)
REMARK    1  A    between atoms: C_1  and  C_3 
REMARK    2  A    between atoms: C_1  and  O_12 
REMARK    3  A    between atoms: C_3  and  C_4 
REMARK    4  A    between atoms: C_4  and  C_5 
REMARK    5  A    between atoms: C_5  and  C_6 
REMARK    6  A    between atoms: C_6  and  C_7 
REMARK    7  A    between atoms: C_7  and  C_8 
REMARK    8  A    between atoms: C_8  and  C_9 
REMARK    9  A    between atoms: C_9  and  C_10 
ROOT
HETATM    1  C   UNK N   1      27.498  24.498  -4.859  0.00  0.00     0.001 C 
ENDROOT
BRANCH   1   2
HETATM    2  C   UNK N   1      28.642  24.747  -3.907  0.00  0.00     0.010 C 
BRANCH   2   3
HETATM    3  C   UNK N   1      29.366  23.453  -3.594  0.00  0.00     0.110 C 
BRANCH   3   4
HETATM    4  C   UNK N   1      29.291  23.138  -2.130  0.00  0.00     0.139 C 
HETATM    5  O   UNK N   1      30.319  23.016  -1.489  0.00  0.00    -0.650 OA
BRANCH   4   6
HETATM    6  O   UNK N   1      28.099  22.990  -1.515  0.00  0.00    -0.776 OA
HETATM    7  H   UNK N   1      27.345  22.740  -2.010  0.00  0.00     0.167 HD
ENDBRANCH   4   6
ENDBRANCH   3   4
ENDBRANCH   2   3
ENDBRANCH   1   2
BRANCH   1   8
HETATM    8  C   UNK N   1      26.284  25.213  -4.314  0.00  0.00     0.000 C 
BRANCH   8   9
HETATM    9  C   UNK N   1      25.394  25.636  -5.454  0.00  0.00     0.000 C 
BRANCH   9  10
HETATM   10  C   UNK N   1      25.141  27.123  -5.362  0.00  0.00     0.000 C 
BRANCH  10  11
HETATM   11  C   UNK N   1      25.567  27.595  -3.992  0.00  0.00    -0.000 C 
BRANCH  11  12
HETATM   12  C   UNK N   1      26.275  28.926  -4.103  0.00  0.00    -0.005 C 
HETATM   13  C   UNK N   1      27.728  28.739  -3.723  0.00  0.00     0.005 C 
ENDBRANCH  11  12
ENDBRANCH  10  11
ENDBRANCH   9  10
ENDBRANCH   8   9
ENDBRANCH   1   8
TORSDOF 9
ENDMDL
MODEL 7
REMARK VINA RESULT:      -4.3     19.258     20.611
REMARK  9 active torsions:
REMARK  status: ('A' for Active; 'I' for Inactive)
REMARK    1  A    between atoms: C_1  and  C_3 
REMARK    2  A    between atoms: C_1  and  O_12 
REMARK    3  A    between atoms: C_3  and  C_4 
REMARK    4  A    between atoms: C_4  and  C_5 
REMARK    5  A    between atoms: C_5  and  C_6 
REMARK    6  A    between atoms: C_6  and  C_7 
REMARK    7  A    between atoms: C_7  and  C_8 
REMARK    8  A    between atoms: C_8  and  C_9 
REMARK    9  A    between atoms: C_9  and  C_10 
ROOT
HETATM    1  C   UNK N   1      26.802  23.957  -5.402  0.00  0.00     0.001 C 
ENDROOT
BRANCH   1   2
HETATM    2  C   UNK N   1      26.804  23.311  -6.767  0.00  0.00     0.010 C 
BRANCH   2   3
HETATM    3  C   UNK N   1      25.669  22.315  -6.887  0.00  0.00     0.110 C 
BRANCH   3   4
HETATM    4  C   UNK N   1      25.026  22.398  -8.239  0.00  0.00     0.139 C 
HETATM    5  O   UNK N   1      24.566  23.458  -8.621  0.00  0.00    -0.650 OA
BRANCH   4   6
HETATM    6  O   UNK N   1      24.953  21.313  -9.038  0.00  0.00    -0.776 OA
HETATM    7  H   UNK N   1      24.327  20.639  -8.857  0.00  0.00     0.167 HD
ENDBRANCH   4   6
ENDBRANCH   3   4
ENDBRANCH   2   3
ENDBRANCH   1   2
BRANCH   1   8
HETATM    8  C   UNK N   1      25.505  24.715  -5.256  0.00  0.00     0.000 C 
BRANCH   8   9
HETATM    9  C   UNK N   1      25.487  25.875  -6.218  0.00  0.00     0.000 C 
BRANCH   9  10
HETATM   10  C   UNK N   1      24.765  27.039  -5.580  0.00  0.00     0.000 C 
BRANCH  10  11
HETATM   11  C   UNK N   1      25.788  27.928  -4.914  0.00  0.00    -0.000 C 
BRANCH  11  12
HETATM   12  C   UNK N   1      26.918  28.222  -5.875  0.00  0.00    -0.005 C 
HETATM   13  C   UNK N   1      27.677  29.434  -5.380  0.00  0.00     0.005 C 
ENDBRANCH  11  12
ENDBRANCH  10  11
ENDBRANCH   9  10
ENDBRANCH   8   9
ENDBRANCH   1   8
TORSDOF 9
ENDMDL
MODEL 8
REMARK VINA RESULT:      -4.3     14.913     15.872
REMARK  9 active torsions:
REMARK  status: ('A' for Active; 'I' for Inactive)
REMARK    1  A    between atoms: C_1  and  C_3 
REMARK    2  A    between atoms: C_1  and  O_12 
REMARK    3  A    between atoms: C_3  and  C_4 
REMARK    4  A    between atoms: C_4  and  C_5 
REMARK    5  A    between atoms: C_5  and  C_6 
REMARK    6  A    between atoms: C_6  and  C_7 
REMARK    7  A    between atoms: C_7  and  C_8 
REMARK    8  A    between atoms: C_8  and  C_9 
REMARK    9  A    between atoms: C_9  and  C_10 
ROOT
HETATM    1  C   UNK N   1      36.355  14.135  14.037  0.00  0.00     0.001 C 
ENDROOT
BRANCH   1   2
HETATM    2  C   UNK N   1      36.373  14.195  12.529  0.00  0.00     0.010 C 
BRANCH   2   3
HETATM    3  C   UNK N   1      35.444  15.282  12.027  0.00  0.00     0.110 C 
BRANCH   3   4
HETATM    4  C   UNK N   1      36.128  16.140  11.005  0.00  0.00     0.139 C 
HETATM    5  O   UNK N   1      35.546  17.107  10.546  0.00  0.00    -0.650 OA
BRANCH   4   6
HETATM    6  O   UNK N   1      37.378  15.855  10.587  0.00  0.00    -0.776 OA
HETATM    7  H   UNK N   1      38.106  16.342  10.921  0.00  0.00     0.167 HD
ENDBRANCH   4   6
ENDBRANCH   3   4
ENDBRANCH   2   3
ENDBRANCH   1   2
BRANCH   1   8
HETATM    8  C   UNK N   1      35.676  12.847  14.436  0.00  0.00     0.000 C 
BRANCH   8   9
HETATM    9  C   UNK N   1      36.347  12.283  15.663  0.00  0.00     0.000 C 
BRANCH   9  10
HETATM   10  C   UNK N   1      35.306  12.036  16.730  0.00  0.00     0.000 C 
BRANCH  10  11
HETATM   11  C   UNK N   1      34.902  13.367  17.319  0.00  0.00    -0.000 C 
BRANCH  11  12
HETATM   12  C   UNK N   1      35.164  13.371  18.807  0.00  0.00    -0.005 C 
HETATM   13  C   UNK N   1      35.422  11.951  19.262  0.00  0.00     0.005 C 
ENDBRANCH  11  12
ENDBRANCH  10  11
ENDBRANCH   9  10
ENDBRANCH   8   9
ENDBRANCH   1   8
TORSDOF 9
ENDMDL
MODEL 9
REMARK VINA RESULT:      -4.3     17.559     19.453
REMARK  9 active torsions:
REMARK  status: ('A' for Active; 'I' for Inactive)
REMARK    1  A    between atoms: C_1  and  C_3 
REMARK    2  A    between atoms: C_1  and  O_12 
REMARK    3  A    between atoms: C_3  and  C_4 
REMARK    4  A    between atoms: C_4  and  C_5 
REMARK    5  A    between atoms: C_5  and  C_6 
REMARK    6  A    between atoms: C_6  and  C_7 
REMARK    7  A    between atoms: C_7  and  C_8 
REMARK    8  A    between atoms: C_8  and  C_9 
REMARK    9  A    between atoms: C_9  and  C_10 
ROOT
HETATM    1  C   UNK N   1      28.470  23.626  -4.954  0.00  0.00     0.001 C 
ENDROOT
BRANCH   1   2
HETATM    2  C   UNK N   1      29.907  23.494  -4.514  0.00  0.00     0.010 C 
BRANCH   2   3
HETATM    3  C   UNK N   1      30.129  22.175  -3.803  0.00  0.00     0.110 C 
BRANCH   3   4
HETATM    4  C   UNK N   1      30.859  22.380  -2.510  0.00  0.00     0.139 C 
HETATM    5  O   UNK N   1      31.963  21.887  -2.360  0.00  0.00    -0.650 OA
BRANCH   4   6
HETATM    6  O   UNK N   1      30.311  23.104  -1.513  0.00  0.00    -0.776 OA
HETATM    7  H   UNK N   1      30.797  23.800  -1.118  0.00  0.00     0.167 HD
ENDBRANCH   4   6
ENDBRANCH   3   4
ENDBRANCH   2   3
ENDBRANCH   1   2
BRANCH   1   8
HETATM    8  C   UNK N   1      27.815  24.666  -4.077  0.00  0.00     0.000 C 
BRANCH   8   9
HETATM    9  C   UNK N   1      26.362  24.317  -3.879  0.00  0.00     0.000 C 
BRANCH   9  10
HETATM   10  C   UNK N   1      25.622  24.509  -5.182  0.00  0.00     0.000 C 
BRANCH  10  11
HETATM   11  C   UNK N   1      25.428  25.990  -5.406  0.00  0.00    -0.000 C 
BRANCH  11  12
HETATM   12  C   UNK N   1      25.736  26.337  -6.845  0.00  0.00    -0.005 C 
HETATM   13  C   UNK N   1      26.971  27.211  -6.883  0.00  0.00     0.005 C 
ENDBRANCH  11  12
ENDBRANCH  10  11
ENDBRANCH   9  10
ENDBRANCH   8   9
ENDBRANCH   1   8
TORSDOF 9
ENDMDL
