MODEL 1
REMARK VINA RESULT:      -5.4      0.000      0.000
REMARK  10 active torsions:
REMARK  status: ('A' for Active; 'I' for Inactive)
REMARK    1  A    between atoms: C_1  and  O_7 
REMARK    2  A    between atoms: C_2  and  O_8 
REMARK    3  A    between atoms: C_4  and  O_9 
REMARK    4  A    between atoms: C_5  and  C_6 
REMARK    5  A    between atoms: C_6  and  O_11 
REMARK    6  A    between atoms: O_7  and  C_12 
REMARK    7  A    between atoms: C_12  and  C_13 
REMARK    8  A    between atoms: C_13  and  C_14 
REMARK    9  A    between atoms: C_14  and  C_15 
REMARK   10  A    between atoms: C_15  and  C_16 
ROOT
HETATM    1  C   UNK N   1      22.336  19.147   3.345  0.00  0.00     0.288 C 
HETATM    2  C   UNK N   1      21.344  20.355   3.261  0.00  0.00     0.175 C 
HETATM    3  C   UNK N   1      20.166  19.990   2.369  0.00  0.00     0.071 C 
HETATM    4  C   UNK N   1      19.525  18.703   2.848  0.00  0.00     0.151 C 
HETATM    5  C   UNK N   1      20.605  17.614   2.900  0.00  0.00     0.177 C 
HETATM    6  O   UNK N   1      21.639  17.995   3.798  0.00  0.00    -0.349 OA
ENDROOT
BRANCH   1   7
HETATM    7  O   UNK N   1      23.410  19.342   4.262  0.00  0.00    -0.359 OA
BRANCH   7   8
HETATM    8  C   UNK N   1      24.663  19.079   3.682  0.00  0.00     0.171 C 
BRANCH   8   9
HETATM    9  C   UNK N   1      25.147  20.240   2.833  0.00  0.00     0.026 C 
BRANCH   9  10
HETATM   10  C   UNK N   1      26.565  20.580   3.261  0.00  0.00     0.002 C 
BRANCH  10  11
HETATM   11  C   UNK N   1      27.100  19.589   4.283  0.00  0.00    -0.000 C 
BRANCH  11  12
HETATM   12  C   UNK N   1      27.771  20.305   5.442  0.00  0.00    -0.005 C 
HETATM   13  C   UNK N   1      26.840  21.361   6.001  0.00  0.00     0.005 C 
ENDBRANCH  11  12
ENDBRANCH  10  11
ENDBRANCH   9  10
ENDBRANCH   8   9
ENDBRANCH   7   8
ENDBRANCH   1   7
BRANCH   2  14
HETATM   14  O   UNK N   1      21.944  21.486   2.710  0.00  0.00    -0.391 OA
HETATM   15  H   UNK N   1      22.631  21.459   2.026  0.00  0.00     0.210 HD
ENDBRANCH   2  14
BRANCH   5  16
HETATM   16  C   UNK N   1      19.981  16.314   3.392  0.00  0.00     0.198 C 
BRANCH  16  17
HETATM   17  O   UNK N   1      18.875  16.577   4.200  0.00  0.00    -0.398 OA
HETATM   18  H   UNK N   1      18.034  16.859   3.808  0.00  0.00     0.209 HD
ENDBRANCH  16  17
ENDBRANCH   5  16
BRANCH   4  19
HETATM   19  O   UNK N   1      18.507  18.342   1.962  0.00  0.00    -0.393 OA
HETATM   20  H   UNK N   1      18.147  17.484   1.686  0.00  0.00     0.210 HD
ENDBRANCH   4  19
TORSDOF 10
ENDMDL
MODEL 2
REMARK VINA RESULT:      -5.3      1.304      2.722
REMARK  10 active torsions:
REMARK  status: ('A' for Active; 'I' for Inactive)
REMARK    1  A    between atoms: C_1  and  O_7 
REMARK    2  A    between atoms: C_2  and  O_8 
REMARK    3  A    between atoms: C_4  and  O_9 
REMARK    4  A    between atoms: C_5  and  C_6 
REMARK    5  A    between atoms: C_6  and  O_11 
REMARK    6  A    between atoms: O_7  and  C_12 
REMARK    7  A    between atoms: C_12  and  C_13 
REMARK    8  A    between atoms: C_13  and  C_14 
REMARK    9  A    between atoms: C_14  and  C_15 
REMARK   10  A    between atoms: C_15  and  C_16 
ROOT
HETATM    1  C   UNK N   1      22.636  19.316   3.794  0.00  0.00     0.288 C 
HETATM    2  C   UNK N   1      22.074  17.855   3.787  0.00  0.00     0.175 C 
HETATM    3  C   UNK N   1      20.567  17.886   3.571  0.00  0.00     0.071 C 
HETATM    4  C   UNK N   1      20.234  18.677   2.321  0.00  0.00     0.151 C 
HETATM    5  C   UNK N   1      20.856  20.074   2.452  0.00  0.00     0.177 C 
HETATM    6  O   UNK N   1      22.267  19.968   2.587  0.00  0.00    -0.349 OA
ENDROOT
BRANCH   1   7
HETATM    7  O   UNK N   1      24.058  19.389   3.861  0.00  0.00    -0.359 OA
BRANCH   7   8
HETATM    8  C   UNK N   1      24.568  20.514   3.191  0.00  0.00     0.171 C 
BRANCH   8   9
HETATM    9  C   UNK N   1      26.077  20.453   3.050  0.00  0.00     0.026 C 
BRANCH   9  10
HETATM   10  C   UNK N   1      26.653  19.916   4.350  0.00  0.00     0.002 C 
BRANCH  10  11
HETATM   11  C   UNK N   1      26.988  21.035   5.323  0.00  0.00    -0.000 C 
BRANCH  11  12
HETATM   12  C   UNK N   1      27.247  20.490   6.717  0.00  0.00    -0.005 C 
HETATM   13  C   UNK N   1      27.845  19.101   6.623  0.00  0.00     0.005 C 
ENDBRANCH  11  12
ENDBRANCH  10  11
ENDBRANCH   9  10
ENDBRANCH   8   9
ENDBRANCH   7   8
ENDBRANCH   1   7
BRANCH   2  14
HETATM   14  O   UNK N   1      22.303  17.201   4.997  0.00  0.00    -0.391 OA
HETATM   15  H   UNK N   1      22.391  17.653   5.851  0.00  0.00     0.210 HD
ENDBRANCH   2  14
BRANCH   5  16
HETATM   16  C   UNK N   1      20.541  20.880   1.198  0.00  0.00     0.198 C 
BRANCH  16  17
HETATM   17  O   UNK N   1      20.651  20.080   0.061  0.00  0.00    -0.398 OA
HETATM   18  H   UNK N   1      20.321  20.392  -0.796  0.00  0.00     0.209 HD
ENDBRANCH  16  17
ENDBRANCH   5  16
BRANCH   4  19
HETATM   19  O   UNK N   1      18.846  18.768   2.196  0.00  0.00    -0.393 OA
HETATM   20  H   UNK N   1      18.143  19.021   2.815  0.00  0.00     0.210 HD
ENDBRANCH   4  19
TORSDOF 10
ENDMDL
MODEL 3
REMARK VINA RESULT:      -5.1      6.183      7.999
REMARK  10 active torsions:
REMARK  status: ('A' for Active; 'I' for Inactive)
REMARK    1  A    between atoms: C_1  and  O_7 
REMARK    2  A    between atoms: C_2  and  O_8 
REMARK    3  A    between atoms: C_4  and  O_9 
REMARK    4  A    between atoms: C_5  and  C_6 
REMARK    5  A    between atoms: C_6  and  O_11 
REMARK    6  A    between atoms: O_7  and  C_12 
REMARK    7  A    between atoms: C_12  and  C_13 
REMARK    8  A    between atoms: C_13  and  C_14 
REMARK    9  A    between atoms: C_14  and  C_15 
REMARK   10  A    between atoms: C_15  and  C_16 
ROOT
HETATM    1  C   UNK N   1      28.677  18.072   5.028  0.00  0.00     0.288 C 
HETATM    2  C   UNK N   1      28.331  19.566   4.716  0.00  0.00     0.175 C 
HETATM    3  C   UNK N   1      27.287  20.068   5.704  0.00  0.00     0.071 C 
HETATM    4  C   UNK N   1      27.755  19.830   7.126  0.00  0.00     0.151 C 
HETATM    5  C   UNK N   1      28.075  18.338   7.288  0.00  0.00     0.177 C 
HETATM    6  O   UNK N   1      29.099  17.958   6.379  0.00  0.00    -0.349 OA
ENDROOT
BRANCH   1   7
HETATM    7  O   UNK N   1      29.741  17.547   4.238  0.00  0.00    -0.359 OA
BRANCH   7   8
HETATM    8  C   UNK N   1      30.803  17.066   5.023  0.00  0.00     0.171 C 
BRANCH   8   9
HETATM    9  C   UNK N   1      32.090  16.955   4.227  0.00  0.00     0.026 C 
BRANCH   9  10
HETATM   10  C   UNK N   1      33.172  17.724   4.967  0.00  0.00     0.002 C 
BRANCH  10  11
HETATM   11  C   UNK N   1      33.640  16.984   6.210  0.00  0.00    -0.000 C 
BRANCH  11  12
HETATM   12  C   UNK N   1      33.764  17.928   7.394  0.00  0.00    -0.005 C 
HETATM   13  C   UNK N   1      32.482  17.912   8.201  0.00  0.00     0.005 C 
ENDBRANCH  11  12
ENDBRANCH  10  11
ENDBRANCH   9  10
ENDBRANCH   8   9
ENDBRANCH   7   8
ENDBRANCH   1   7
BRANCH   2  14
HETATM   14  O   UNK N   1      27.797  19.724   3.438  0.00  0.00    -0.391 OA
HETATM   15  H   UNK N   1      28.034  19.171   2.677  0.00  0.00     0.210 HD
ENDBRANCH   2  14
BRANCH   5  16
HETATM   16  C   UNK N   1      28.560  18.082   8.710  0.00  0.00     0.198 C 
BRANCH  16  17
HETATM   17  O   UNK N   1      27.478  17.873   9.566  0.00  0.00    -0.398 OA
HETATM   18  H   UNK N   1      27.574  17.999  10.522  0.00  0.00     0.209 HD
ENDBRANCH  16  17
ENDBRANCH   5  16
BRANCH   4  19
HETATM   19  O   UNK N   1      26.744  20.214   8.010  0.00  0.00    -0.393 OA
HETATM   20  H   UNK N   1      26.699  20.264   8.978  0.00  0.00     0.210 HD
ENDBRANCH   4  19
TORSDOF 10
ENDMDL
MODEL 4
REMARK VINA RESULT:      -5.1      5.162      9.060
REMARK  10 active torsions:
REMARK  status: ('A' for Active; 'I' for Inactive)
REMARK    1  A    between atoms: C_1  and  O_7 
REMARK    2  A    between atoms: C_2  and  O_8 
REMARK    3  A    between atoms: C_4  and  O_9 
REMARK    4  A    between atoms: C_5  and  C_6 
REMARK    5  A    between atoms: C_6  and  O_11 
REMARK    6  A    between atoms: O_7  and  C_12 
REMARK    7  A    between atoms: C_12  and  C_13 
REMARK    8  A    between atoms: C_13  and  C_14 
REMARK    9  A    between atoms: C_14  and  C_15 
REMARK   10  A    between atoms: C_15  and  C_16 
ROOT
HETATM    1  C   UNK N   1      28.374  17.675   7.238  0.00  0.00     0.288 C 
HETATM    2  C   UNK N   1      28.582  18.273   8.669  0.00  0.00     0.175 C 
HETATM    3  C   UNK N   1      29.638  17.467   9.413  0.00  0.00     0.071 C 
HETATM    4  C   UNK N   1      30.909  17.386   8.591  0.00  0.00     0.151 C 
HETATM    5  C   UNK N   1      30.560  16.803   7.215  0.00  0.00     0.177 C 
HETATM    6  O   UNK N   1      29.619  17.640   6.556  0.00  0.00    -0.349 OA
ENDROOT
BRANCH   1   7
HETATM    7  O   UNK N   1      27.496  18.439   6.413  0.00  0.00    -0.359 OA
BRANCH   7   8
HETATM    8  C   UNK N   1      27.761  19.817   6.483  0.00  0.00     0.171 C 
BRANCH   8   9
HETATM    9  C   UNK N   1      26.940  20.603   5.478  0.00  0.00     0.026 C 
BRANCH   9  10
HETATM   10  C   UNK N   1      27.227  20.046   4.093  0.00  0.00     0.002 C 
BRANCH  10  11
HETATM   11  C   UNK N   1      25.981  19.451   3.456  0.00  0.00    -0.000 C 
BRANCH  11  12
HETATM   12  C   UNK N   1      25.279  20.467   2.573  0.00  0.00    -0.005 C 
HETATM   13  C   UNK N   1      23.830  20.602   2.996  0.00  0.00     0.005 C 
ENDBRANCH  11  12
ENDBRANCH  10  11
ENDBRANCH   9  10
ENDBRANCH   8   9
ENDBRANCH   7   8
ENDBRANCH   1   7
BRANCH   2  14
HETATM   14  O   UNK N   1      27.415  18.225   9.431  0.00  0.00    -0.391 OA
HETATM   15  H   UNK N   1      26.626  17.717   9.186  0.00  0.00     0.210 HD
ENDBRANCH   2  14
BRANCH   5  16
HETATM   16  C   UNK N   1      31.825  16.725   6.369  0.00  0.00     0.198 C 
BRANCH  16  17
HETATM   17  O   UNK N   1      32.743  17.696   6.771  0.00  0.00    -0.398 OA
HETATM   18  H   UNK N   1      33.163  17.647   7.643  0.00  0.00     0.209 HD
ENDBRANCH  16  17
ENDBRANCH   5  16
BRANCH   4  19
HETATM   19  O   UNK N   1      31.828  16.567   9.251  0.00  0.00    -0.393 OA
HETATM   20  H   UNK N   1      32.245  16.617  10.126  0.00  0.00     0.210 HD
ENDBRANCH   4  19
TORSDOF 10
ENDMDL
MODEL 5
REMARK VINA RESULT:      -4.8     11.230     14.891
REMARK  10 active torsions:
REMARK  status: ('A' for Active; 'I' for Inactive)
REMARK    1  A    between atoms: C_1  and  O_7 
REMARK    2  A    between atoms: C_2  and  O_8 
REMARK    3  A    between atoms: C_4  and  O_9 
REMARK    4  A    between atoms: C_5  and  C_6 
REMARK    5  A    between atoms: C_6  and  O_11 
REMARK    6  A    between atoms: O_7  and  C_12 
REMARK    7  A    between atoms: C_12  and  C_13 
REMARK    8  A    between atoms: C_13  and  C_14 
REMARK    9  A    between atoms: C_14  and  C_15 
REMARK   10  A    between atoms: C_15  and  C_16 
ROOT
HETATM    1  C   UNK N   1      34.424  14.547   9.217  0.00  0.00     0.288 C 
HETATM    2  C   UNK N   1      34.131  15.143  10.634  0.00  0.00     0.175 C 
HETATM    3  C   UNK N   1      34.967  14.416  11.679  0.00  0.00     0.071 C 
HETATM    4  C   UNK N   1      36.432  14.447  11.291  0.00  0.00     0.151 C 
HETATM    5  C   UNK N   1      36.573  13.853   9.884  0.00  0.00     0.177 C 
HETATM    6  O   UNK N   1      35.818  14.620   8.954  0.00  0.00    -0.349 OA
ENDROOT
BRANCH   1   7
HETATM    7  O   UNK N   1      33.786  15.247   8.151  0.00  0.00    -0.359 OA
BRANCH   7   8
HETATM    8  C   UNK N   1      34.582  16.288   7.643  0.00  0.00     0.171 C 
BRANCH   8   9
HETATM    9  C   UNK N   1      33.797  17.577   7.492  0.00  0.00     0.026 C 
BRANCH   9  10
HETATM   10  C   UNK N   1      32.567  17.286   6.648  0.00  0.00     0.002 C 
BRANCH  10  11
HETATM   11  C   UNK N   1      32.938  16.832   5.246  0.00  0.00    -0.000 C 
BRANCH  11  12
HETATM   12  C   UNK N   1      32.255  17.689   4.194  0.00  0.00    -0.005 C 
HETATM   13  C   UNK N   1      32.255  16.965   2.862  0.00  0.00     0.005 C 
ENDBRANCH  11  12
ENDBRANCH  10  11
ENDBRANCH   9  10
ENDBRANCH   8   9
ENDBRANCH   7   8
ENDBRANCH   1   7
BRANCH   2  14
HETATM   14  O   UNK N   1      32.794  14.992  11.000  0.00  0.00    -0.391 OA
HETATM   15  H   UNK N   1      32.493  14.836  11.908  0.00  0.00     0.210 HD
ENDBRANCH   2  14
BRANCH   5  16
HETATM   16  C   UNK N   1      38.039  13.887   9.471  0.00  0.00     0.198 C 
BRANCH  16  17
HETATM   17  O   UNK N   1      38.678  14.998  10.025  0.00  0.00    -0.398 OA
HETATM   18  H   UNK N   1      38.169  15.675  10.496  0.00  0.00     0.209 HD
ENDBRANCH  16  17
ENDBRANCH   5  16
BRANCH   4  19
HETATM   19  O   UNK N   1      37.164  13.698  12.215  0.00  0.00    -0.393 OA
HETATM   20  H   UNK N   1      37.984  13.873  12.704  0.00  0.00     0.210 HD
ENDBRANCH   4  19
TORSDOF 10
ENDMDL
MODEL 6
REMARK VINA RESULT:      -4.8      6.464     10.269
REMARK  10 active torsions:
REMARK  status: ('A' for Active; 'I' for Inactive)
REMARK    1  A    between atoms: C_1  and  O_7 
REMARK    2  A    between atoms: C_2  and  O_8 
REMARK    3  A    between atoms: C_4  and  O_9 
REMARK    4  A    between atoms: C_5  and  C_6 
REMARK    5  A    between atoms: C_6  and  O_11 
REMARK    6  A    between atoms: O_7  and  C_12 
REMARK    7  A    between atoms: C_12  and  C_13 
REMARK    8  A    between atoms: C_13  and  C_14 
REMARK    9  A    between atoms: C_14  and  C_15 
REMARK   10  A    between atoms: C_15  and  C_16 
ROOT
HETATM    1  C   UNK N   1      30.562  16.684   7.172  0.00  0.00     0.288 C 
HETATM    2  C   UNK N   1      31.473  17.287   8.292  0.00  0.00     0.175 C 
HETATM    3  C   UNK N   1      32.937  17.102   7.919  0.00  0.00     0.071 C 
HETATM    4  C   UNK N   1      33.201  17.674   6.540  0.00  0.00     0.151 C 
HETATM    5  C   UNK N   1      32.235  17.014   5.548  0.00  0.00     0.177 C 
HETATM    6  O   UNK N   1      30.891  17.282   5.926  0.00  0.00    -0.349 OA
ENDROOT
BRANCH   1   7
HETATM    7  O   UNK N   1      29.170  16.923   7.367  0.00  0.00    -0.359 OA
BRANCH   7   8
HETATM    8  C   UNK N   1      28.875  18.290   7.497  0.00  0.00     0.171 C 
BRANCH   8   9
HETATM    9  C   UNK N   1      27.797  18.731   6.525  0.00  0.00     0.026 C 
BRANCH   9  10
HETATM   10  C   UNK N   1      27.477  20.191   6.802  0.00  0.00     0.002 C 
BRANCH  10  11
HETATM   11  C   UNK N   1      27.285  20.981   5.517  0.00  0.00    -0.000 C 
BRANCH  11  12
HETATM   12  C   UNK N   1      27.463  20.094   4.298  0.00  0.00    -0.005 C 
HETATM   13  C   UNK N   1      26.332  20.334   3.318  0.00  0.00     0.005 C 
ENDBRANCH  11  12
ENDBRANCH  10  11
ENDBRANCH   9  10
ENDBRANCH   8   9
ENDBRANCH   7   8
ENDBRANCH   1   7
BRANCH   2  14
HETATM   14  O   UNK N   1      31.279  16.656   9.521  0.00  0.00    -0.391 OA
HETATM   15  H   UNK N   1      31.638  16.980  10.361  0.00  0.00     0.210 HD
ENDBRANCH   2  14
BRANCH   5  16
HETATM   16  C   UNK N   1      32.477  17.586   4.157  0.00  0.00     0.198 C 
BRANCH  16  17
HETATM   17  O   UNK N   1      33.267  16.718   3.401  0.00  0.00    -0.398 OA
HETATM   18  H   UNK N   1      34.171  16.964   3.153  0.00  0.00     0.209 HD
ENDBRANCH  16  17
ENDBRANCH   5  16
BRANCH   4  19
HETATM   19  O   UNK N   1      34.526  17.411   6.183  0.00  0.00    -0.393 OA
HETATM   20  H   UNK N   1      35.204  16.824   6.553  0.00  0.00     0.210 HD
ENDBRANCH   4  19
TORSDOF 10
ENDMDL
MODEL 7
REMARK VINA RESULT:      -4.8     13.357     16.618
REMARK  10 active torsions:
REMARK  status: ('A' for Active; 'I' for Inactive)
REMARK    1  A    between atoms: C_1  and  O_7 
REMARK    2  A    between atoms: C_2  and  O_8 
REMARK    3  A    between atoms: C_4  and  O_9 
REMARK    4  A    between atoms: C_5  and  C_6 
REMARK    5  A    between atoms: C_6  and  O_11 
REMARK    6  A    between atoms: O_7  and  C_12 
REMARK    7  A    between atoms: C_12  and  C_13 
REMARK    8  A    between atoms: C_13  and  C_14 
REMARK    9  A    between atoms: C_14  and  C_15 
REMARK   10  A    between atoms: C_15  and  C_16 
ROOT
HETATM    1  C   UNK N   1      35.014  13.756  11.779  0.00  0.00     0.288 C 
HETATM    2  C   UNK N   1      36.305  14.556  11.404  0.00  0.00     0.175 C 
HETATM    3  C   UNK N   1      36.334  14.810   9.902  0.00  0.00     0.071 C 
HETATM    4  C   UNK N   1      35.047  15.479   9.461  0.00  0.00     0.151 C 
HETATM    5  C   UNK N   1      33.868  14.603   9.904  0.00  0.00     0.177 C 
HETATM    6  O   UNK N   1      33.871  14.463  11.319  0.00  0.00    -0.349 OA
ENDROOT
BRANCH   1   7
HETATM    7  O   UNK N   1      34.829  13.580  13.182  0.00  0.00    -0.359 OA
BRANCH   7   8
HETATM    8  C   UNK N   1      34.773  12.224  13.548  0.00  0.00     0.171 C 
BRANCH   8   9
HETATM    9  C   UNK N   1      36.085  11.744  14.139  0.00  0.00     0.026 C 
BRANCH   9  10
HETATM   10  C   UNK N   1      36.411  12.617  15.340  0.00  0.00     0.002 C 
BRANCH  10  11
HETATM   11  C   UNK N   1      35.671  12.161  16.587  0.00  0.00    -0.000 C 
BRANCH  11  12
HETATM   12  C   UNK N   1      34.776  13.263  17.125  0.00  0.00    -0.005 C 
HETATM   13  C   UNK N   1      35.209  13.638  18.528  0.00  0.00     0.005 C 
ENDBRANCH  11  12
ENDBRANCH  10  11
ENDBRANCH   9  10
ENDBRANCH   8   9
ENDBRANCH   7   8
ENDBRANCH   1   7
BRANCH   2  14
HETATM   14  O   UNK N   1      37.467  13.855  11.724  0.00  0.00    -0.391 OA
HETATM   15  H   UNK N   1      38.350  14.255  11.765  0.00  0.00     0.210 HD
ENDBRANCH   2  14
BRANCH   5  16
HETATM   16  C   UNK N   1      32.564  15.266   9.479  0.00  0.00     0.198 C 
BRANCH  16  17
HETATM   17  O   UNK N   1      31.622  15.196  10.505  0.00  0.00    -0.398 OA
HETATM   18  H   UNK N   1      30.673  15.225  10.306  0.00  0.00     0.209 HD
ENDBRANCH  16  17
ENDBRANCH   5  16
BRANCH   4  19
HETATM   19  O   UNK N   1      35.060  15.617   8.070  0.00  0.00    -0.393 OA
HETATM   20  H   UNK N   1      35.313  16.347   7.483  0.00  0.00     0.210 HD
ENDBRANCH   4  19
TORSDOF 10
ENDMDL
MODEL 8
REMARK VINA RESULT:      -4.7      5.512      8.594
REMARK  10 active torsions:
REMARK  status: ('A' for Active; 'I' for Inactive)
REMARK    1  A    between atoms: C_1  and  O_7 
REMARK    2  A    between atoms: C_2  and  O_8 
REMARK    3  A    between atoms: C_4  and  O_9 
REMARK    4  A    between atoms: C_5  and  C_6 
REMARK    5  A    between atoms: C_6  and  O_11 
REMARK    6  A    between atoms: O_7  and  C_12 
REMARK    7  A    between atoms: C_12  and  C_13 
REMARK    8  A    between atoms: C_13  and  C_14 
REMARK    9  A    between atoms: C_14  and  C_15 
REMARK   10  A    between atoms: C_15  and  C_16 
ROOT
HETATM    1  C   UNK N   1      29.071  17.246   5.934  0.00  0.00     0.288 C 
HETATM    2  C   UNK N   1      30.263  16.234   5.995  0.00  0.00     0.175 C 
HETATM    3  C   UNK N   1      31.316  16.740   6.971  0.00  0.00     0.071 C 
HETATM    4  C   UNK N   1      30.685  17.027   8.319  0.00  0.00     0.151 C 
HETATM    5  C   UNK N   1      29.527  18.012   8.113  0.00  0.00     0.177 C 
HETATM    6  O   UNK N   1      28.556  17.447   7.242  0.00  0.00    -0.349 OA
ENDROOT
BRANCH   1   7
HETATM    7  O   UNK N   1      27.972  16.798   5.143  0.00  0.00    -0.359 OA
BRANCH   7   8
HETATM    8  C   UNK N   1      27.777  17.592   4.001  0.00  0.00     0.171 C 
BRANCH   8   9
HETATM    9  C   UNK N   1      26.307  17.723   3.647  0.00  0.00     0.026 C 
BRANCH   9  10
HETATM   10  C   UNK N   1      25.954  19.201   3.627  0.00  0.00     0.002 C 
BRANCH  10  11
HETATM   11  C   UNK N   1      27.119  20.066   4.080  0.00  0.00    -0.000 C 
BRANCH  11  12
HETATM   12  C   UNK N   1      26.706  20.993   5.210  0.00  0.00    -0.005 C 
HETATM   13  C   UNK N   1      27.551  20.718   6.437  0.00  0.00     0.005 C 
ENDBRANCH  11  12
ENDBRANCH  10  11
ENDBRANCH   9  10
ENDBRANCH   8   9
ENDBRANCH   7   8
ENDBRANCH   1   7
BRANCH   2  14
HETATM   14  O   UNK N   1      30.888  16.086   4.757  0.00  0.00    -0.391 OA
HETATM   15  H   UNK N   1      31.212  16.825   4.220  0.00  0.00     0.210 HD
ENDBRANCH   2  14
BRANCH   5  16
HETATM   16  C   UNK N   1      28.872  18.303   9.457  0.00  0.00     0.198 C 
BRANCH  16  17
HETATM   17  O   UNK N   1      27.486  18.167   9.366  0.00  0.00    -0.398 OA
HETATM   18  H   UNK N   1      26.942  18.886   9.009  0.00  0.00     0.209 HD
ENDBRANCH  16  17
ENDBRANCH   5  16
BRANCH   4  19
HETATM   19  O   UNK N   1      31.650  17.575   9.168  0.00  0.00    -0.393 OA
HETATM   20  H   UNK N   1      32.128  17.224   9.936  0.00  0.00     0.210 HD
ENDBRANCH   4  19
TORSDOF 10
ENDMDL
MODEL 9
REMARK VINA RESULT:      -4.7      1.387      2.579
REMARK  10 active torsions:
REMARK  status: ('A' for Active; 'I' for Inactive)
REMARK    1  A    between atoms: C_1  and  O_7 
REMARK    2  A    between atoms: C_2  and  O_8 
REMARK    3  A    between atoms: C_4  and  O_9 
REMARK    4  A    between atoms: C_5  and  C_6 
REMARK    5  A    between atoms: C_6  and  O_11 
REMARK    6  A    between atoms: O_7  and  C_12 
REMARK    7  A    between atoms: C_12  and  C_13 
REMARK    8  A    between atoms: C_13  and  C_14 
REMARK    9  A    between atoms: C_14  and  C_15 
REMARK   10  A    between atoms: C_15  and  C_16 
ROOT
HETATM    1  C   UNK N   1      22.609  18.468   4.698  0.00  0.00     0.288 C 
HETATM    2  C   UNK N   1      22.629  16.923   4.941  0.00  0.00     0.175 C 
HETATM    3  C   UNK N   1      21.203  16.391   4.986  0.00  0.00     0.071 C 
HETATM    4  C   UNK N   1      20.452  16.805   3.736  0.00  0.00     0.151 C 
HETATM    5  C   UNK N   1      20.526  18.333   3.610  0.00  0.00     0.177 C 
HETATM    6  O   UNK N   1      21.881  18.748   3.510  0.00  0.00    -0.349 OA
ENDROOT
BRANCH   1   7
HETATM    7  O   UNK N   1      23.901  19.042   4.511  0.00  0.00    -0.359 OA
BRANCH   7   8
HETATM    8  C   UNK N   1      23.975  19.825   3.346  0.00  0.00     0.171 C 
BRANCH   8   9
HETATM    9  C   UNK N   1      25.409  20.155   2.978  0.00  0.00     0.026 C 
BRANCH   9  10
HETATM   10  C   UNK N   1      26.328  19.291   3.826  0.00  0.00     0.002 C 
BRANCH  10  11
HETATM   11  C   UNK N   1      27.533  20.071   4.328  0.00  0.00    -0.000 C 
BRANCH  11  12
HETATM   12  C   UNK N   1      27.144  21.016   5.451  0.00  0.00    -0.005 C 
HETATM   13  C   UNK N   1      27.279  20.311   6.786  0.00  0.00     0.005 C 
ENDBRANCH  11  12
ENDBRANCH  10  11
ENDBRANCH   9  10
ENDBRANCH   8   9
ENDBRANCH   7   8
ENDBRANCH   1   7
BRANCH   2  14
HETATM   14  O   UNK N   1      23.229  16.592   6.156  0.00  0.00    -0.391 OA
HETATM   15  H   UNK N   1      23.341  17.213   6.894  0.00  0.00     0.210 HD
ENDBRANCH   2  14
BRANCH   5  16
HETATM   16  C   UNK N   1      19.785  18.767   2.351  0.00  0.00     0.198 C 
BRANCH  16  17
HETATM   17  O   UNK N   1      18.407  18.642   2.526  0.00  0.00    -0.398 OA
HETATM   18  H   UNK N   1      17.871  19.408   2.784  0.00  0.00     0.209 HD
ENDBRANCH  16  17
ENDBRANCH   5  16
BRANCH   4  19
HETATM   19  O   UNK N   1      19.124  16.385   3.842  0.00  0.00    -0.393 OA
HETATM   20  H   UNK N   1      18.310  16.652   3.385  0.00  0.00     0.210 HD
ENDBRANCH   4  19
TORSDOF 10
ENDMDL
