MODEL 1
REMARK VINA RESULT:      -5.4      0.000      0.000
REMARK  2 active torsions:
REMARK  status: ('A' for Active; 'I' for Inactive)
REMARK    1  A    between atoms: C_1  and  N_2 
REMARK       I    between atoms: C_8  and  N_9 
REMARK    2  A    between atoms: C_12  and  O_13 
ROOT
HETATM    1  C   UNK N   1      22.790  17.541   5.145  0.00  0.00     0.026 A 
HETATM    2  C   UNK N   1      23.742  18.490   4.754  0.00  0.00     0.031 A 
HETATM    3  C   UNK N   1      23.429  19.435   3.769  0.00  0.00     0.033 A 
HETATM    4  C   UNK N   1      22.163  19.430   3.176  0.00  0.00     0.063 A 
HETATM    5  N   UNK N   1      21.847  20.342   2.220  0.00  0.00    -0.191 N 
ATOM      6  HN  UNK N   1      22.541  21.034   1.935  1.00  0.00     0.184 HD
HETATM    7  C   UNK N   1      20.617  20.342   1.639  0.00  0.00     0.678 A 
HETATM    8  N   UNK N   1      20.308  21.295   0.650  0.00  0.00    -0.234 N 
HETATM    9  N   UNK N   1      19.683  19.425   2.011  0.00  0.00    -0.170 N 
ATOM     10  HN  UNK N   1      18.764  19.436   1.567  1.00  0.00     0.186 HD
HETATM   11  C   UNK N   1      19.952  18.494   2.963  0.00  0.00     0.168 A 
HETATM   12  C   UNK N   1      21.208  18.474   3.572  0.00  0.00     0.045 A 
HETATM   13  C   UNK N   1      21.526  17.533   4.555  0.00  0.00     0.047 A 
HETATM   14  H   UNK N   1      19.417  21.295   0.229  0.00  0.00     0.174 HD
HETATM   15  H   UNK N   1      20.981  21.959   0.379  0.00  0.00     0.174 HD
ENDROOT
BRANCH   1  16
HETATM   16  N   UNK N   1      23.103  16.590   6.135  0.00  0.00    -0.399 N 
HETATM   17  H   UNK N   1      22.598  16.574   6.980  0.00  0.00     0.156 HD
HETATM   18  H   UNK N   1      23.828  15.941   5.983  0.00  0.00     0.156 HD
ENDBRANCH   1  16
BRANCH  11  19
HETATM   19  O   UNK N   1      19.009  17.600   3.310  0.00  0.00    -0.345 OA
HETATM   20  H   UNK N   1      18.656  17.604   4.177  0.00  0.00     0.219 HD
ENDBRANCH  11  19
TORSDOF 2
ENDMDL
MODEL 2
REMARK VINA RESULT:      -5.3      9.748     12.168
REMARK  2 active torsions:
REMARK  status: ('A' for Active; 'I' for Inactive)
REMARK    1  A    between atoms: C_1  and  N_2 
REMARK       I    between atoms: C_8  and  N_9 
REMARK    2  A    between atoms: C_12  and  O_13 
ROOT
HETATM    1  C   UNK N   1      31.083  17.270   4.516  0.00  0.00     0.026 A 
HETATM    2  C   UNK N   1      32.400  17.480   4.089  0.00  0.00     0.031 A 
HETATM    3  C   UNK N   1      33.438  17.563   5.024  0.00  0.00     0.033 A 
HETATM    4  C   UNK N   1      33.158  17.436   6.388  0.00  0.00     0.063 A 
HETATM    5  N   UNK N   1      34.156  17.514   7.306  0.00  0.00    -0.191 N 
ATOM      6  HN  UNK N   1      35.116  17.667   6.995  1.00  0.00     0.184 HD
HETATM    7  C   UNK N   1      33.890  17.391   8.635  0.00  0.00     0.678 A 
HETATM    8  N   UNK N   1      34.937  17.475   9.572  0.00  0.00    -0.234 N 
HETATM    9  N   UNK N   1      32.614  17.188   9.063  0.00  0.00    -0.170 N 
ATOM     10  HN  UNK N   1      32.429  17.097  10.062  1.00  0.00     0.186 HD
HETATM   11  C   UNK N   1      31.583  17.102   8.183  0.00  0.00     0.168 A 
HETATM   12  C   UNK N   1      31.833  17.225   6.815  0.00  0.00     0.045 A 
HETATM   13  C   UNK N   1      30.800  17.143   5.876  0.00  0.00     0.047 A 
HETATM   14  H   UNK N   1      34.745  17.387  10.533  0.00  0.00     0.174 HD
HETATM   15  H   UNK N   1      35.861  17.623   9.265  0.00  0.00     0.174 HD
ENDROOT
BRANCH   1  16
HETATM   16  N   UNK N   1      30.038  17.187   3.576  0.00  0.00    -0.399 N 
HETATM   17  H   UNK N   1      30.041  17.772   2.783  0.00  0.00     0.156 HD
HETATM   18  H   UNK N   1      29.305  16.544   3.710  0.00  0.00     0.156 HD
ENDBRANCH   1  16
BRANCH  11  19
HETATM   19  O   UNK N   1      30.333  16.900   8.635  0.00  0.00    -0.345 OA
HETATM   20  H   UNK N   1      30.144  16.992   9.548  0.00  0.00     0.219 HD
ENDBRANCH  11  19
TORSDOF 2
ENDMDL
MODEL 3
REMARK VINA RESULT:      -5.3      6.261      8.256
REMARK  2 active torsions:
REMARK  status: ('A' for Active; 'I' for Inactive)
REMARK    1  A    between atoms: C_1  and  N_2 
REMARK       I    between atoms: C_8  and  N_9 
REMARK    2  A    between atoms: C_12  and  O_13 
ROOT
HETATM    1  C   UNK N   1      22.754  12.077  11.553  0.00  0.00     0.026 A 
HETATM    2  C   UNK N   1      23.978  12.081  10.874  0.00  0.00     0.031 A 
HETATM    3  C   UNK N   1      24.097  12.734   9.641  0.00  0.00     0.033 A 
HETATM    4  C   UNK N   1      22.989  13.383   9.088  0.00  0.00     0.063 A 
HETATM    5  N   UNK N   1      23.091  14.020   7.892  0.00  0.00    -0.191 N 
ATOM      6  HN  UNK N   1      23.983  14.023   7.397  1.00  0.00     0.184 HD
HETATM    7  C   UNK N   1      22.016  14.653   7.348  0.00  0.00     0.678 A 
HETATM    8  N   UNK N   1      22.140  15.308   6.109  0.00  0.00    -0.234 N 
HETATM    9  N   UNK N   1      20.820  14.656   7.999  0.00  0.00    -0.170 N 
ATOM     10  HN  UNK N   1      20.023  15.135   7.579  1.00  0.00     0.186 HD
HETATM   11  C   UNK N   1      20.670  14.033   9.196  0.00  0.00     0.168 A 
HETATM   12  C   UNK N   1      21.759  13.377   9.773  0.00  0.00     0.045 A 
HETATM   13  C   UNK N   1      21.646  12.723  11.004  0.00  0.00     0.047 A 
HETATM   14  H   UNK N   1      21.363  15.767   5.715  0.00  0.00     0.174 HD
HETATM   15  H   UNK N   1      23.004  15.308   5.636  0.00  0.00     0.174 HD
ENDROOT
BRANCH   1  16
HETATM   16  N   UNK N   1      22.634  11.420  12.793  0.00  0.00    -0.399 N 
HETATM   17  H   UNK N   1      21.812  11.521  13.326  0.00  0.00     0.156 HD
HETATM   18  H   UNK N   1      23.371  10.861  13.127  0.00  0.00     0.156 HD
ENDBRANCH   1  16
BRANCH  11  19
HETATM   19  O   UNK N   1      19.476  14.052   9.815  0.00  0.00    -0.345 OA
HETATM   20  H   UNK N   1      19.381  14.494  10.636  0.00  0.00     0.219 HD
ENDBRANCH  11  19
TORSDOF 2
ENDMDL
MODEL 4
REMARK VINA RESULT:      -5.3     18.404     19.462
REMARK  2 active torsions:
REMARK  status: ('A' for Active; 'I' for Inactive)
REMARK    1  A    between atoms: C_1  and  N_2 
REMARK       I    between atoms: C_8  and  N_9 
REMARK    2  A    between atoms: C_12  and  O_13 
ROOT
HETATM    1  C   UNK N   1      35.568  14.075  17.857  0.00  0.00     0.026 A 
HETATM    2  C   UNK N   1      36.592  14.992  17.589  0.00  0.00     0.031 A 
HETATM    3  C   UNK N   1      37.067  15.153  16.282  0.00  0.00     0.033 A 
HETATM    4  C   UNK N   1      36.517  14.396  15.243  0.00  0.00     0.063 A 
HETATM    5  N   UNK N   1      36.969  14.542  13.970  0.00  0.00    -0.191 N 
ATOM      6  HN  UNK N   1      37.715  15.210  13.774  1.00  0.00     0.184 HD
HETATM    7  C   UNK N   1      36.437  13.808  12.955  0.00  0.00     0.678 A 
HETATM    8  N   UNK N   1      36.919  13.974  11.643  0.00  0.00    -0.234 N 
HETATM    9  N   UNK N   1      35.442  12.914  13.204  0.00  0.00    -0.170 N 
ATOM     10  HN  UNK N   1      35.053  12.371  12.433  1.00  0.00     0.186 HD
HETATM   11  C   UNK N   1      34.957  12.733  14.459  0.00  0.00     0.168 A 
HETATM   12  C   UNK N   1      35.487  13.475  15.516  0.00  0.00     0.045 A 
HETATM   13  C   UNK N   1      35.017  13.318  16.823  0.00  0.00     0.047 A 
HETATM   14  H   UNK N   1      36.535  13.443  10.908  0.00  0.00     0.174 HD
HETATM   15  H   UNK N   1      37.639  14.620  11.460  0.00  0.00     0.174 HD
ENDROOT
BRANCH   1  16
HETATM   16  N   UNK N   1      35.090  13.913  19.172  0.00  0.00    -0.399 N 
HETATM   17  H   UNK N   1      35.677  14.111  19.937  0.00  0.00     0.156 HD
HETATM   18  H   UNK N   1      34.169  13.601  19.326  0.00  0.00     0.156 HD
ENDBRANCH   1  16
BRANCH  11  19
HETATM   19  O   UNK N   1      33.973  11.842  14.674  0.00  0.00    -0.345 OA
HETATM   20  H   UNK N   1      33.318  11.701  14.020  0.00  0.00     0.219 HD
ENDBRANCH  11  19
TORSDOF 2
ENDMDL
MODEL 5
REMARK VINA RESULT:      -5.3     10.702     12.140
REMARK  2 active torsions:
REMARK  status: ('A' for Active; 'I' for Inactive)
REMARK    1  A    between atoms: C_1  and  N_2 
REMARK       I    between atoms: C_8  and  N_9 
REMARK    2  A    between atoms: C_12  and  O_13 
ROOT
HETATM    1  C   UNK N   1      26.484  28.016  -3.564  0.00  0.00     0.026 A 
HETATM    2  C   UNK N   1      26.066  28.452  -4.827  0.00  0.00     0.031 A 
HETATM    3  C   UNK N   1      25.742  27.520  -5.820  0.00  0.00     0.033 A 
HETATM    4  C   UNK N   1      25.837  26.152  -5.550  0.00  0.00     0.063 A 
HETATM    5  N   UNK N   1      25.526  25.238  -6.506  0.00  0.00    -0.191 N 
ATOM      6  HN  UNK N   1      25.221  25.555  -7.426  1.00  0.00     0.184 HD
HETATM    7  C   UNK N   1      25.617  23.905  -6.248  0.00  0.00     0.678 A 
HETATM    8  N   UNK N   1      25.290  22.972  -7.251  0.00  0.00    -0.234 N 
HETATM    9  N   UNK N   1      26.023  23.469  -5.025  0.00  0.00    -0.170 N 
ATOM     10  HN  UNK N   1      26.086  22.466  -4.845  1.00  0.00     0.186 HD
HETATM   11  C   UNK N   1      26.345  24.345  -4.037  0.00  0.00     0.168 A 
HETATM   12  C   UNK N   1      26.259  25.716  -4.279  0.00  0.00     0.045 A 
HETATM   13  C   UNK N   1      26.581  26.651  -3.290  0.00  0.00     0.047 A 
HETATM   14  H   UNK N   1      25.356  22.008  -7.065  0.00  0.00     0.174 HD
HETATM   15  H   UNK N   1      24.996  23.285  -8.137  0.00  0.00     0.174 HD
ENDROOT
BRANCH   1  16
HETATM   16  N   UNK N   1      26.810  28.952  -2.564  0.00  0.00    -0.399 N 
HETATM   17  H   UNK N   1      27.217  28.649  -1.719  0.00  0.00     0.156 HD
HETATM   18  H   UNK N   1      26.632  29.909  -2.709  0.00  0.00     0.156 HD
ENDBRANCH   1  16
BRANCH  11  19
HETATM   19  O   UNK N   1      26.743  23.884  -2.838  0.00  0.00    -0.345 OA
HETATM   20  H   UNK N   1      26.260  23.202  -2.414  0.00  0.00     0.219 HD
ENDBRANCH  11  19
TORSDOF 2
ENDMDL
MODEL 6
REMARK VINA RESULT:      -5.2     17.670     19.147
REMARK  2 active torsions:
REMARK  status: ('A' for Active; 'I' for Inactive)
REMARK    1  A    between atoms: C_1  and  N_2 
REMARK       I    between atoms: C_8  and  N_9 
REMARK    2  A    between atoms: C_12  and  O_13 
ROOT
HETATM    1  C   UNK N   1      35.123  11.092  16.398  0.00  0.00     0.026 A 
HETATM    2  C   UNK N   1      34.215  10.650  15.427  0.00  0.00     0.031 A 
HETATM    3  C   UNK N   1      34.126  11.309  14.196  0.00  0.00     0.033 A 
HETATM    4  C   UNK N   1      34.946  12.411  13.935  0.00  0.00     0.063 A 
HETATM    5  N   UNK N   1      34.870  13.060  12.744  0.00  0.00    -0.191 N 
ATOM      6  HN  UNK N   1      34.209  12.738  12.036  1.00  0.00     0.184 HD
HETATM    7  C   UNK N   1      35.665  14.133  12.485  0.00  0.00     0.678 A 
HETATM    8  N   UNK N   1      35.572  14.793  11.244  0.00  0.00    -0.234 N 
HETATM    9  N   UNK N   1      36.551  14.572  13.420  0.00  0.00    -0.170 N 
ATOM     10  HN  UNK N   1      37.141  15.378  13.212  1.00  0.00     0.186 HD
HETATM   11  C   UNK N   1      36.664  13.956  14.625  0.00  0.00     0.168 A 
HETATM   12  C   UNK N   1      35.858  12.854  14.913  0.00  0.00     0.045 A 
HETATM   13  C   UNK N   1      35.942  12.191  16.141  0.00  0.00     0.047 A 
HETATM   14  H   UNK N   1      36.147  15.569  11.056  0.00  0.00     0.174 HD
HETATM   15  H   UNK N   1      34.932  14.478  10.566  0.00  0.00     0.174 HD
ENDROOT
BRANCH   1  16
HETATM   16  N   UNK N   1      35.212  10.429  17.637  0.00  0.00    -0.399 N 
HETATM   17  H   UNK N   1      34.759   9.564  17.767  0.00  0.00     0.156 HD
HETATM   18  H   UNK N   1      35.728  10.829  18.374  0.00  0.00     0.156 HD
ENDBRANCH   1  16
BRANCH  11  19
HETATM   19  O   UNK N   1      37.548  14.412  15.530  0.00  0.00    -0.345 OA
HETATM   20  H   UNK N   1      37.360  15.189  16.018  0.00  0.00     0.219 HD
ENDBRANCH  11  19
TORSDOF 2
ENDMDL
MODEL 7
REMARK VINA RESULT:      -5.2     12.117     13.989
REMARK  2 active torsions:
REMARK  status: ('A' for Active; 'I' for Inactive)
REMARK    1  A    between atoms: C_1  and  N_2 
REMARK       I    between atoms: C_8  and  N_9 
REMARK    2  A    between atoms: C_12  and  O_13 
ROOT
HETATM    1  C   UNK N   1      33.023  16.978   5.275  0.00  0.00     0.026 A 
HETATM    2  C   UNK N   1      32.559  15.684   5.538  0.00  0.00     0.031 A 
HETATM    3  C   UNK N   1      32.750  15.111   6.801  0.00  0.00     0.033 A 
HETATM    4  C   UNK N   1      33.407  15.834   7.802  0.00  0.00     0.063 A 
HETATM    5  N   UNK N   1      33.599  15.289   9.032  0.00  0.00    -0.191 N 
ATOM      6  HN  UNK N   1      33.260  14.346   9.223  1.00  0.00     0.184 HD
HETATM    7  C   UNK N   1      34.237  15.989  10.009  0.00  0.00     0.678 A 
HETATM    8  N   UNK N   1      34.427  15.408  11.277  0.00  0.00    -0.234 N 
HETATM    9  N   UNK N   1      34.693  17.247   9.765  0.00  0.00    -0.170 N 
ATOM     10  HN  UNK N   1      35.170  17.760  10.507  1.00  0.00     0.186 HD
HETATM   11  C   UNK N   1      34.525  17.833   8.552  0.00  0.00     0.168 A 
HETATM   12  C   UNK N   1      33.873  17.135   7.534  0.00  0.00     0.045 A 
HETATM   13  C   UNK N   1      33.679  17.702   6.271  0.00  0.00     0.047 A 
HETATM   14  H   UNK N   1      34.889  15.913  11.985  0.00  0.00     0.174 HD
HETATM   15  H   UNK N   1      34.098  14.498  11.456  0.00  0.00     0.174 HD
ENDROOT
BRANCH   1  16
HETATM   16  N   UNK N   1      32.831  17.555   4.005  0.00  0.00    -0.399 N 
HETATM   17  H   UNK N   1      32.386  17.040   3.293  0.00  0.00     0.156 HD
HETATM   18  H   UNK N   1      33.142  18.472   3.828  0.00  0.00     0.156 HD
ENDBRANCH   1  16
BRANCH  11  19
HETATM   19  O   UNK N   1      34.987  19.079   8.341  0.00  0.00    -0.345 OA
HETATM   20  H   UNK N   1      35.122  19.658   9.064  0.00  0.00     0.219 HD
ENDBRANCH  11  19
TORSDOF 2
ENDMDL
MODEL 8
REMARK VINA RESULT:      -5.2      2.120      2.809
REMARK  2 active torsions:
REMARK  status: ('A' for Active; 'I' for Inactive)
REMARK    1  A    between atoms: C_1  and  N_2 
REMARK       I    between atoms: C_8  and  N_9 
REMARK    2  A    between atoms: C_12  and  O_13 
ROOT
HETATM    1  C   UNK N   1      24.571  18.677   4.254  0.00  0.00     0.026 A 
HETATM    2  C   UNK N   1      24.050  17.385   4.393  0.00  0.00     0.031 A 
HETATM    3  C   UNK N   1      22.728  17.115   4.020  0.00  0.00     0.033 A 
HETATM    4  C   UNK N   1      21.927  18.140   3.508  0.00  0.00     0.063 A 
HETATM    5  N   UNK N   1      20.642  17.892   3.143  0.00  0.00    -0.191 N 
ATOM      6  HN  UNK N   1      20.262  16.950   3.243  1.00  0.00     0.184 HD
HETATM    7  C   UNK N   1      19.857  18.885   2.644  0.00  0.00     0.678 A 
HETATM    8  N   UNK N   1      18.528  18.609   2.270  0.00  0.00    -0.234 N 
HETATM    9  N   UNK N   1      20.352  20.145   2.504  0.00  0.00    -0.170 N 
ATOM     10  HN  UNK N   1      19.752  20.881   2.129  1.00  0.00     0.186 HD
HETATM   11  C   UNK N   1      21.630  20.442   2.856  0.00  0.00     0.168 A 
HETATM   12  C   UNK N   1      22.453  19.439   3.370  0.00  0.00     0.045 A 
HETATM   13  C   UNK N   1      23.774  19.702   3.744  0.00  0.00     0.047 A 
HETATM   14  H   UNK N   1      17.960  19.327   1.909  0.00  0.00     0.174 HD
HETATM   15  H   UNK N   1      18.168  17.699   2.370  0.00  0.00     0.174 HD
ENDROOT
BRANCH   1  16
HETATM   16  N   UNK N   1      25.901  18.948   4.629  0.00  0.00    -0.399 N 
HETATM   17  H   UNK N   1      26.539  18.208   4.751  0.00  0.00     0.156 HD
HETATM   18  H   UNK N   1      26.193  19.878   4.769  0.00  0.00     0.156 HD
ENDBRANCH   1  16
BRANCH  11  19
HETATM   19  O   UNK N   1      22.091  21.696   2.707  0.00  0.00    -0.345 OA
HETATM   20  H   UNK N   1      21.680  22.278   2.098  0.00  0.00     0.219 HD
ENDBRANCH  11  19
TORSDOF 2
ENDMDL
MODEL 9
REMARK VINA RESULT:      -5.2      9.910     12.487
REMARK  2 active torsions:
REMARK  status: ('A' for Active; 'I' for Inactive)
REMARK    1  A    between atoms: C_1  and  N_2 
REMARK       I    between atoms: C_8  and  N_9 
REMARK    2  A    between atoms: C_12  and  O_13 
ROOT
HETATM    1  C   UNK N   1      30.417  17.351   5.445  0.00  0.00     0.026 A 
HETATM    2  C   UNK N   1      29.742  17.521   6.660  0.00  0.00     0.031 A 
HETATM    3  C   UNK N   1      30.449  17.484   7.867  0.00  0.00     0.033 A 
HETATM    4  C   UNK N   1      31.832  17.278   7.859  0.00  0.00     0.063 A 
HETATM    5  N   UNK N   1      32.530  17.240   9.024  0.00  0.00    -0.191 N 
ATOM      6  HN  UNK N   1      32.038  17.364   9.910  1.00  0.00     0.184 HD
HETATM    7  C   UNK N   1      33.875  17.039   9.022  0.00  0.00     0.678 A 
HETATM    8  N   UNK N   1      34.582  17.004  10.239  0.00  0.00    -0.234 N 
HETATM    9  N   UNK N   1      34.542  16.873   7.848  0.00  0.00    -0.170 N 
ATOM     10  HN  UNK N   1      35.551  16.724   7.861  1.00  0.00     0.186 HD
HETATM   11  C   UNK N   1      33.888  16.903   6.658  0.00  0.00     0.168 A 
HETATM   12  C   UNK N   1      32.508  17.107   6.636  0.00  0.00     0.045 A 
HETATM   13  C   UNK N   1      31.796  17.145   5.432  0.00  0.00     0.047 A 
HETATM   14  H   UNK N   1      35.555  16.859  10.239  0.00  0.00     0.174 HD
HETATM   15  H   UNK N   1      34.102  17.124  11.091  0.00  0.00     0.174 HD
ENDROOT
BRANCH   1  16
HETATM   16  N   UNK N   1      29.706  17.388   4.229  0.00  0.00    -0.399 N 
HETATM   17  H   UNK N   1      29.002  16.722   4.051  0.00  0.00     0.156 HD
HETATM   18  H   UNK N   1      29.913  18.078   3.559  0.00  0.00     0.156 HD
ENDBRANCH   1  16
BRANCH  11  19
HETATM   19  O   UNK N   1      34.574  16.735   5.513  0.00  0.00    -0.345 OA
HETATM   20  H   UNK N   1      34.635  15.886   5.123  0.00  0.00     0.219 HD
ENDBRANCH  11  19
TORSDOF 2
ENDMDL
