MODEL 1
REMARK VINA RESULT:      -6.3      0.000      0.000
REMARK  1 active torsions:
REMARK  status: ('A' for Active; 'I' for Inactive)
REMARK    1  A    between atoms: C_16  and  N_17 
ROOT
HETATM    1  C   UNK N   1      29.762  17.002   8.337  0.00  0.00     0.058 A 
HETATM    2  C   UNK N   1      29.272  17.624   7.192  0.00  0.00    -0.025 A 
HETATM    3  C   UNK N   1      29.854  17.249   5.860  0.00  0.00     0.045 A 
HETATM    4  C   UNK N   1      29.283  17.961   4.625  0.00  0.00     0.044 A 
HETATM    5  C   UNK N   1      28.193  18.969   4.860  0.00  0.00    -0.045 A 
HETATM    6  C   UNK N   1      27.652  19.635   3.755  0.00  0.00     0.008 A 
HETATM    7  C   UNK N   1      26.638  20.580   3.924  0.00  0.00     0.001 A 
HETATM    8  C   UNK N   1      26.156  20.867   5.202  0.00  0.00     0.001 A 
HETATM    9  C   UNK N   1      26.688  20.209   6.309  0.00  0.00     0.014 A 
HETATM   10  C   UNK N   1      27.707  19.258   6.148  0.00  0.00    -0.001 A 
HETATM   11  C   UNK N   1      28.254  18.577   7.325  0.00  0.00     0.065 A 
HETATM   12  N   UNK N   1      27.772  18.870   8.564  0.00  0.00    -0.298 N 
ATOM     13  HN  UNK N   1      27.030  19.564   8.658  1.00  0.00     0.187 HD
HETATM   14  N   UNK N   1      28.245  18.271   9.658  0.00  0.00    -0.285 N 
ATOM     15  HN  UNK N   1      27.860  18.515  10.569  1.00  0.00     0.188 HD
HETATM   16  C   UNK N   1      29.230  17.341   9.578  0.00  0.00     0.113 A 
ENDROOT
BRANCH  16  17
HETATM   17  N   UNK N   1      29.712  16.723  10.747  0.00  0.00    -0.384 N 
HETATM   18  H   UNK N   1      30.506  16.142  10.704  0.00  0.00     0.157 HD
HETATM   19  H   UNK N   1      29.256  16.872  11.606  0.00  0.00     0.157 HD
ENDBRANCH  16  17
TORSDOF 1
ENDMDL
MODEL 2
REMARK VINA RESULT:      -6.2     11.881     14.015
REMARK  1 active torsions:
REMARK  status: ('A' for Active; 'I' for Inactive)
REMARK    1  A    between atoms: C_16  and  N_17 
ROOT
HETATM    1  C   UNK N   1      37.259  11.981  12.726  0.00  0.00     0.058 A 
HETATM    2  C   UNK N   1      36.890  11.696  14.038  0.00  0.00    -0.025 A 
HETATM    3  C   UNK N   1      37.041  10.291  14.544  0.00  0.00     0.045 A 
HETATM    4  C   UNK N   1      36.622  10.025  15.996  0.00  0.00     0.044 A 
HETATM    5  C   UNK N   1      36.099  11.194  16.782  0.00  0.00    -0.045 A 
HETATM    6  C   UNK N   1      35.709  10.982  18.109  0.00  0.00     0.008 A 
HETATM    7  C   UNK N   1      35.216  12.038  18.879  0.00  0.00     0.001 A 
HETATM    8  C   UNK N   1      35.110  13.316  18.327  0.00  0.00     0.001 A 
HETATM    9  C   UNK N   1      35.496  13.536  17.006  0.00  0.00     0.014 A 
HETATM   10  C   UNK N   1      35.991  12.481  16.226  0.00  0.00    -0.001 A 
HETATM   11  C   UNK N   1      36.392  12.732  14.839  0.00  0.00     0.065 A 
HETATM   12  N   UNK N   1      36.281  13.985  14.317  0.00  0.00    -0.298 N 
ATOM     13  HN  UNK N   1      35.918  14.737  14.902  1.00  0.00     0.187 HD
HETATM   14  N   UNK N   1      36.636  14.252  13.059  0.00  0.00    -0.285 N 
ATOM     15  HN  UNK N   1      36.539  15.201  12.701  1.00  0.00     0.188 HD
HETATM   16  C   UNK N   1      37.123  13.281  12.247  0.00  0.00     0.113 A 
ENDROOT
BRANCH  16  17
HETATM   17  N   UNK N   1      37.491  13.588  10.922  0.00  0.00    -0.384 N 
HETATM   18  H   UNK N   1      36.865  13.406  10.184  0.00  0.00     0.157 HD
HETATM   19  H   UNK N   1      38.372  13.984  10.736  0.00  0.00     0.157 HD
ENDBRANCH  16  17
TORSDOF 1
ENDMDL
MODEL 3
REMARK VINA RESULT:      -6.1     11.595     14.142
REMARK  1 active torsions:
REMARK  status: ('A' for Active; 'I' for Inactive)
REMARK    1  A    between atoms: C_16  and  N_17 
ROOT
HETATM    1  C   UNK N   1      34.664  10.056  13.624  0.00  0.00     0.058 A 
HETATM    2  C   UNK N   1      34.851  10.327  14.977  0.00  0.00    -0.025 A 
HETATM    3  C   UNK N   1      35.060   9.179  15.922  0.00  0.00     0.045 A 
HETATM    4  C   UNK N   1      35.262   9.526  17.404  0.00  0.00     0.044 A 
HETATM    5  C   UNK N   1      35.234  10.982  17.776  0.00  0.00    -0.045 A 
HETATM    6  C   UNK N   1      35.415  11.329  19.119  0.00  0.00     0.008 A 
HETATM    7  C   UNK N   1      35.397  12.669  19.512  0.00  0.00     0.001 A 
HETATM    8  C   UNK N   1      35.196  13.674  18.564  0.00  0.00     0.001 A 
HETATM    9  C   UNK N   1      35.015  13.337  17.223  0.00  0.00     0.014 A 
HETATM   10  C   UNK N   1      35.032  11.994  16.820  0.00  0.00    -0.001 A 
HETATM   11  C   UNK N   1      34.839  11.660  15.406  0.00  0.00     0.065 A 
HETATM   12  N   UNK N   1      34.645  12.653  14.495  0.00  0.00    -0.298 N 
ATOM     13  HN  UNK N   1      34.636  13.623  14.811  1.00  0.00     0.187 HD
HETATM   14  N   UNK N   1      34.466  12.388  13.200  0.00  0.00    -0.285 N 
ATOM     15  HN  UNK N   1      34.323  13.157  12.546  1.00  0.00     0.188 HD
HETATM   16  C   UNK N   1      34.470  11.112  12.738  0.00  0.00     0.113 A 
ENDROOT
BRANCH  16  17
HETATM   17  N   UNK N   1      34.279  10.859  11.366  0.00  0.00    -0.384 N 
HETATM   18  H   UNK N   1      33.527  11.277  10.889  0.00  0.00     0.157 HD
HETATM   19  H   UNK N   1      34.898  10.263  10.886  0.00  0.00     0.157 HD
ENDBRANCH  16  17
TORSDOF 1
ENDMDL
MODEL 4
REMARK VINA RESULT:      -6.0     15.273     16.120
REMARK  1 active torsions:
REMARK  status: ('A' for Active; 'I' for Inactive)
REMARK    1  A    between atoms: C_16  and  N_17 
ROOT
HETATM    1  C   UNK N   1      26.647  25.499  -7.704  0.00  0.00     0.058 A 
HETATM    2  C   UNK N   1      27.012  26.721  -7.147  0.00  0.00    -0.025 A 
HETATM    3  C   UNK N   1      28.057  27.548  -7.838  0.00  0.00     0.045 A 
HETATM    4  C   UNK N   1      28.428  28.888  -7.187  0.00  0.00     0.044 A 
HETATM    5  C   UNK N   1      27.713  29.252  -5.916  0.00  0.00    -0.045 A 
HETATM    6  C   UNK N   1      28.030  30.467  -5.299  0.00  0.00     0.008 A 
HETATM    7  C   UNK N   1      27.392  30.848  -4.117  0.00  0.00     0.001 A 
HETATM    8  C   UNK N   1      26.431  30.015  -3.541  0.00  0.00     0.001 A 
HETATM    9  C   UNK N   1      26.108  28.802  -4.149  0.00  0.00     0.014 A 
HETATM   10  C   UNK N   1      26.745  28.413  -5.337  0.00  0.00    -0.001 A 
HETATM   11  C   UNK N   1      26.392  27.134  -5.961  0.00  0.00     0.065 A 
HETATM   12  N   UNK N   1      25.452  26.334  -5.385  0.00  0.00    -0.298 N 
ATOM     13  HN  UNK N   1      25.002  26.638  -4.521  1.00  0.00     0.187 HD
HETATM   14  N   UNK N   1      25.106  25.164  -5.924  0.00  0.00    -0.285 N 
ATOM     15  HN  UNK N   1      24.398  24.592  -5.465  1.00  0.00     0.188 HD
HETATM   16  C   UNK N   1      25.679  24.723  -7.071  0.00  0.00     0.113 A 
ENDROOT
BRANCH  16  17
HETATM   17  N   UNK N   1      25.296  23.484  -7.620  0.00  0.00    -0.384 N 
HETATM   18  H   UNK N   1      25.795  22.668  -7.387  0.00  0.00     0.157 HD
HETATM   19  H   UNK N   1      24.530  23.435  -8.235  0.00  0.00     0.157 HD
ENDBRANCH  16  17
TORSDOF 1
ENDMDL
MODEL 5
REMARK VINA RESULT:      -6.0     14.164     14.769
REMARK  1 active torsions:
REMARK  status: ('A' for Active; 'I' for Inactive)
REMARK    1  A    between atoms: C_16  and  N_17 
ROOT
HETATM    1  C   UNK N   1      42.747  21.288   3.275  0.00  0.00     0.058 A 
HETATM    2  C   UNK N   1      41.858  21.497   2.225  0.00  0.00    -0.025 A 
HETATM    3  C   UNK N   1      41.119  20.321   1.656  0.00  0.00     0.045 A 
HETATM    4  C   UNK N   1      40.149  20.600   0.500  0.00  0.00     0.044 A 
HETATM    5  C   UNK N   1      40.026  22.025   0.039  0.00  0.00    -0.045 A 
HETATM    6  C   UNK N   1      39.150  22.311  -1.014  0.00  0.00     0.008 A 
HETATM    7  C   UNK N   1      39.003  23.621  -1.475  0.00  0.00     0.001 A 
HETATM    8  C   UNK N   1      39.731  24.656  -0.887  0.00  0.00     0.001 A 
HETATM    9  C   UNK N   1      40.606  24.381   0.163  0.00  0.00     0.014 A 
HETATM   10  C   UNK N   1      40.760  23.068   0.632  0.00  0.00    -0.001 A 
HETATM   11  C   UNK N   1      41.685  22.799   1.737  0.00  0.00     0.065 A 
HETATM   12  N   UNK N   1      42.388  23.821   2.299  0.00  0.00    -0.298 N 
ATOM     13  HN  UNK N   1      42.260  24.768   1.941  1.00  0.00     0.187 HD
HETATM   14  N   UNK N   1      43.238  23.614   3.305  0.00  0.00    -0.285 N 
ATOM     15  HN  UNK N   1      43.747  24.404   3.701  1.00  0.00     0.188 HD
HETATM   16  C   UNK N   1      43.438  22.371   3.811  0.00  0.00     0.113 A 
ENDROOT
BRANCH  16  17
HETATM   17  N   UNK N   1      44.341  22.179   4.873  0.00  0.00    -0.384 N 
HETATM   18  H   UNK N   1      44.321  22.783   5.651  0.00  0.00     0.157 HD
HETATM   19  H   UNK N   1      44.992  21.442   4.838  0.00  0.00     0.157 HD
ENDBRANCH  16  17
TORSDOF 1
ENDMDL
MODEL 6
REMARK VINA RESULT:      -6.0      3.033      4.099
REMARK  1 active torsions:
REMARK  status: ('A' for Active; 'I' for Inactive)
REMARK    1  A    between atoms: C_16  and  N_17 
ROOT
HETATM    1  C   UNK N   1      34.088  17.553   7.332  0.00  0.00     0.058 A 
HETATM    2  C   UNK N   1      33.011  17.437   6.459  0.00  0.00    -0.025 A 
HETATM    3  C   UNK N   1      33.251  17.604   4.986  0.00  0.00     0.045 A 
HETATM    4  C   UNK N   1      32.033  17.467   4.062  0.00  0.00     0.044 A 
HETATM    5  C   UNK N   1      30.710  17.179   4.713  0.00  0.00    -0.045 A 
HETATM    6  C   UNK N   1      29.581  17.049   3.896  0.00  0.00     0.008 A 
HETATM    7  C   UNK N   1      28.330  16.780   4.455  0.00  0.00     0.001 A 
HETATM    8  C   UNK N   1      28.198  16.640   5.838  0.00  0.00     0.001 A 
HETATM    9  C   UNK N   1      29.317  16.768   6.660  0.00  0.00     0.014 A 
HETATM   10  C   UNK N   1      30.576  17.037   6.105  0.00  0.00    -0.001 A 
HETATM   11  C   UNK N   1      31.741  17.168   6.986  0.00  0.00     0.065 A 
HETATM   12  N   UNK N   1      31.593  17.028   8.332  0.00  0.00    -0.298 N 
ATOM     13  HN  UNK N   1      30.667  16.832   8.713  1.00  0.00     0.187 HD
HETATM   14  N   UNK N   1      32.629  17.140   9.165  0.00  0.00    -0.285 N 
ATOM     15  HN  UNK N   1      32.481  17.029  10.167  1.00  0.00     0.188 HD
HETATM   16  C   UNK N   1      33.877  17.400   8.700  0.00  0.00     0.113 A 
ENDROOT
BRANCH  16  17
HETATM   17  N   UNK N   1      34.955  17.514   9.599  0.00  0.00    -0.384 N 
HETATM   18  H   UNK N   1      35.880  17.450   9.268  0.00  0.00     0.157 HD
HETATM   19  H   UNK N   1      34.782  17.658  10.557  0.00  0.00     0.157 HD
ENDBRANCH  16  17
TORSDOF 1
ENDMDL
MODEL 7
REMARK VINA RESULT:      -5.9      3.723      5.402
REMARK  1 active torsions:
REMARK  status: ('A' for Active; 'I' for Inactive)
REMARK    1  A    between atoms: C_16  and  N_17 
ROOT
HETATM    1  C   UNK N   1      33.269  16.878   4.857  0.00  0.00     0.058 A 
HETATM    2  C   UNK N   1      32.515  17.201   5.982  0.00  0.00    -0.025 A 
HETATM    3  C   UNK N   1      33.223  17.707   7.206  0.00  0.00     0.045 A 
HETATM    4  C   UNK N   1      32.352  18.050   8.422  0.00  0.00     0.044 A 
HETATM    5  C   UNK N   1      30.869  17.849   8.280  0.00  0.00    -0.045 A 
HETATM    6  C   UNK N   1      30.048  18.153   9.372  0.00  0.00     0.008 A 
HETATM    7  C   UNK N   1      28.665  17.983   9.286  0.00  0.00     0.001 A 
HETATM    8  C   UNK N   1      28.091  17.507   8.107  0.00  0.00     0.001 A 
HETATM    9  C   UNK N   1      28.900  17.201   7.014  0.00  0.00     0.014 A 
HETATM   10  C   UNK N   1      30.290  17.369   7.092  0.00  0.00    -0.001 A 
HETATM   11  C   UNK N   1      31.125  17.043   5.932  0.00  0.00     0.065 A 
HETATM   12  N   UNK N   1      30.547  16.579   4.789  0.00  0.00    -0.298 N 
ATOM     13  HN  UNK N   1      29.534  16.465   4.755  1.00  0.00     0.187 HD
HETATM   14  N   UNK N   1      31.274  16.271   3.714  0.00  0.00    -0.285 N 
ATOM     15  HN  UNK N   1      30.807  15.927   2.875  1.00  0.00     0.188 HD
HETATM   16  C   UNK N   1      32.623  16.409   3.716  0.00  0.00     0.113 A 
ENDROOT
BRANCH  16  17
HETATM   17  N   UNK N   1      33.368  16.077   2.568  0.00  0.00    -0.384 N 
HETATM   18  H   UNK N   1      34.352  16.111   2.594  0.00  0.00     0.157 HD
HETATM   19  H   UNK N   1      32.905  15.812   1.742  0.00  0.00     0.157 HD
ENDBRANCH  16  17
TORSDOF 1
ENDMDL
MODEL 8
REMARK VINA RESULT:      -5.8     12.178     14.868
REMARK  1 active torsions:
REMARK  status: ('A' for Active; 'I' for Inactive)
REMARK    1  A    between atoms: C_16  and  N_17 
ROOT
HETATM    1  C   UNK N   1      36.222  14.102  15.096  0.00  0.00     0.058 A 
HETATM    2  C   UNK N   1      35.892  13.314  16.195  0.00  0.00    -0.025 A 
HETATM    3  C   UNK N   1      35.641  13.983  17.516  0.00  0.00     0.045 A 
HETATM    4  C   UNK N   1      35.280  13.073  18.699  0.00  0.00     0.044 A 
HETATM    5  C   UNK N   1      35.210  11.596  18.430  0.00  0.00    -0.045 A 
HETATM    6  C   UNK N   1      34.883  10.742  19.489  0.00  0.00     0.008 A 
HETATM    7  C   UNK N   1      34.806   9.362  19.287  0.00  0.00     0.001 A 
HETATM    8  C   UNK N   1      35.056   8.826  18.022  0.00  0.00     0.001 A 
HETATM    9  C   UNK N   1      35.383   9.669  16.962  0.00  0.00     0.014 A 
HETATM   10  C   UNK N   1      35.462  11.056  17.156  0.00  0.00    -0.001 A 
HETATM   11  C   UNK N   1      35.806  11.926  16.028  0.00  0.00     0.065 A 
HETATM   12  N   UNK N   1      36.047  11.385  14.802  0.00  0.00    -0.298 N 
ATOM     13  HN  UNK N   1      35.983  10.374  14.684  1.00  0.00     0.187 HD
HETATM   14  N   UNK N   1      36.363  12.145  13.753  0.00  0.00    -0.285 N 
ATOM     15  HN  UNK N   1      36.536  11.705  12.849  1.00  0.00     0.188 HD
HETATM   16  C   UNK N   1      36.458  13.494  13.866  0.00  0.00     0.113 A 
ENDROOT
BRANCH  16  17
HETATM   17  N   UNK N   1      36.793  14.274  12.744  0.00  0.00    -0.384 N 
HETATM   18  H   UNK N   1      37.724  14.563  12.606  0.00  0.00     0.157 HD
HETATM   19  H   UNK N   1      36.096  14.530  12.097  0.00  0.00     0.157 HD
ENDBRANCH  16  17
TORSDOF 1
ENDMDL
MODEL 9
REMARK VINA RESULT:      -5.8     16.187     17.774
REMARK  1 active torsions:
REMARK  status: ('A' for Active; 'I' for Inactive)
REMARK    1  A    between atoms: C_16  and  N_17 
ROOT
HETATM    1  C   UNK N   1      43.250  21.592   3.407  0.00  0.00     0.058 A 
HETATM    2  C   UNK N   1      43.813  20.329   3.251  0.00  0.00    -0.025 A 
HETATM    3  C   UNK N   1      42.932  19.192   2.819  0.00  0.00     0.045 A 
HETATM    4  C   UNK N   1      43.596  17.818   2.661  0.00  0.00     0.044 A 
HETATM    5  C   UNK N   1      45.067  17.731   2.952  0.00  0.00    -0.045 A 
HETATM    6  C   UNK N   1      45.701  16.491   2.817  0.00  0.00     0.008 A 
HETATM    7  C   UNK N   1      47.067  16.362   3.077  0.00  0.00     0.001 A 
HETATM    8  C   UNK N   1      47.811  17.474   3.475  0.00  0.00     0.001 A 
HETATM    9  C   UNK N   1      47.189  18.714   3.613  0.00  0.00     0.014 A 
HETATM   10  C   UNK N   1      45.817  18.851   3.353  0.00  0.00    -0.001 A 
HETATM   11  C   UNK N   1      45.181  20.163   3.504  0.00  0.00     0.065 A 
HETATM   12  N   UNK N   1      45.922  21.237   3.893  0.00  0.00    -0.298 N 
ATOM     13  HN  UNK N   1      46.918  21.113   4.076  1.00  0.00     0.187 HD
HETATM   14  N   UNK N   1      45.378  22.445   4.040  0.00  0.00    -0.285 N 
ATOM     15  HN  UNK N   1      45.964  23.227   4.333  1.00  0.00     0.188 HD
HETATM   16  C   UNK N   1      44.058  22.653   3.807  0.00  0.00     0.113 A 
ENDROOT
BRANCH  16  17
HETATM   17  N   UNK N   1      43.507  23.939   3.970  0.00  0.00    -0.384 N 
HETATM   18  H   UNK N   1      42.579  24.115   3.691  0.00  0.00     0.157 HD
HETATM   19  H   UNK N   1      44.049  24.660   4.362  0.00  0.00     0.157 HD
ENDBRANCH  16  17
TORSDOF 1
ENDMDL
