MODEL 1
REMARK VINA RESULT:      -6.3      0.000      0.000
REMARK  7 active torsions:
REMARK  status: ('A' for Active; 'I' for Inactive)
REMARK    1  A    between atoms: C_4  and  C_8 
REMARK    2  A    between atoms: C_8  and  C_9 
REMARK    3  A    between atoms: C_9  and  C_10 
REMARK    4  A    between atoms: C_10  and  C_11 
REMARK    5  A    between atoms: C_11  and  C_12 
REMARK    6  A    between atoms: C_12  and  C_13 
REMARK    7  A    between atoms: C_13  and  O_15 
ROOT
HETATM    1  C   UNK N   1      23.285  12.022  12.598  0.00  0.00     0.316 A 
HETATM    2  O   UNK N   1      23.581  11.880  13.773  0.00  0.00    -0.247 OA
HETATM    3  N   UNK N   1      22.074  11.749  12.116  0.00  0.00    -0.337 N 
HETATM    4  C   UNK N   1      22.044  12.001  10.694  0.00  0.00     0.108 A 
HETATM    5  C   UNK N   1      23.488  12.549  10.404  0.00  0.00     0.104 A 
HETATM    6  N   UNK N   1      24.144  12.463  11.684  0.00  0.00    -0.337 N 
HETATM    7  C   UNK N   1      24.219  11.699   9.378  0.00  0.00     0.034 C 
HETATM    8  H   UNK N   1      21.312  11.425  12.650  0.00  0.00     0.164 HD
HETATM    9  H   UNK N   1      25.085  12.696  11.856  0.00  0.00     0.164 HD
ENDROOT
BRANCH   4  10
HETATM   10  C   UNK N   1      20.945  13.017  10.367  0.00  0.00     0.027 C 
BRANCH  10  11
HETATM   11  C   UNK N   1      21.464  14.198   9.552  0.00  0.00     0.002 C 
BRANCH  11  12
HETATM   12  C   UNK N   1      20.434  14.715   8.565  0.00  0.00     0.001 C 
BRANCH  12  13
HETATM   13  C   UNK N   1      20.566  16.224   8.494  0.00  0.00     0.010 C 
BRANCH  13  14
HETATM   14  C   UNK N   1      19.298  16.918   8.966  0.00  0.00     0.110 C 
BRANCH  14  15
HETATM   15  C   UNK N   1      19.522  18.388   9.183  0.00  0.00     0.139 C 
HETATM   16  O   UNK N   1      20.281  18.996   8.448  0.00  0.00    -0.650 OA
BRANCH  15  17
HETATM   17  O   UNK N   1      18.888  19.047  10.175  0.00  0.00    -0.776 OA
HETATM   18  H   UNK N   1      18.396  19.824   9.992  0.00  0.00     0.167 HD
ENDBRANCH  15  17
ENDBRANCH  14  15
ENDBRANCH  13  14
ENDBRANCH  12  13
ENDBRANCH  11  12
ENDBRANCH  10  11
ENDBRANCH   4  10
TORSDOF 7
ENDMDL
MODEL 2
REMARK VINA RESULT:      -5.8      1.208      1.634
REMARK  7 active torsions:
REMARK  status: ('A' for Active; 'I' for Inactive)
REMARK    1  A    between atoms: C_4  and  C_8 
REMARK    2  A    between atoms: C_8  and  C_9 
REMARK    3  A    between atoms: C_9  and  C_10 
REMARK    4  A    between atoms: C_10  and  C_11 
REMARK    5  A    between atoms: C_11  and  C_12 
REMARK    6  A    between atoms: C_12  and  C_13 
REMARK    7  A    between atoms: C_13  and  O_15 
ROOT
HETATM    1  C   UNK N   1      23.312  12.048  12.491  0.00  0.00     0.316 A 
HETATM    2  O   UNK N   1      23.675  11.930  13.650  0.00  0.00    -0.247 OA
HETATM    3  N   UNK N   1      22.080  11.754  12.081  0.00  0.00    -0.337 N 
HETATM    4  C   UNK N   1      21.969  11.981  10.659  0.00  0.00     0.108 A 
HETATM    5  C   UNK N   1      23.388  12.540  10.281  0.00  0.00     0.104 A 
HETATM    6  N   UNK N   1      24.115  12.484  11.524  0.00  0.00    -0.337 N 
HETATM    7  C   UNK N   1      24.074  11.682   9.231  0.00  0.00     0.034 C 
HETATM    8  H   UNK N   1      21.353  11.429  12.661  0.00  0.00     0.164 HD
HETATM    9  H   UNK N   1      25.061  12.731  11.640  0.00  0.00     0.164 HD
ENDROOT
BRANCH   4  10
HETATM   10  C   UNK N   1      20.842  12.978  10.376  0.00  0.00     0.027 C 
BRANCH  10  11
HETATM   11  C   UNK N   1      21.338  14.240   9.678  0.00  0.00     0.002 C 
BRANCH  11  12
HETATM   12  C   UNK N   1      20.345  14.764   8.656  0.00  0.00     0.001 C 
BRANCH  12  13
HETATM   13  C   UNK N   1      20.631  16.237   8.435  0.00  0.00     0.010 C 
BRANCH  13  14
HETATM   14  C   UNK N   1      21.367  16.471   7.125  0.00  0.00     0.110 C 
BRANCH  14  15
HETATM   15  C   UNK N   1      21.109  17.851   6.587  0.00  0.00     0.139 C 
HETATM   16  O   UNK N   1      21.153  18.047   5.385  0.00  0.00    -0.650 OA
BRANCH  15  17
HETATM   17  O   UNK N   1      20.821  18.876   7.417  0.00  0.00    -0.776 OA
HETATM   18  H   UNK N   1      21.355  19.646   7.426  0.00  0.00     0.167 HD
ENDBRANCH  15  17
ENDBRANCH  14  15
ENDBRANCH  13  14
ENDBRANCH  12  13
ENDBRANCH  11  12
ENDBRANCH  10  11
ENDBRANCH   4  10
TORSDOF 7
ENDMDL
MODEL 3
REMARK VINA RESULT:      -5.2     13.506     15.586
REMARK  7 active torsions:
REMARK  status: ('A' for Active; 'I' for Inactive)
REMARK    1  A    between atoms: C_4  and  C_8 
REMARK    2  A    between atoms: C_8  and  C_9 
REMARK    3  A    between atoms: C_9  and  C_10 
REMARK    4  A    between atoms: C_10  and  C_11 
REMARK    5  A    between atoms: C_11  and  C_12 
REMARK    6  A    between atoms: C_12  and  C_13 
REMARK    7  A    between atoms: C_13  and  O_15 
ROOT
HETATM    1  C   UNK N   1      35.498  16.386  10.827  0.00  0.00     0.316 A 
HETATM    2  O   UNK N   1      35.574  17.535  10.423  0.00  0.00    -0.247 OA
HETATM    3  N   UNK N   1      36.496  15.770  11.459  0.00  0.00    -0.337 N 
HETATM    4  C   UNK N   1      36.107  14.420  11.792  0.00  0.00     0.108 A 
HETATM    5  C   UNK N   1      34.622  14.347  11.283  0.00  0.00     0.104 A 
HETATM    6  N   UNK N   1      34.410  15.637  10.676  0.00  0.00    -0.337 N 
HETATM    7  C   UNK N   1      34.429  13.243  10.257  0.00  0.00     0.034 C 
HETATM    8  H   UNK N   1      37.370  16.175  11.667  0.00  0.00     0.164 HD
HETATM    9  H   UNK N   1      33.585  15.921  10.220  0.00  0.00     0.164 HD
ENDROOT
BRANCH   4  10
HETATM   10  C   UNK N   1      36.229  14.200  13.303  0.00  0.00     0.027 C 
BRANCH  10  11
HETATM   11  C   UNK N   1      36.818  12.835  13.650  0.00  0.00     0.002 C 
BRANCH  11  12
HETATM   12  C   UNK N   1      36.546  12.438  15.089  0.00  0.00     0.001 C 
BRANCH  12  13
HETATM   13  C   UNK N   1      36.006  13.654  15.819  0.00  0.00     0.010 C 
BRANCH  13  14
HETATM   14  C   UNK N   1      34.884  13.278  16.774  0.00  0.00     0.110 C 
BRANCH  14  15
HETATM   15  C   UNK N   1      35.202  13.686  18.185  0.00  0.00     0.139 C 
HETATM   16  O   UNK N   1      35.406  14.860  18.441  0.00  0.00    -0.650 OA
BRANCH  15  17
HETATM   17  O   UNK N   1      35.255  12.771  19.176  0.00  0.00    -0.776 OA
HETATM   18  H   UNK N   1      34.999  11.883  19.018  0.00  0.00     0.167 HD
ENDBRANCH  15  17
ENDBRANCH  14  15
ENDBRANCH  13  14
ENDBRANCH  12  13
ENDBRANCH  11  12
ENDBRANCH  10  11
ENDBRANCH   4  10
TORSDOF 7
ENDMDL
MODEL 4
REMARK VINA RESULT:      -5.2      9.243      9.887
REMARK  7 active torsions:
REMARK  status: ('A' for Active; 'I' for Inactive)
REMARK    1  A    between atoms: C_4  and  C_8 
REMARK    2  A    between atoms: C_8  and  C_9 
REMARK    3  A    between atoms: C_9  and  C_10 
REMARK    4  A    between atoms: C_10  and  C_11 
REMARK    5  A    between atoms: C_11  and  C_12 
REMARK    6  A    between atoms: C_12  and  C_13 
REMARK    7  A    between atoms: C_13  and  O_15 
ROOT
HETATM    1  C   UNK N   1      27.905  18.829   4.722  0.00  0.00     0.316 A 
HETATM    2  O   UNK N   1      28.778  17.978   4.703  0.00  0.00    -0.247 OA
HETATM    3  N   UNK N   1      27.474  19.454   3.628  0.00  0.00    -0.337 N 
HETATM    4  C   UNK N   1      26.454  20.415   3.981  0.00  0.00     0.108 A 
HETATM    5  C   UNK N   1      26.299  20.208   5.531  0.00  0.00     0.104 A 
HETATM    6  N   UNK N   1      27.298  19.216   5.840  0.00  0.00    -0.337 N 
HETATM    7  C   UNK N   1      26.572  21.489   6.302  0.00  0.00     0.034 C 
HETATM    8  H   UNK N   1      27.802  19.287   2.714  0.00  0.00     0.164 HD
HETATM    9  H   UNK N   1      27.499  18.876   6.743  0.00  0.00     0.164 HD
ENDROOT
BRANCH   4  10
HETATM   10  C   UNK N   1      25.166  20.114   3.209  0.00  0.00     0.027 C 
BRANCH  10  11
HETATM   11  C   UNK N   1      24.110  19.432   4.075  0.00  0.00     0.002 C 
BRANCH  11  12
HETATM   12  C   UNK N   1      22.784  19.276   3.354  0.00  0.00     0.001 C 
BRANCH  12  13
HETATM   13  C   UNK N   1      22.354  20.643   2.858  0.00  0.00     0.010 C 
BRANCH  13  14
HETATM   14  C   UNK N   1      20.903  20.640   2.404  0.00  0.00     0.110 C 
BRANCH  14  15
HETATM   15  C   UNK N   1      20.774  21.073   0.970  0.00  0.00     0.139 C 
HETATM   16  O   UNK N   1      20.963  20.264   0.078  0.00  0.00    -0.650 OA
BRANCH  15  17
HETATM   17  O   UNK N   1      20.442  22.343   0.656  0.00  0.00    -0.776 OA
HETATM   18  H   UNK N   1      20.088  22.547  -0.188  0.00  0.00     0.167 HD
ENDBRANCH  15  17
ENDBRANCH  14  15
ENDBRANCH  13  14
ENDBRANCH  12  13
ENDBRANCH  11  12
ENDBRANCH  10  11
ENDBRANCH   4  10
TORSDOF 7
ENDMDL
MODEL 5
REMARK VINA RESULT:      -5.1      2.613      3.049
REMARK  7 active torsions:
REMARK  status: ('A' for Active; 'I' for Inactive)
REMARK    1  A    between atoms: C_4  and  C_8 
REMARK    2  A    between atoms: C_8  and  C_9 
REMARK    3  A    between atoms: C_9  and  C_10 
REMARK    4  A    between atoms: C_10  and  C_11 
REMARK    5  A    between atoms: C_11  and  C_12 
REMARK    6  A    between atoms: C_12  and  C_13 
REMARK    7  A    between atoms: C_13  and  O_15 
ROOT
HETATM    1  C   UNK N   1      23.323  12.025  12.344  0.00  0.00     0.316 A 
HETATM    2  O   UNK N   1      23.728  11.846  13.480  0.00  0.00    -0.247 OA
HETATM    3  N   UNK N   1      22.061  11.804  11.979  0.00  0.00    -0.337 N 
HETATM    4  C   UNK N   1      21.901  12.090  10.572  0.00  0.00     0.108 A 
HETATM    5  C   UNK N   1      23.328  12.596  10.151  0.00  0.00     0.104 A 
HETATM    6  N   UNK N   1      24.103  12.459  11.358  0.00  0.00    -0.337 N 
HETATM    7  C   UNK N   1      23.925  11.748   9.041  0.00  0.00     0.034 C 
HETATM    8  H   UNK N   1      21.345  11.493  12.579  0.00  0.00     0.164 HD
HETATM    9  H   UNK N   1      25.064  12.657  11.440  0.00  0.00     0.164 HD
ENDROOT
BRANCH   4  10
HETATM   10  C   UNK N   1      20.812  13.149  10.375  0.00  0.00     0.027 C 
BRANCH  10  11
HETATM   11  C   UNK N   1      21.252  14.276   9.447  0.00  0.00     0.002 C 
BRANCH  11  12
HETATM   12  C   UNK N   1      20.739  14.092   8.031  0.00  0.00     0.001 C 
BRANCH  12  13
HETATM   13  C   UNK N   1      21.078  15.342   7.241  0.00  0.00     0.010 C 
BRANCH  13  14
HETATM   14  C   UNK N   1      22.017  15.033   6.085  0.00  0.00     0.110 C 
BRANCH  14  15
HETATM   15  C   UNK N   1      23.429  15.442   6.397  0.00  0.00     0.139 C 
HETATM   16  O   UNK N   1      24.141  14.700   7.051  0.00  0.00    -0.650 OA
BRANCH  15  17
HETATM   17  O   UNK N   1      23.924  16.618   5.955  0.00  0.00    -0.776 OA
HETATM   18  H   UNK N   1      24.322  17.221   6.552  0.00  0.00     0.167 HD
ENDBRANCH  15  17
ENDBRANCH  14  15
ENDBRANCH  13  14
ENDBRANCH  12  13
ENDBRANCH  11  12
ENDBRANCH  10  11
ENDBRANCH   4  10
TORSDOF 7
ENDMDL
MODEL 6
REMARK VINA RESULT:      -5.1      9.929     10.860
REMARK  7 active torsions:
REMARK  status: ('A' for Active; 'I' for Inactive)
REMARK    1  A    between atoms: C_4  and  C_8 
REMARK    2  A    between atoms: C_8  and  C_9 
REMARK    3  A    between atoms: C_9  and  C_10 
REMARK    4  A    between atoms: C_10  and  C_11 
REMARK    5  A    between atoms: C_11  and  C_12 
REMARK    6  A    between atoms: C_12  and  C_13 
REMARK    7  A    between atoms: C_13  and  O_15 
ROOT
HETATM    1  C   UNK N   1      34.588  17.291   9.450  0.00  0.00     0.316 A 
HETATM    2  O   UNK N   1      35.477  17.348  10.284  0.00  0.00    -0.247 OA
HETATM    3  N   UNK N   1      33.628  16.369   9.474  0.00  0.00    -0.337 N 
HETATM    4  C   UNK N   1      32.741  16.555   8.348  0.00  0.00     0.108 A 
HETATM    5  C   UNK N   1      33.326  17.835   7.649  0.00  0.00     0.104 A 
HETATM    6  N   UNK N   1      34.493  18.145   8.436  0.00  0.00    -0.337 N 
HETATM    7  C   UNK N   1      33.720  17.562   6.207  0.00  0.00     0.034 C 
HETATM    8  H   UNK N   1      33.535  15.665  10.157  0.00  0.00     0.164 HD
HETATM    9  H   UNK N   1      35.123  18.880   8.251  0.00  0.00     0.164 HD
ENDROOT
BRANCH   4  10
HETATM   10  C   UNK N   1      31.305  16.750   8.842  0.00  0.00     0.027 C 
BRANCH  10  11
HETATM   11  C   UNK N   1      30.867  18.211   8.806  0.00  0.00     0.002 C 
BRANCH  11  12
HETATM   12  C   UNK N   1      29.418  18.370   8.384  0.00  0.00     0.001 C 
BRANCH  12  13
HETATM   13  C   UNK N   1      29.235  17.662   7.055  0.00  0.00     0.010 C 
BRANCH  13  14
HETATM   14  C   UNK N   1      27.825  17.846   6.514  0.00  0.00     0.110 C 
BRANCH  14  15
HETATM   15  C   UNK N   1      27.549  19.284   6.174  0.00  0.00     0.139 C 
HETATM   16  O   UNK N   1      28.089  19.788   5.204  0.00  0.00    -0.650 OA
BRANCH  15  17
HETATM   17  O   UNK N   1      26.704  20.023   6.922  0.00  0.00    -0.776 OA
HETATM   18  H   UNK N   1      26.595  20.939   6.752  0.00  0.00     0.167 HD
ENDBRANCH  15  17
ENDBRANCH  14  15
ENDBRANCH  13  14
ENDBRANCH  12  13
ENDBRANCH  11  12
ENDBRANCH  10  11
ENDBRANCH   4  10
TORSDOF 7
ENDMDL
MODEL 7
REMARK VINA RESULT:      -4.9     18.170     19.891
REMARK  7 active torsions:
REMARK  status: ('A' for Active; 'I' for Inactive)
REMARK    1  A    between atoms: C_4  and  C_8 
REMARK    2  A    between atoms: C_8  and  C_9 
REMARK    3  A    between atoms: C_9  and  C_10 
REMARK    4  A    between atoms: C_10  and  C_11 
REMARK    5  A    between atoms: C_11  and  C_12 
REMARK    6  A    between atoms: C_12  and  C_13 
REMARK    7  A    between atoms: C_13  and  O_15 
ROOT
HETATM    1  C   UNK N   1      26.975  28.327  -3.009  0.00  0.00     0.316 A 
HETATM    2  O   UNK N   1      27.190  29.188  -2.172  0.00  0.00    -0.247 OA
HETATM    3  N   UNK N   1      27.930  27.806  -3.778  0.00  0.00    -0.337 N 
HETATM    4  C   UNK N   1      27.358  26.830  -4.677  0.00  0.00     0.108 A 
HETATM    5  C   UNK N   1      25.843  26.813  -4.258  0.00  0.00     0.104 A 
HETATM    6  N   UNK N   1      25.764  27.826  -3.237  0.00  0.00    -0.337 N 
HETATM    7  C   UNK N   1      24.931  27.165  -5.421  0.00  0.00     0.034 C 
HETATM    8  H   UNK N   1      28.884  28.050  -3.739  0.00  0.00     0.164 HD
HETATM    9  H   UNK N   1      24.939  28.104  -2.776  0.00  0.00     0.164 HD
ENDROOT
BRANCH   4  10
HETATM   10  C   UNK N   1      28.045  25.476  -4.480  0.00  0.00     0.027 C 
BRANCH  10  11
HETATM   11  C   UNK N   1      27.206  24.508  -3.653  0.00  0.00     0.002 C 
BRANCH  11  12
HETATM   12  C   UNK N   1      28.057  23.603  -2.781  0.00  0.00     0.001 C 
BRANCH  12  13
HETATM   13  C   UNK N   1      29.401  23.423  -3.461  0.00  0.00     0.010 C 
BRANCH  13  14
HETATM   14  C   UNK N   1      29.765  21.953  -3.597  0.00  0.00     0.110 C 
BRANCH  14  15
HETATM   15  C   UNK N   1      31.119  21.664  -3.012  0.00  0.00     0.139 C 
HETATM   16  O   UNK N   1      31.532  22.342  -2.088  0.00  0.00    -0.650 OA
BRANCH  15  17
HETATM   17  O   UNK N   1      31.880  20.658  -3.491  0.00  0.00    -0.776 OA
HETATM   18  H   UNK N   1      32.233  20.699  -4.358  0.00  0.00     0.167 HD
ENDBRANCH  15  17
ENDBRANCH  14  15
ENDBRANCH  13  14
ENDBRANCH  12  13
ENDBRANCH  11  12
ENDBRANCH  10  11
ENDBRANCH   4  10
TORSDOF 7
ENDMDL
MODEL 8
REMARK VINA RESULT:      -4.8     13.672     14.502
REMARK  7 active torsions:
REMARK  status: ('A' for Active; 'I' for Inactive)
REMARK    1  A    between atoms: C_4  and  C_8 
REMARK    2  A    between atoms: C_8  and  C_9 
REMARK    3  A    between atoms: C_9  and  C_10 
REMARK    4  A    between atoms: C_10  and  C_11 
REMARK    5  A    between atoms: C_11  and  C_12 
REMARK    6  A    between atoms: C_12  and  C_13 
REMARK    7  A    between atoms: C_13  and  O_15 
ROOT
HETATM    1  C   UNK N   1      38.007  12.958  10.671  0.00  0.00     0.316 A 
HETATM    2  O   UNK N   1      39.105  13.204  10.201  0.00  0.00    -0.247 OA
HETATM    3  N   UNK N   1      37.677  13.234  11.932  0.00  0.00    -0.337 N 
HETATM    4  C   UNK N   1      36.320  12.808  12.188  0.00  0.00     0.108 A 
HETATM    5  C   UNK N   1      35.854  12.260  10.791  0.00  0.00     0.104 A 
HETATM    6  N   UNK N   1      37.030  12.390   9.969  0.00  0.00    -0.337 N 
HETATM    7  C   UNK N   1      35.424  10.805  10.869  0.00  0.00     0.034 C 
HETATM    8  H   UNK N   1      38.269  13.664  12.591  0.00  0.00     0.164 HD
HETATM    9  H   UNK N   1      37.100  12.103   9.029  0.00  0.00     0.164 HD
ENDROOT
BRANCH   4  10
HETATM   10  C   UNK N   1      35.483  13.997  12.670  0.00  0.00     0.027 C 
BRANCH  10  11
HETATM   11  C   UNK N   1      35.774  15.273  11.887  0.00  0.00     0.002 C 
BRANCH  11  12
HETATM   12  C   UNK N   1      34.656  15.628  10.925  0.00  0.00     0.001 C 
BRANCH  12  13
HETATM   13  C   UNK N   1      35.093  16.838  10.121  0.00  0.00     0.010 C 
BRANCH  13  14
HETATM   14  C   UNK N   1      34.085  17.180   9.035  0.00  0.00     0.110 C 
BRANCH  14  15
HETATM   15  C   UNK N   1      34.616  18.231   8.101  0.00  0.00     0.139 C 
HETATM   16  O   UNK N   1      34.402  18.138   6.905  0.00  0.00    -0.650 OA
BRANCH  15  17
HETATM   17  O   UNK N   1      35.321  19.283   8.570  0.00  0.00    -0.776 OA
HETATM   18  H   UNK N   1      35.817  19.208   9.362  0.00  0.00     0.167 HD
ENDBRANCH  15  17
ENDBRANCH  14  15
ENDBRANCH  13  14
ENDBRANCH  12  13
ENDBRANCH  11  12
ENDBRANCH  10  11
ENDBRANCH   4  10
TORSDOF 7
ENDMDL
MODEL 9
REMARK VINA RESULT:      -4.8     18.503     20.370
REMARK  7 active torsions:
REMARK  status: ('A' for Active; 'I' for Inactive)
REMARK    1  A    between atoms: C_4  and  C_8 
REMARK    2  A    between atoms: C_8  and  C_9 
REMARK    3  A    between atoms: C_9  and  C_10 
REMARK    4  A    between atoms: C_10  and  C_11 
REMARK    5  A    between atoms: C_11  and  C_12 
REMARK    6  A    between atoms: C_12  and  C_13 
REMARK    7  A    between atoms: C_13  and  O_15 
ROOT
HETATM    1  C   UNK N   1      26.909  26.956  -6.598  0.00  0.00     0.316 A 
HETATM    2  O   UNK N   1      27.351  27.287  -7.686  0.00  0.00    -0.247 OA
HETATM    3  N   UNK N   1      26.109  25.905  -6.429  0.00  0.00    -0.337 N 
HETATM    4  C   UNK N   1      25.743  25.787  -5.036  0.00  0.00     0.108 A 
HETATM    5  C   UNK N   1      26.540  26.962  -4.363  0.00  0.00     0.104 A 
HETATM    6  N   UNK N   1      27.183  27.613  -5.476  0.00  0.00    -0.337 N 
HETATM    7  C   UNK N   1      25.619  27.933  -3.644  0.00  0.00     0.034 C 
HETATM    8  H   UNK N   1      25.811  25.298  -7.146  0.00  0.00     0.164 HD
HETATM    9  H   UNK N   1      27.743  28.422  -5.414  0.00  0.00     0.164 HD
ENDROOT
BRANCH   4  10
HETATM   10  C   UNK N   1      26.150  24.409  -4.505  0.00  0.00     0.027 C 
BRANCH  10  11
HETATM   11  C   UNK N   1      27.427  24.458  -3.671  0.00  0.00     0.002 C 
BRANCH  11  12
HETATM   12  C   UNK N   1      28.653  24.052  -4.468  0.00  0.00     0.001 C 
BRANCH  12  13
HETATM   13  C   UNK N   1      29.883  24.471  -3.686  0.00  0.00     0.010 C 
BRANCH  13  14
HETATM   14  C   UNK N   1      30.962  23.400  -3.727  0.00  0.00     0.110 C 
BRANCH  14  15
HETATM   15  C   UNK N   1      31.038  22.644  -2.430  0.00  0.00     0.139 C 
HETATM   16  O   UNK N   1      30.313  22.964  -1.503  0.00  0.00    -0.650 OA
BRANCH  15  17
HETATM   17  O   UNK N   1      31.892  21.610  -2.279  0.00  0.00    -0.776 OA
HETATM   18  H   UNK N   1      31.602  20.806  -1.895  0.00  0.00     0.167 HD
ENDBRANCH  15  17
ENDBRANCH  14  15
ENDBRANCH  13  14
ENDBRANCH  12  13
ENDBRANCH  11  12
ENDBRANCH  10  11
ENDBRANCH   4  10
TORSDOF 7
ENDMDL
