REMARK  7 active torsions:
REMARK  status: ('A' for Active; 'I' for Inactive)
REMARK    1  A    between atoms: C_4  and  C_8 
REMARK    2  A    between atoms: C_8  and  C_9 
REMARK    3  A    between atoms: C_9  and  C_10 
REMARK    4  A    between atoms: C_10  and  C_11 
REMARK    5  A    between atoms: C_11  and  C_12 
REMARK    6  A    between atoms: C_12  and  C_13 
REMARK    7  A    between atoms: C_13  and  O_15 
ROOT
HETATM    1  C   UNK N   1      -3.906  -0.125   0.078  0.00  0.00     0.316 A 
HETATM    2  O   UNK N   1      -5.121  -0.063   0.169  0.00  0.00    -0.247 OA
HETATM    3  N   UNK N   1      -3.138   0.941  -0.140  0.00  0.00    -0.337 N 
HETATM    4  C   UNK N   1      -1.752   0.540  -0.215  0.00  0.00     0.108 A 
HETATM    5  C   UNK N   1      -1.818  -1.005   0.065  0.00  0.00     0.104 A 
HETATM    6  N   UNK N   1      -3.230  -1.265   0.188  0.00  0.00    -0.337 N 
HETATM    7  C   UNK N   1      -1.231  -1.813  -1.080  0.00  0.00     0.034 C 
HETATM    8  H   UNK N   1      -3.466   1.865  -0.236  0.00  0.00     0.164 HD
HETATM    9  H   UNK N   1      -3.633  -2.152   0.333  0.00  0.00     0.164 HD
ENDROOT
BRANCH   4  10
HETATM   10  C   UNK N   1      -0.932   1.300   0.832  0.00  0.00     0.027 C 
BRANCH  10  11
HETATM   11  C   UNK N   1       0.503   0.792   0.933  0.00  0.00     0.002 C 
BRANCH  11  12
HETATM   12  C   UNK N   1       1.407   1.401  -0.123  0.00  0.00     0.001 C 
BRANCH  12  13
HETATM   13  C   UNK N   1       2.545   0.433  -0.383  0.00  0.00     0.010 C 
BRANCH  13  14
HETATM   14  C   UNK N   1       3.894   1.059  -0.064  0.00  0.00     0.110 C 
BRANCH  14  15
HETATM   15  C   UNK N   1       4.985   0.026  -0.023  0.00  0.00     0.139 C 
HETATM   16  O   UNK N   1       6.137   0.374   0.171  0.00  0.00    -0.650 OA
BRANCH  15  17
HETATM   17  O   UNK N   1       4.706  -1.284  -0.189  0.00  0.00    -0.776 OA
HETATM   18  H   UNK N   1       3.821  -1.571  -0.303  0.00  0.00     0.167 HD
ENDBRANCH  15  17
ENDBRANCH  14  15
ENDBRANCH  13  14
ENDBRANCH  12  13
ENDBRANCH  11  12
ENDBRANCH  10  11
ENDBRANCH   4  10
TORSDOF 7
