REMARK  5 active torsions:
REMARK  status: ('A' for Active; 'I' for Inactive)
REMARK    1  A    between atoms: C_8  and  N_13 
REMARK    2  A    between atoms: C_10  and  O_21 
REMARK    3  A    between atoms: C_11  and  O_23 
REMARK    4  A    between atoms: N_13  and  C_14 
REMARK    5  A    between atoms: C_16  and  O_20 
ROOT
HETATM    1  N   UNK N   1      -1.957  -1.222  -0.000  0.00  0.00    -0.338 N 
ATOM      2  HN  UNK N   1      -2.879  -0.787  -0.000  1.00  0.00     0.168 HD
HETATM    3  C   UNK N   1      -1.857  -2.579  -0.000  0.00  0.00     0.182 A 
HETATM    4  N   UNK N   1      -0.635  -3.178  -0.000  0.00  0.00    -0.351 N 
ATOM      5  HN  UNK N   1      -0.571  -4.196  -0.000  1.00  0.00     0.166 HD
HETATM    6  C   UNK N   1       0.501  -2.431  -0.000  0.00  0.00     0.050 A 
HETATM    7  C   UNK N   1       0.413  -1.033  -0.000  0.00  0.00     0.038 A 
HETATM    8  C   UNK N   1      -0.845  -0.434  -0.000  0.00  0.00     0.119 A 
HETATM    9  C   UNK N   1       1.754  -3.047   0.000  0.00  0.00     0.070 A 
HETATM   10  C   UNK N   1       2.932  -2.282   0.000  0.00  0.00     0.103 A 
HETATM   11  C   UNK N   1       2.838  -0.861   0.000  0.00  0.00     0.102 A 
HETATM   12  C   UNK N   1       1.573  -0.261   0.000  0.00  0.00     0.057 A 
ENDROOT
BRANCH   8  13
HETATM   13  N   UNK N   1      -0.935   0.987  -0.000  0.00  0.00    -0.342 N 
HETATM   14  H   UNK N   1      -0.085   1.483  -0.000  0.00  0.00     0.167 HD
BRANCH  13  15
HETATM   15  C   UNK N   1      -2.121   1.764  -0.000  0.00  0.00     0.036 A 
HETATM   16  C   UNK N   1      -3.392   1.175  -0.000  0.00  0.00     0.066 A 
HETATM   17  C   UNK N   1      -4.536   1.972   0.000  0.00  0.00     0.067 A 
HETATM   18  C   UNK N   1      -4.418   3.365   0.000  0.00  0.00     0.036 A 
HETATM   19  C   UNK N   1      -3.153   3.958  -0.000  0.00  0.00     0.005 A 
HETATM   20  C   UNK N   1      -2.008   3.158  -0.000  0.00  0.00     0.029 A 
BRANCH  17  21
HETATM   21  O   UNK N   1      -5.750   1.399   0.000  0.00  0.00    -0.361 OA
HETATM   22  H   UNK N   1      -6.520   1.933   0.000  0.00  0.00     0.217 HD
ENDBRANCH  17  21
ENDBRANCH  13  15
ENDBRANCH   8  13
BRANCH  11  23
HETATM   23  O   UNK N   1       3.952  -0.088   0.000  0.00  0.00    -0.353 OA
HETATM   24  C   UNK N   1       3.917   1.290   0.000  0.00  0.00     0.210 C 
ENDBRANCH  11  23
BRANCH  10  25
HETATM   25  O   UNK N   1       4.115  -2.950   0.000  0.00  0.00    -0.353 OA
HETATM   26  C   UNK N   1       5.361  -2.367   0.000  0.00  0.00     0.210 C 
ENDBRANCH  10  25
TORSDOF 5
