MODEL 1
REMARK VINA RESULT:      -6.6      0.000      0.000
REMARK  5 active torsions:
REMARK  status: ('A' for Active; 'I' for Inactive)
REMARK    1  A    between atoms: C_8  and  N_13 
REMARK    2  A    between atoms: C_10  and  O_21 
REMARK    3  A    between atoms: C_11  and  O_23 
REMARK    4  A    between atoms: N_13  and  C_14 
REMARK    5  A    between atoms: C_16  and  O_20 
ROOT
HETATM    1  N   UNK N   1      23.308  16.552   5.613  0.00  0.00    -0.338 N 
ATOM      2  HN  UNK N   1      23.715  17.141   4.887  1.00  0.00     0.168 HD
HETATM    3  C   UNK N   1      23.968  15.434   6.018  0.00  0.00     0.182 A 
HETATM    4  N   UNK N   1      23.440  14.636   6.986  0.00  0.00    -0.351 N 
ATOM      5  HN  UNK N   1      23.943  13.800   7.283  1.00  0.00     0.166 HD
HETATM    6  C   UNK N   1      22.247  14.944   7.560  0.00  0.00     0.050 A 
HETATM    7  C   UNK N   1      21.555  16.092   7.153  0.00  0.00     0.038 A 
HETATM    8  C   UNK N   1      22.109  16.899   6.161  0.00  0.00     0.119 A 
HETATM    9  C   UNK N   1      21.706  14.125   8.553  0.00  0.00     0.070 A 
HETATM   10  C   UNK N   1      20.473  14.436   9.150  0.00  0.00     0.103 A 
HETATM   11  C   UNK N   1      19.774  15.604   8.733  0.00  0.00     0.102 A 
HETATM   12  C   UNK N   1      20.332  16.414   7.737  0.00  0.00     0.057 A 
ENDROOT
BRANCH   8  13
HETATM   13  N   UNK N   1      21.406  18.067   5.746  0.00  0.00    -0.342 N 
HETATM   14  H   UNK N   1      21.116  18.682   6.457  0.00  0.00     0.167 HD
BRANCH  13  15
HETATM   15  C   UNK N   1      21.081  18.436   4.417  0.00  0.00     0.036 A 
HETATM   16  C   UNK N   1      21.302  19.732   3.933  0.00  0.00     0.066 A 
HETATM   17  C   UNK N   1      20.969  20.058   2.619  0.00  0.00     0.067 A 
HETATM   18  C   UNK N   1      20.412  19.090   1.778  0.00  0.00     0.036 A 
HETATM   19  C   UNK N   1      20.190  17.796   2.255  0.00  0.00     0.005 A 
HETATM   20  C   UNK N   1      20.524  17.471   3.571  0.00  0.00     0.029 A 
BRANCH  17  21
HETATM   21  O   UNK N   1      21.185  21.302   2.164  0.00  0.00    -0.361 OA
HETATM   22  H   UNK N   1      21.673  21.912   2.681  0.00  0.00     0.217 HD
ENDBRANCH  17  21
ENDBRANCH  13  15
ENDBRANCH   8  13
BRANCH  11  23
HETATM   23  O   UNK N   1      18.582  15.938   9.286  0.00  0.00    -0.353 OA
HETATM   24  C   UNK N   1      17.894  17.089   8.964  0.00  0.00     0.210 C 
ENDBRANCH  11  23
BRANCH  10  25
HETATM   25  O   UNK N   1      20.009  13.593  10.109  0.00  0.00    -0.353 OA
HETATM   26  C   UNK N   1      20.756  12.644  10.768  0.00  0.00     0.210 C 
ENDBRANCH  10  25
TORSDOF 5
ENDMDL
MODEL 2
REMARK VINA RESULT:      -6.5      2.721      7.659
REMARK  5 active torsions:
REMARK  status: ('A' for Active; 'I' for Inactive)
REMARK    1  A    between atoms: C_8  and  N_13 
REMARK    2  A    between atoms: C_10  and  O_21 
REMARK    3  A    between atoms: C_11  and  O_23 
REMARK    4  A    between atoms: N_13  and  C_14 
REMARK    5  A    between atoms: C_16  and  O_20 
ROOT
HETATM    1  N   UNK N   1      20.046  15.504   9.015  0.00  0.00    -0.338 N 
ATOM      2  HN  UNK N   1      19.703  14.849   9.717  1.00  0.00     0.168 HD
HETATM    3  C   UNK N   1      19.467  16.730   8.902  0.00  0.00     0.182 A 
HETATM    4  N   UNK N   1      19.911  17.618   7.971  0.00  0.00    -0.351 N 
ATOM      5  HN  UNK N   1      19.469  18.534   7.895  1.00  0.00     0.166 HD
HETATM    6  C   UNK N   1      20.938  17.293   7.142  0.00  0.00     0.050 A 
HETATM    7  C   UNK N   1      21.544  16.035   7.246  0.00  0.00     0.038 A 
HETATM    8  C   UNK N   1      21.079  15.137   8.204  0.00  0.00     0.119 A 
HETATM    9  C   UNK N   1      21.393  18.205   6.187  0.00  0.00     0.070 A 
HETATM   10  C   UNK N   1      22.453  17.877   5.326  0.00  0.00     0.103 A 
HETATM   11  C   UNK N   1      23.067  16.596   5.436  0.00  0.00     0.102 A 
HETATM   12  C   UNK N   1      22.598  15.695   6.399  0.00  0.00     0.057 A 
ENDROOT
BRANCH   8  13
HETATM   13  N   UNK N   1      21.695  13.857   8.311  0.00  0.00    -0.342 N 
HETATM   14  H   UNK N   1      21.829  13.361   7.472  0.00  0.00     0.167 HD
BRANCH  13  15
HETATM   15  C   UNK N   1      22.136  13.222   9.499  0.00  0.00     0.036 A 
HETATM   16  C   UNK N   1      23.495  13.113   9.820  0.00  0.00     0.066 A 
HETATM   17  C   UNK N   1      23.891  12.481  10.998  0.00  0.00     0.067 A 
HETATM   18  C   UNK N   1      22.930  11.954  11.866  0.00  0.00     0.036 A 
HETATM   19  C   UNK N   1      21.573  12.060  11.551  0.00  0.00     0.005 A 
HETATM   20  C   UNK N   1      21.178  12.693  10.370  0.00  0.00     0.029 A 
BRANCH  17  21
HETATM   21  O   UNK N   1      25.196  12.381  11.297  0.00  0.00    -0.361 OA
HETATM   22  H   UNK N   1      25.463  11.963  12.092  0.00  0.00     0.217 HD
ENDBRANCH  17  21
ENDBRANCH  13  15
ENDBRANCH   8  13
BRANCH  11  23
HETATM   23  O   UNK N   1      24.093  16.242   4.624  0.00  0.00    -0.353 OA
HETATM   24  C   UNK N   1      23.932  15.474   3.491  0.00  0.00     0.210 C 
ENDBRANCH  11  23
BRANCH  10  25
HETATM   25  O   UNK N   1      22.842  18.814   4.423  0.00  0.00    -0.353 OA
HETATM   26  C   UNK N   1      22.065  19.307   3.400  0.00  0.00     0.210 C 
ENDBRANCH  10  25
TORSDOF 5
ENDMDL
MODEL 3
REMARK VINA RESULT:      -6.5      7.433      9.540
REMARK  5 active torsions:
REMARK  status: ('A' for Active; 'I' for Inactive)
REMARK    1  A    between atoms: C_8  and  N_13 
REMARK    2  A    between atoms: C_10  and  O_21 
REMARK    3  A    between atoms: C_11  and  O_23 
REMARK    4  A    between atoms: N_13  and  C_14 
REMARK    5  A    between atoms: C_16  and  O_20 
ROOT
HETATM    1  N   UNK N   1      27.615  17.591   8.190  0.00  0.00    -0.338 N 
ATOM      2  HN  UNK N   1      26.596  17.583   8.148  1.00  0.00     0.168 HD
HETATM    3  C   UNK N   1      28.234  17.820   9.380  0.00  0.00     0.182 A 
HETATM    4  N   UNK N   1      29.592  17.833   9.457  0.00  0.00    -0.351 N 
ATOM      5  HN  UNK N   1      30.046  18.006  10.354  1.00  0.00     0.166 HD
HETATM    6  C   UNK N   1      30.349  17.618   8.348  0.00  0.00     0.050 A 
HETATM    7  C   UNK N   1      29.726  17.381   7.117  0.00  0.00     0.038 A 
HETATM    8  C   UNK N   1      28.334  17.370   7.054  0.00  0.00     0.119 A 
HETATM    9  C   UNK N   1      31.743  17.632   8.429  0.00  0.00     0.070 A 
HETATM   10  C   UNK N   1      32.532  17.411   7.288  0.00  0.00     0.103 A 
HETATM   11  C   UNK N   1      31.894  17.170   6.038  0.00  0.00     0.102 A 
HETATM   12  C   UNK N   1      30.495  17.160   5.976  0.00  0.00     0.057 A 
ENDROOT
BRANCH   8  13
HETATM   13  N   UNK N   1      27.699  17.129   5.802  0.00  0.00    -0.342 N 
HETATM   14  H   UNK N   1      27.753  16.211   5.450  0.00  0.00     0.167 HD
BRANCH  13  15
HETATM   15  C   UNK N   1      26.999  18.072   5.008  0.00  0.00     0.036 A 
HETATM   16  C   UNK N   1      25.621  17.965   4.776  0.00  0.00     0.066 A 
HETATM   17  C   UNK N   1      24.966  18.912   3.989  0.00  0.00     0.067 A 
HETATM   18  C   UNK N   1      25.683  19.973   3.429  0.00  0.00     0.036 A 
HETATM   19  C   UNK N   1      27.057  20.084   3.658  0.00  0.00     0.005 A 
HETATM   20  C   UNK N   1      27.712  19.135   4.446  0.00  0.00     0.029 A 
BRANCH  17  21
HETATM   21  O   UNK N   1      23.646  18.802   3.772  0.00  0.00    -0.361 OA
HETATM   22  H   UNK N   1      23.293  18.006   3.425  0.00  0.00     0.217 HD
ENDBRANCH  17  21
ENDBRANCH  13  15
ENDBRANCH   8  13
BRANCH  11  23
HETATM   23  O   UNK N   1      32.621  16.952   4.914  0.00  0.00    -0.353 OA
HETATM   24  C   UNK N   1      32.294  17.486   3.686  0.00  0.00     0.210 C 
ENDBRANCH  11  23
BRANCH  10  25
HETATM   25  O   UNK N   1      33.882  17.439   7.442  0.00  0.00    -0.353 OA
HETATM   26  C   UNK N   1      34.581  18.359   8.188  0.00  0.00     0.210 C 
ENDBRANCH  10  25
TORSDOF 5
ENDMDL
MODEL 4
REMARK VINA RESULT:      -6.4      8.590     10.737
REMARK  5 active torsions:
REMARK  status: ('A' for Active; 'I' for Inactive)
REMARK    1  A    between atoms: C_8  and  N_13 
REMARK    2  A    between atoms: C_10  and  O_21 
REMARK    3  A    between atoms: C_11  and  O_23 
REMARK    4  A    between atoms: N_13  and  C_14 
REMARK    5  A    between atoms: C_16  and  O_20 
ROOT
HETATM    1  N   UNK N   1      29.127  15.446   4.556  0.00  0.00    -0.338 N 
ATOM      2  HN  UNK N   1      28.236  15.668   4.113  1.00  0.00     0.168 HD
HETATM    3  C   UNK N   1      29.426  14.150   4.845  0.00  0.00     0.182 A 
HETATM    4  N   UNK N   1      30.611  13.834   5.436  0.00  0.00    -0.351 N 
ATOM      5  HN  UNK N   1      30.825  12.860   5.649  1.00  0.00     0.166 HD
HETATM    6  C   UNK N   1      31.510  14.806   5.745  0.00  0.00     0.050 A 
HETATM    7  C   UNK N   1      31.216  16.144   5.453  0.00  0.00     0.038 A 
HETATM    8  C   UNK N   1      29.999  16.452   4.848  0.00  0.00     0.119 A 
HETATM    9  C   UNK N   1      32.725  14.480   6.352  0.00  0.00     0.070 A 
HETATM   10  C   UNK N   1      33.659  15.478   6.674  0.00  0.00     0.103 A 
HETATM   11  C   UNK N   1      33.356  16.837   6.375  0.00  0.00     0.102 A 
HETATM   12  C   UNK N   1      32.133  17.145   5.767  0.00  0.00     0.057 A 
ENDROOT
BRANCH   8  13
HETATM   13  N   UNK N   1      29.699  17.812   4.550  0.00  0.00    -0.342 N 
HETATM   14  H   UNK N   1      30.140  18.198   3.760  0.00  0.00     0.167 HD
BRANCH  13  15
HETATM   15  C   UNK N   1      28.832  18.669   5.273  0.00  0.00     0.036 A 
HETATM   16  C   UNK N   1      28.569  18.478   6.636  0.00  0.00     0.066 A 
HETATM   17  C   UNK N   1      27.710  19.342   7.314  0.00  0.00     0.067 A 
HETATM   18  C   UNK N   1      27.106  20.405   6.634  0.00  0.00     0.036 A 
HETATM   19  C   UNK N   1      27.365  20.600   5.275  0.00  0.00     0.005 A 
HETATM   20  C   UNK N   1      28.225  19.733   4.597  0.00  0.00     0.029 A 
BRANCH  17  21
HETATM   21  O   UNK N   1      27.464  19.152   8.620  0.00  0.00    -0.361 OA
HETATM   22  H   UNK N   1      27.828  19.737   9.255  0.00  0.00     0.217 HD
ENDBRANCH  17  21
ENDBRANCH  13  15
ENDBRANCH   8  13
BRANCH  11  23
HETATM   23  O   UNK N   1      34.231  17.829   6.670  0.00  0.00    -0.353 OA
HETATM   24  C   UNK N   1      34.319  18.415   7.915  0.00  0.00     0.210 C 
ENDBRANCH  11  23
BRANCH  10  25
HETATM   25  O   UNK N   1      34.819  15.086   7.262  0.00  0.00    -0.353 OA
HETATM   26  C   UNK N   1      34.996  14.861   8.608  0.00  0.00     0.210 C 
ENDBRANCH  10  25
TORSDOF 5
ENDMDL
MODEL 5
REMARK VINA RESULT:      -6.4      8.653     11.422
REMARK  5 active torsions:
REMARK  status: ('A' for Active; 'I' for Inactive)
REMARK    1  A    between atoms: C_8  and  N_13 
REMARK    2  A    between atoms: C_10  and  O_21 
REMARK    3  A    between atoms: C_11  and  O_23 
REMARK    4  A    between atoms: N_13  and  C_14 
REMARK    5  A    between atoms: C_16  and  O_20 
ROOT
HETATM    1  N   UNK N   1      32.029  15.992   4.586  0.00  0.00    -0.338 N 
ATOM      2  HN  UNK N   1      32.839  15.377   4.513  1.00  0.00     0.168 HD
HETATM    3  C   UNK N   1      31.529  16.576   3.464  0.00  0.00     0.182 A 
HETATM    4  N   UNK N   1      30.449  17.400   3.541  0.00  0.00    -0.351 N 
ATOM      5  HN  UNK N   1      30.082  17.833   2.693  1.00  0.00     0.166 HD
HETATM    6  C   UNK N   1      29.854  17.650   4.738  0.00  0.00     0.050 A 
HETATM    7  C   UNK N   1      30.358  17.055   5.901  0.00  0.00     0.038 A 
HETATM    8  C   UNK N   1      31.465  16.214   5.807  0.00  0.00     0.119 A 
HETATM    9  C   UNK N   1      28.746  18.495   4.815  0.00  0.00     0.070 A 
HETATM   10  C   UNK N   1      28.126  18.758   6.048  0.00  0.00     0.103 A 
HETATM   11  C   UNK N   1      28.642  18.151   7.229  0.00  0.00     0.102 A 
HETATM   12  C   UNK N   1      29.754  17.307   7.131  0.00  0.00     0.057 A 
ENDROOT
BRANCH   8  13
HETATM   13  N   UNK N   1      31.978  15.609   6.989  0.00  0.00    -0.342 N 
HETATM   14  H   UNK N   1      31.607  14.730   7.232  0.00  0.00     0.167 HD
BRANCH  13  15
HETATM   15  C   UNK N   1      32.967  16.139   7.855  0.00  0.00     0.036 A 
HETATM   16  C   UNK N   1      33.532  17.404   7.648  0.00  0.00     0.066 A 
HETATM   17  C   UNK N   1      34.503  17.892   8.522  0.00  0.00     0.067 A 
HETATM   18  C   UNK N   1      34.918  17.118   9.610  0.00  0.00     0.036 A 
HETATM   19  C   UNK N   1      34.358  15.855   9.821  0.00  0.00     0.005 A 
HETATM   20  C   UNK N   1      33.385  15.368   8.945  0.00  0.00     0.029 A 
BRANCH  17  21
HETATM   21  O   UNK N   1      35.038  19.106   8.316  0.00  0.00    -0.361 OA
HETATM   22  H   UNK N   1      34.719  19.646   7.620  0.00  0.00     0.217 HD
ENDBRANCH  17  21
ENDBRANCH  13  15
ENDBRANCH   8  13
BRANCH  11  23
HETATM   23  O   UNK N   1      28.072  18.381   8.437  0.00  0.00    -0.353 OA
HETATM   24  C   UNK N   1      28.081  17.462   9.465  0.00  0.00     0.210 C 
ENDBRANCH  11  23
BRANCH  10  25
HETATM   25  O   UNK N   1      27.052  19.591   6.047  0.00  0.00    -0.353 OA
HETATM   26  C   UNK N   1      26.661  20.386   4.995  0.00  0.00     0.210 C 
ENDBRANCH  10  25
TORSDOF 5
ENDMDL
MODEL 6
REMARK VINA RESULT:      -6.3      8.270     10.088
REMARK  5 active torsions:
REMARK  status: ('A' for Active; 'I' for Inactive)
REMARK    1  A    between atoms: C_8  and  N_13 
REMARK    2  A    between atoms: C_10  and  O_21 
REMARK    3  A    between atoms: C_11  and  O_23 
REMARK    4  A    between atoms: N_13  and  C_14 
REMARK    5  A    between atoms: C_16  and  O_20 
ROOT
HETATM    1  N   UNK N   1      30.685  16.994   3.221  0.00  0.00    -0.338 N 
ATOM      2  HN  UNK N   1      30.024  16.889   2.452  1.00  0.00     0.168 HD
HETATM    3  C   UNK N   1      32.021  16.954   2.966  0.00  0.00     0.182 A 
HETATM    4  N   UNK N   1      32.919  17.092   3.979  0.00  0.00    -0.351 N 
ATOM      5  HN  UNK N   1      33.918  17.060   3.778  1.00  0.00     0.166 HD
HETATM    6  C   UNK N   1      32.495  17.272   5.259  0.00  0.00     0.050 A 
HETATM    7  C   UNK N   1      31.122  17.316   5.536  0.00  0.00     0.038 A 
HETATM    8  C   UNK N   1      30.215  17.173   4.488  0.00  0.00     0.119 A 
HETATM    9  C   UNK N   1      33.417  17.414   6.297  0.00  0.00     0.070 A 
HETATM   10  C   UNK N   1      32.986  17.600   7.621  0.00  0.00     0.103 A 
HETATM   11  C   UNK N   1      31.590  17.644   7.899  0.00  0.00     0.102 A 
HETATM   12  C   UNK N   1      30.680  17.500   6.844  0.00  0.00     0.057 A 
ENDROOT
BRANCH   8  13
HETATM   13  N   UNK N   1      28.820  17.217   4.769  0.00  0.00    -0.342 N 
HETATM   14  H   UNK N   1      28.368  16.352   4.896  0.00  0.00     0.167 HD
BRANCH  13  15
HETATM   15  C   UNK N   1      28.013  18.377   4.886  0.00  0.00     0.036 A 
HETATM   16  C   UNK N   1      27.658  18.909   6.132  0.00  0.00     0.066 A 
HETATM   17  C   UNK N   1      26.862  20.051   6.208  0.00  0.00     0.067 A 
HETATM   18  C   UNK N   1      26.414  20.671   5.037  0.00  0.00     0.036 A 
HETATM   19  C   UNK N   1      26.765  20.144   3.791  0.00  0.00     0.005 A 
HETATM   20  C   UNK N   1      27.562  19.000   3.718  0.00  0.00     0.029 A 
BRANCH  17  21
HETATM   21  O   UNK N   1      26.527  20.555   7.406  0.00  0.00    -0.361 OA
HETATM   22  H   UNK N   1      25.638  20.797   7.581  0.00  0.00     0.217 HD
ENDBRANCH  17  21
ENDBRANCH  13  15
ENDBRANCH   8  13
BRANCH  11  23
HETATM   23  O   UNK N   1      31.135  17.823   9.164  0.00  0.00    -0.353 OA
HETATM   24  C   UNK N   1      30.030  18.587   9.470  0.00  0.00     0.210 C 
ENDBRANCH  11  23
BRANCH  10  25
HETATM   25  O   UNK N   1      33.940  17.731   8.580  0.00  0.00    -0.353 OA
HETATM   26  C   UNK N   1      34.592  16.692   9.204  0.00  0.00     0.210 C 
ENDBRANCH  10  25
TORSDOF 5
ENDMDL
MODEL 7
REMARK VINA RESULT:      -6.3      9.653     12.926
REMARK  5 active torsions:
REMARK  status: ('A' for Active; 'I' for Inactive)
REMARK    1  A    between atoms: C_8  and  N_13 
REMARK    2  A    between atoms: C_10  and  O_21 
REMARK    3  A    between atoms: C_11  and  O_23 
REMARK    4  A    between atoms: N_13  and  C_14 
REMARK    5  A    between atoms: C_16  and  O_20 
ROOT
HETATM    1  N   UNK N   1      30.728  17.577   9.381  0.00  0.00    -0.338 N 
ATOM      2  HN  UNK N   1      31.075  17.697  10.333  1.00  0.00     0.168 HD
HETATM    3  C   UNK N   1      29.386  17.529   9.159  0.00  0.00     0.182 A 
HETATM    4  N   UNK N   1      28.904  17.370   7.897  0.00  0.00    -0.351 N 
ATOM      5  HN  UNK N   1      27.897  17.335   7.741  1.00  0.00     0.166 HD
HETATM    6  C   UNK N   1      29.754  17.256   6.841  0.00  0.00     0.050 A 
HETATM    7  C   UNK N   1      31.138  17.304   7.055  0.00  0.00     0.038 A 
HETATM    8  C   UNK N   1      31.616  17.468   8.354  0.00  0.00     0.119 A 
HETATM    9  C   UNK N   1      29.258  17.093   5.547  0.00  0.00     0.070 A 
HETATM   10  C   UNK N   1      30.129  16.974   4.452  0.00  0.00     0.103 A 
HETATM   11  C   UNK N   1      31.535  17.023   4.674  0.00  0.00     0.102 A 
HETATM   12  C   UNK N   1      32.014  17.188   5.979  0.00  0.00     0.057 A 
ENDROOT
BRANCH   8  13
HETATM   13  N   UNK N   1      33.023  17.516   8.572  0.00  0.00    -0.342 N 
HETATM   14  H   UNK N   1      33.486  18.335   8.283  0.00  0.00     0.167 HD
BRANCH  13  15
HETATM   15  C   UNK N   1      33.827  16.508   9.162  0.00  0.00     0.036 A 
HETATM   16  C   UNK N   1      35.058  16.801   9.762  0.00  0.00     0.066 A 
HETATM   17  C   UNK N   1      35.822  15.783  10.332  0.00  0.00     0.067 A 
HETATM   18  C   UNK N   1      35.359  14.464  10.307  0.00  0.00     0.036 A 
HETATM   19  C   UNK N   1      34.132  14.166   9.710  0.00  0.00     0.005 A 
HETATM   20  C   UNK N   1      33.368  15.187   9.140  0.00  0.00     0.029 A 
BRANCH  17  21
HETATM   21  O   UNK N   1      37.001  16.073  10.905  0.00  0.00    -0.361 OA
HETATM   22  H   UNK N   1      37.781  15.643  10.613  0.00  0.00     0.217 HD
ENDBRANCH  17  21
ENDBRANCH  13  15
ENDBRANCH   8  13
BRANCH  11  23
HETATM   23  O   UNK N   1      32.409  16.913   3.642  0.00  0.00    -0.353 OA
HETATM   24  C   UNK N   1      32.989  15.720   3.266  0.00  0.00     0.210 C 
ENDBRANCH  11  23
BRANCH  10  25
HETATM   25  O   UNK N   1      29.575  16.818   3.221  0.00  0.00    -0.353 OA
HETATM   26  C   UNK N   1      29.202  15.618   2.661  0.00  0.00     0.210 C 
ENDBRANCH  10  25
TORSDOF 5
ENDMDL
MODEL 8
REMARK VINA RESULT:      -6.2     14.921     16.859
REMARK  5 active torsions:
REMARK  status: ('A' for Active; 'I' for Inactive)
REMARK    1  A    between atoms: C_8  and  N_13 
REMARK    2  A    between atoms: C_10  and  O_21 
REMARK    3  A    between atoms: C_11  and  O_23 
REMARK    4  A    between atoms: N_13  and  C_14 
REMARK    5  A    between atoms: C_16  and  O_20 
ROOT
HETATM    1  N   UNK N   1      26.756  24.229  -6.340  0.00  0.00    -0.338 N 
ATOM      2  HN  UNK N   1      27.002  23.360  -6.812  1.00  0.00     0.168 HD
HETATM    3  C   UNK N   1      25.467  24.664  -6.368  0.00  0.00     0.182 A 
HETATM    4  N   UNK N   1      25.118  25.822  -5.742  0.00  0.00    -0.351 N 
ATOM      5  HN  UNK N   1      24.149  26.139  -5.769  1.00  0.00     0.166 HD
HETATM    6  C   UNK N   1      26.051  26.559  -5.083  0.00  0.00     0.050 A 
HETATM    7  C   UNK N   1      27.382  26.123  -5.046  0.00  0.00     0.038 A 
HETATM    8  C   UNK N   1      27.723  24.936  -5.690  0.00  0.00     0.119 A 
HETATM    9  C   UNK N   1      25.692  27.746  -4.442  0.00  0.00     0.070 A 
HETATM   10  C   UNK N   1      26.650  28.513  -3.758  0.00  0.00     0.103 A 
HETATM   11  C   UNK N   1      28.001  28.067  -3.723  0.00  0.00     0.102 A 
HETATM   12  C   UNK N   1      28.343  26.873  -4.371  0.00  0.00     0.057 A 
ENDROOT
BRANCH   8  13
HETATM   13  N   UNK N   1      29.076  24.493  -5.653  0.00  0.00    -0.342 N 
HETATM   14  H   UNK N   1      29.702  24.935  -6.270  0.00  0.00     0.167 HD
BRANCH  13  15
HETATM   15  C   UNK N   1      29.617  23.481  -4.820  0.00  0.00     0.036 A 
HETATM   16  C   UNK N   1      29.855  23.694  -3.456  0.00  0.00     0.066 A 
HETATM   17  C   UNK N   1      30.388  22.675  -2.668  0.00  0.00     0.067 A 
HETATM   18  C   UNK N   1      30.687  21.434  -3.238  0.00  0.00     0.036 A 
HETATM   19  C   UNK N   1      30.451  21.215  -4.598  0.00  0.00     0.005 A 
HETATM   20  C   UNK N   1      29.917  22.238  -5.386  0.00  0.00     0.029 A 
BRANCH  17  21
HETATM   21  O   UNK N   1      30.614  22.888  -1.362  0.00  0.00    -0.361 OA
HETATM   22  H   UNK N   1      29.950  23.281  -0.830  0.00  0.00     0.217 HD
ENDBRANCH  17  21
ENDBRANCH  13  15
ENDBRANCH   8  13
BRANCH  11  23
HETATM   23  O   UNK N   1      28.955  28.779  -3.074  0.00  0.00    -0.353 OA
HETATM   24  C   UNK N   1      29.922  29.516  -3.723  0.00  0.00     0.210 C 
ENDBRANCH  11  23
BRANCH  10  25
HETATM   25  O   UNK N   1      26.227  29.657  -3.158  0.00  0.00    -0.353 OA
HETATM   26  C   UNK N   1      26.388  30.927  -3.660  0.00  0.00     0.210 C 
ENDBRANCH  10  25
TORSDOF 5
ENDMDL
MODEL 9
REMARK VINA RESULT:      -6.2     14.644     17.488
REMARK  5 active torsions:
REMARK  status: ('A' for Active; 'I' for Inactive)
REMARK    1  A    between atoms: C_8  and  N_13 
REMARK    2  A    between atoms: C_10  and  O_21 
REMARK    3  A    between atoms: C_11  and  O_23 
REMARK    4  A    between atoms: N_13  and  C_14 
REMARK    5  A    between atoms: C_16  and  O_20 
ROOT
HETATM    1  N   UNK N   1      27.989  26.528  -5.451  0.00  0.00    -0.338 N 
ATOM      2  HN  UNK N   1      28.509  26.655  -4.583  1.00  0.00     0.168 HD
HETATM    3  C   UNK N   1      27.946  27.540  -6.359  0.00  0.00     0.182 A 
HETATM    4  N   UNK N   1      27.257  27.389  -7.524  0.00  0.00    -0.351 N 
ATOM      5  HN  UNK N   1      27.231  28.154  -8.198  1.00  0.00     0.166 HD
HETATM    6  C   UNK N   1      26.605  26.228  -7.795  0.00  0.00     0.050 A 
HETATM    7  C   UNK N   1      26.641  25.177  -6.869  0.00  0.00     0.038 A 
HETATM    8  C   UNK N   1      27.350  25.346  -5.682  0.00  0.00     0.119 A 
HETATM    9  C   UNK N   1      25.899  26.075  -8.990  0.00  0.00     0.070 A 
HETATM   10  C   UNK N   1      25.222  24.878  -9.278  0.00  0.00     0.103 A 
HETATM   11  C   UNK N   1      25.262  23.813  -8.334  0.00  0.00     0.102 A 
HETATM   12  C   UNK N   1      25.974  23.984  -7.141  0.00  0.00     0.057 A 
ENDROOT
BRANCH   8  13
HETATM   13  N   UNK N   1      27.387  24.279  -4.740  0.00  0.00    -0.342 N 
HETATM   14  H   UNK N   1      26.528  24.012  -4.342  0.00  0.00     0.167 HD
BRANCH  13  15
HETATM   15  C   UNK N   1      28.533  23.559  -4.315  0.00  0.00     0.036 A 
HETATM   16  C   UNK N   1      29.004  23.628  -2.998  0.00  0.00     0.066 A 
HETATM   17  C   UNK N   1      30.134  22.906  -2.617  0.00  0.00     0.067 A 
HETATM   18  C   UNK N   1      30.802  22.109  -3.551  0.00  0.00     0.036 A 
HETATM   19  C   UNK N   1      30.337  22.037  -4.866  0.00  0.00     0.005 A 
HETATM   20  C   UNK N   1      29.205  22.761  -5.246  0.00  0.00     0.029 A 
BRANCH  17  21
HETATM   21  O   UNK N   1      30.578  22.977  -1.352  0.00  0.00    -0.361 OA
HETATM   22  H   UNK N   1      31.499  22.975  -1.178  0.00  0.00     0.217 HD
ENDBRANCH  17  21
ENDBRANCH  13  15
ENDBRANCH   8  13
BRANCH  11  23
HETATM   23  O   UNK N   1      24.621  22.642  -8.575  0.00  0.00    -0.353 OA
HETATM   24  C   UNK N   1      25.254  21.417  -8.566  0.00  0.00     0.210 C 
ENDBRANCH  11  23
BRANCH  10  25
HETATM   25  O   UNK N   1      24.556  24.801 -10.460  0.00  0.00    -0.353 OA
HETATM   26  C   UNK N   1      24.584  25.751 -11.455  0.00  0.00     0.210 C 
ENDBRANCH  10  25
TORSDOF 5
ENDMDL
