MODEL 1
REMARK VINA RESULT:      -6.0      0.000      0.000
REMARK  12 active torsions:
REMARK  status: ('A' for Active; 'I' for Inactive)
REMARK    1  A    between atoms: C_3  and  O_1 
REMARK    2  A    between atoms: C_2  and  C_3 
REMARK    3  A    between atoms: C_2  and  C_16 
REMARK    4  A    between atoms: C_3  and  C_4 
REMARK       I    between atoms: C_4  and  N_6 
REMARK    5  A    between atoms: C_7  and  N_6 
REMARK    6  A    between atoms: C_7  and  C_8 
REMARK    7  A    between atoms: C_7  and  C_19 
REMARK       I    between atoms: C_8  and  N_10 
REMARK    8  A    between atoms: N_10  and  C_11 
REMARK    9  A    between atoms: C_11  and  C_12 
REMARK   10  A    between atoms: C_12  and  C_13 
REMARK   11  A    between atoms: C_16  and  O_18 
REMARK   12  A    between atoms: C_19  and  C_20 
ROOT
HETATM    1  C   UNK N   1      32.360  17.359   8.126  0.00  0.00     0.177 C 
ENDROOT
BRANCH   1   2
HETATM    2  N   UNK N   1      32.883  16.511   9.173  0.00  0.00    -0.346 N 
HETATM    3  C   UNK N   1      33.103  15.182   9.055  0.00  0.00     0.247 C 
HETATM    4  O   UNK N   1      32.619  14.549   8.123  0.00  0.00    -0.271 OA
HETATM    5  H   UNK N   1      33.094  16.932  10.037  0.00  0.00     0.163 HD
BRANCH   3   6
HETATM    6  C   UNK N   1      33.973  14.514  10.075  0.00  0.00     0.219 C 
BRANCH   6   7
HETATM    7  O   UNK N   1      33.555  14.915  11.348  0.00  0.00    -0.386 OA
HETATM    8  H   UNK N   1      34.004  14.589  12.144  0.00  0.00     0.210 HD
ENDBRANCH   6   7
BRANCH   6   9
HETATM    9  C   UNK N   1      35.446  14.870   9.900  0.00  0.00     0.151 C 
BRANCH   9  10
HETATM   10  C   UNK N   1      35.869  15.928  10.868  0.00  0.00     0.142 C 
HETATM   11  O   UNK N   1      35.661  17.100  10.603  0.00  0.00    -0.650 OA
BRANCH  10  12
HETATM   12  O   UNK N   1      36.509  15.600  12.007  0.00  0.00    -0.776 OA
HETATM   13  H   UNK N   1      36.114  15.191  12.751  0.00  0.00     0.167 HD
ENDBRANCH  10  12
ENDBRANCH   9  10
ENDBRANCH   6   9
ENDBRANCH   3   6
ENDBRANCH   1   2
BRANCH   1  14
HETATM   14  C   UNK N   1      33.544  17.973   7.402  0.00  0.00     0.240 C 
HETATM   15  O   UNK N   1      34.331  18.680   8.023  0.00  0.00    -0.271 OA
HETATM   16  N   UNK N   1      33.772  17.755   6.087  0.00  0.00    -0.359 N 
HETATM   17  H   UNK N   1      34.534  18.206   5.657  0.00  0.00     0.162 HD
BRANCH  16  18
HETATM   18  C   UNK N   1      32.941  16.887   5.295  0.00  0.00     0.123 C 
BRANCH  18  19
HETATM   19  C   UNK N   1      32.220  17.701   4.238  0.00  0.00     0.023 C 
BRANCH  19  20
HETATM   20  C   UNK N   1      32.036  16.918   2.951  0.00  0.00    -0.021 C 
HETATM   21  C   UNK N   1      33.106  15.852   2.884  0.00  0.00     0.009 C 
HETATM   22  C   UNK N   1      30.672  16.253   2.905  0.00  0.00     0.009 C 
ENDBRANCH  19  20
ENDBRANCH  18  19
ENDBRANCH  16  18
ENDBRANCH   1  14
BRANCH   1  23
HETATM   23  C   UNK N   1      31.476  18.458   8.729  0.00  0.00     0.038 C 
BRANCH  23  24
HETATM   24  C   UNK N   1      29.997  18.233   8.428  0.00  0.00    -0.020 C 
HETATM   25  C   UNK N   1      29.274  17.851   9.707  0.00  0.00     0.009 C 
HETATM   26  C   UNK N   1      29.832  17.111   7.426  0.00  0.00     0.009 C 
ENDBRANCH  23  24
ENDBRANCH   1  23
TORSDOF 12
ENDMDL
MODEL 2
REMARK VINA RESULT:      -5.6     12.686     15.747
REMARK  12 active torsions:
REMARK  status: ('A' for Active; 'I' for Inactive)
REMARK    1  A    between atoms: C_3  and  O_1 
REMARK    2  A    between atoms: C_2  and  C_3 
REMARK    3  A    between atoms: C_2  and  C_16 
REMARK    4  A    between atoms: C_3  and  C_4 
REMARK       I    between atoms: C_4  and  N_6 
REMARK    5  A    between atoms: C_7  and  N_6 
REMARK    6  A    between atoms: C_7  and  C_8 
REMARK    7  A    between atoms: C_7  and  C_19 
REMARK       I    between atoms: C_8  and  N_10 
REMARK    8  A    between atoms: N_10  and  C_11 
REMARK    9  A    between atoms: C_11  and  C_12 
REMARK   10  A    between atoms: C_12  and  C_13 
REMARK   11  A    between atoms: C_16  and  O_18 
REMARK   12  A    between atoms: C_19  and  C_20 
ROOT
HETATM    1  C   UNK N   1      27.894  24.966  -4.734  0.00  0.00     0.177 C 
ENDROOT
BRANCH   1   2
HETATM    2  N   UNK N   1      28.526  23.801  -4.159  0.00  0.00    -0.346 N 
HETATM    3  C   UNK N   1      29.574  23.830  -3.306  0.00  0.00     0.247 C 
HETATM    4  O   UNK N   1      30.237  24.852  -3.167  0.00  0.00    -0.271 OA
HETATM    5  H   UNK N   1      28.165  22.919  -4.407  0.00  0.00     0.163 HD
BRANCH   3   6
HETATM    6  C   UNK N   1      29.883  22.593  -2.518  0.00  0.00     0.219 C 
BRANCH   6   7
HETATM    7  O   UNK N   1      30.619  22.959  -1.387  0.00  0.00    -0.386 OA
HETATM    8  H   UNK N   1      31.253  22.344  -0.987  0.00  0.00     0.210 HD
ENDBRANCH   6   7
BRANCH   6   9
HETATM    9  C   UNK N   1      30.683  21.578  -3.327  0.00  0.00     0.151 C 
BRANCH   9  10
HETATM   10  C   UNK N   1      32.151  21.727  -3.086  0.00  0.00     0.142 C 
HETATM   11  O   UNK N   1      32.829  22.358  -3.880  0.00  0.00    -0.650 OA
BRANCH  10  12
HETATM   12  O   UNK N   1      32.735  21.140  -2.023  0.00  0.00    -0.776 OA
HETATM   13  H   UNK N   1      32.338  20.488  -1.479  0.00  0.00     0.167 HD
ENDBRANCH  10  12
ENDBRANCH   9  10
ENDBRANCH   6   9
ENDBRANCH   3   6
ENDBRANCH   1   2
BRANCH   1  14
HETATM   14  C   UNK N   1      26.717  25.332  -3.849  0.00  0.00     0.240 C 
HETATM   15  O   UNK N   1      26.012  24.441  -3.383  0.00  0.00    -0.271 OA
HETATM   16  N   UNK N   1      26.423  26.614  -3.541  0.00  0.00    -0.359 N 
HETATM   17  H   UNK N   1      25.627  26.800  -2.992  0.00  0.00     0.162 HD
BRANCH  16  18
HETATM   18  C   UNK N   1      27.232  27.719  -3.987  0.00  0.00     0.123 C 
BRANCH  18  19
HETATM   19  C   UNK N   1      26.537  28.427  -5.133  0.00  0.00     0.023 C 
BRANCH  19  20
HETATM   20  C   UNK N   1      27.521  29.169  -6.017  0.00  0.00    -0.021 C 
HETATM   21  C   UNK N   1      28.548  29.839  -5.132  0.00  0.00     0.009 C 
HETATM   22  C   UNK N   1      28.230  28.218  -6.965  0.00  0.00     0.009 C 
ENDBRANCH  19  20
ENDBRANCH  18  19
ENDBRANCH  16  18
ENDBRANCH   1  14
BRANCH   1  23
HETATM   23  C   UNK N   1      27.415  24.657  -6.158  0.00  0.00     0.038 C 
BRANCH  23  24
HETATM   24  C   UNK N   1      27.253  23.159  -6.396  0.00  0.00    -0.020 C 
HETATM   25  C   UNK N   1      28.048  22.753  -7.624  0.00  0.00     0.009 C 
HETATM   26  C   UNK N   1      25.797  22.820  -6.629  0.00  0.00     0.009 C 
ENDBRANCH  23  24
ENDBRANCH   1  23
TORSDOF 12
ENDMDL
MODEL 3
REMARK VINA RESULT:      -5.6      1.807      2.419
REMARK  12 active torsions:
REMARK  status: ('A' for Active; 'I' for Inactive)
REMARK    1  A    between atoms: C_3  and  O_1 
REMARK    2  A    between atoms: C_2  and  C_3 
REMARK    3  A    between atoms: C_2  and  C_16 
REMARK    4  A    between atoms: C_3  and  C_4 
REMARK       I    between atoms: C_4  and  N_6 
REMARK    5  A    between atoms: C_7  and  N_6 
REMARK    6  A    between atoms: C_7  and  C_8 
REMARK    7  A    between atoms: C_7  and  C_19 
REMARK       I    between atoms: C_8  and  N_10 
REMARK    8  A    between atoms: N_10  and  C_11 
REMARK    9  A    between atoms: C_11  and  C_12 
REMARK   10  A    between atoms: C_12  and  C_13 
REMARK   11  A    between atoms: C_16  and  O_18 
REMARK   12  A    between atoms: C_19  and  C_20 
ROOT
HETATM    1  C   UNK N   1      31.261  17.100   8.383  0.00  0.00     0.177 C 
ENDROOT
BRANCH   1   2
HETATM    2  N   UNK N   1      32.196  16.435   9.262  0.00  0.00    -0.346 N 
HETATM    3  C   UNK N   1      32.545  15.132   9.177  0.00  0.00     0.247 C 
HETATM    4  O   UNK N   1      31.883  14.351   8.502  0.00  0.00    -0.271 OA
HETATM    5  H   UNK N   1      32.609  16.971   9.977  0.00  0.00     0.163 HD
BRANCH   3   6
HETATM    6  C   UNK N   1      33.774  14.678   9.904  0.00  0.00     0.219 C 
BRANCH   6   7
HETATM    7  O   UNK N   1      33.644  15.021  11.254  0.00  0.00    -0.386 OA
HETATM    8  H   UNK N   1      32.785  14.962  11.700  0.00  0.00     0.210 HD
ENDBRANCH   6   7
BRANCH   6   9
HETATM    9  C   UNK N   1      35.043  15.315   9.348  0.00  0.00     0.151 C 
BRANCH   9  10
HETATM   10  C   UNK N   1      35.592  16.342  10.286  0.00  0.00     0.142 C 
HETATM   11  O   UNK N   1      35.032  17.420  10.389  0.00  0.00    -0.650 OA
BRANCH  10  12
HETATM   12  O   UNK N   1      36.718  16.100  10.985  0.00  0.00    -0.776 OA
HETATM   13  H   UNK N   1      36.753  15.702  11.833  0.00  0.00     0.167 HD
ENDBRANCH  10  12
ENDBRANCH   9  10
ENDBRANCH   6   9
ENDBRANCH   3   6
ENDBRANCH   1   2
BRANCH   1  14
HETATM   14  C   UNK N   1      31.962  17.323   7.056  0.00  0.00     0.240 C 
HETATM   15  O   UNK N   1      33.095  17.796   7.043  0.00  0.00    -0.271 OA
HETATM   16  N   UNK N   1      31.383  17.005   5.877  0.00  0.00    -0.359 N 
HETATM   17  H   UNK N   1      31.866  17.203   5.042  0.00  0.00     0.162 HD
BRANCH  16  18
HETATM   18  C   UNK N   1      30.086  16.385   5.798  0.00  0.00     0.123 C 
BRANCH  18  19
HETATM   19  C   UNK N   1      29.228  17.129   4.793  0.00  0.00     0.023 C 
BRANCH  19  20
HETATM   20  C   UNK N   1      27.777  16.691   4.857  0.00  0.00    -0.021 C 
HETATM   21  C   UNK N   1      27.577  15.882   6.118  0.00  0.00     0.009 C 
HETATM   22  C   UNK N   1      26.845  17.889   4.884  0.00  0.00     0.009 C 
ENDBRANCH  19  20
ENDBRANCH  18  19
ENDBRANCH  16  18
ENDBRANCH   1  14
BRANCH   1  23
HETATM   23  C   UNK N   1      30.829  18.441   8.991  0.00  0.00     0.038 C 
BRANCH  23  24
HETATM   24  C   UNK N   1      29.330  18.487   9.269  0.00  0.00    -0.020 C 
HETATM   25  C   UNK N   1      28.849  17.106   9.679  0.00  0.00     0.009 C 
HETATM   26  C   UNK N   1      28.578  18.910   8.026  0.00  0.00     0.009 C 
ENDBRANCH  23  24
ENDBRANCH   1  23
TORSDOF 12
ENDMDL
MODEL 4
REMARK VINA RESULT:      -5.5     12.995     16.170
REMARK  12 active torsions:
REMARK  status: ('A' for Active; 'I' for Inactive)
REMARK    1  A    between atoms: C_3  and  O_1 
REMARK    2  A    between atoms: C_2  and  C_3 
REMARK    3  A    between atoms: C_2  and  C_16 
REMARK    4  A    between atoms: C_3  and  C_4 
REMARK       I    between atoms: C_4  and  N_6 
REMARK    5  A    between atoms: C_7  and  N_6 
REMARK    6  A    between atoms: C_7  and  C_8 
REMARK    7  A    between atoms: C_7  and  C_19 
REMARK       I    between atoms: C_8  and  N_10 
REMARK    8  A    between atoms: N_10  and  C_11 
REMARK    9  A    between atoms: C_11  and  C_12 
REMARK   10  A    between atoms: C_12  and  C_13 
REMARK   11  A    between atoms: C_16  and  O_18 
REMARK   12  A    between atoms: C_19  and  C_20 
ROOT
HETATM    1  C   UNK N   1      27.137  24.203  -5.136  0.00  0.00     0.177 C 
ENDROOT
BRANCH   1   2
HETATM    2  N   UNK N   1      28.274  23.312  -5.159  0.00  0.00    -0.346 N 
HETATM    3  C   UNK N   1      29.515  23.651  -5.576  0.00  0.00     0.247 C 
HETATM    4  O   UNK N   1      29.698  24.678  -6.221  0.00  0.00    -0.271 OA
HETATM    5  H   UNK N   1      28.135  22.388  -4.848  0.00  0.00     0.163 HD
BRANCH   3   6
HETATM    6  C   UNK N   1      30.658  22.755  -5.207  0.00  0.00     0.219 C 
BRANCH   6   7
HETATM    7  O   UNK N   1      30.140  21.528  -4.779  0.00  0.00    -0.386 OA
HETATM    8  H   UNK N   1      29.280  21.213  -5.101  0.00  0.00     0.210 HD
ENDBRANCH   6   7
BRANCH   6   9
HETATM    9  C   UNK N   1      31.519  23.346  -4.096  0.00  0.00     0.151 C 
BRANCH   9  10
HETATM   10  C   UNK N   1      31.054  22.895  -2.748  0.00  0.00     0.142 C 
HETATM   11  O   UNK N   1      31.673  22.024  -2.161  0.00  0.00    -0.650 OA
BRANCH  10  12
HETATM   12  O   UNK N   1      29.939  23.413  -2.199  0.00  0.00    -0.776 OA
HETATM   13  H   UNK N   1      29.705  23.355  -1.293  0.00  0.00     0.167 HD
ENDBRANCH  10  12
ENDBRANCH   9  10
ENDBRANCH   6   9
ENDBRANCH   3   6
ENDBRANCH   1   2
BRANCH   1  14
HETATM   14  C   UNK N   1      26.932  24.645  -3.699  0.00  0.00     0.240 C 
HETATM   15  O   UNK N   1      26.536  23.832  -2.868  0.00  0.00    -0.271 OA
HETATM   16  N   UNK N   1      27.185  25.909  -3.294  0.00  0.00    -0.359 N 
HETATM   17  H   UNK N   1      27.001  26.154  -2.358  0.00  0.00     0.162 HD
BRANCH  16  18
HETATM   18  C   UNK N   1      27.714  26.911  -4.183  0.00  0.00     0.123 C 
BRANCH  18  19
HETATM   19  C   UNK N   1      26.692  28.016  -4.369  0.00  0.00     0.023 C 
BRANCH  19  20
HETATM   20  C   UNK N   1      26.031  27.948  -5.732  0.00  0.00    -0.021 C 
HETATM   21  C   UNK N   1      27.024  27.374  -6.717  0.00  0.00     0.009 C 
HETATM   22  C   UNK N   1      24.799  27.061  -5.700  0.00  0.00     0.009 C 
ENDBRANCH  19  20
ENDBRANCH  18  19
ENDBRANCH  16  18
ENDBRANCH   1  14
BRANCH   1  23
HETATM   23  C   UNK N   1      25.888  23.478  -5.655  0.00  0.00     0.038 C 
BRANCH  23  24
HETATM   24  C   UNK N   1      26.066  22.986  -7.088  0.00  0.00    -0.020 C 
HETATM   25  C   UNK N   1      25.732  24.110  -8.053  0.00  0.00     0.009 C 
HETATM   26  C   UNK N   1      25.137  21.823  -7.362  0.00  0.00     0.009 C 
ENDBRANCH  23  24
ENDBRANCH   1  23
TORSDOF 12
ENDMDL
MODEL 5
REMARK VINA RESULT:      -5.4      4.451      8.837
REMARK  12 active torsions:
REMARK  status: ('A' for Active; 'I' for Inactive)
REMARK    1  A    between atoms: C_3  and  O_1 
REMARK    2  A    between atoms: C_2  and  C_3 
REMARK    3  A    between atoms: C_2  and  C_16 
REMARK    4  A    between atoms: C_3  and  C_4 
REMARK       I    between atoms: C_4  and  N_6 
REMARK    5  A    between atoms: C_7  and  N_6 
REMARK    6  A    between atoms: C_7  and  C_8 
REMARK    7  A    between atoms: C_7  and  C_19 
REMARK       I    between atoms: C_8  and  N_10 
REMARK    8  A    between atoms: N_10  and  C_11 
REMARK    9  A    between atoms: C_11  and  C_12 
REMARK   10  A    between atoms: C_12  and  C_13 
REMARK   11  A    between atoms: C_16  and  O_18 
REMARK   12  A    between atoms: C_19  and  C_20 
ROOT
HETATM    1  C   UNK N   1      35.496  12.279  11.939  0.00  0.00     0.177 C 
ENDROOT
BRANCH   1   2
HETATM    2  N   UNK N   1      35.048  12.879  10.703  0.00  0.00    -0.346 N 
HETATM    3  C   UNK N   1      34.504  14.111  10.593  0.00  0.00     0.247 C 
HETATM    4  O   UNK N   1      34.106  14.709  11.588  0.00  0.00    -0.271 OA
HETATM    5  H   UNK N   1      35.146  12.350   9.878  0.00  0.00     0.163 HD
BRANCH   3   6
HETATM    6  C   UNK N   1      34.428  14.735   9.233  0.00  0.00     0.219 C 
BRANCH   6   7
HETATM    7  O   UNK N   1      35.730  14.945   8.767  0.00  0.00    -0.386 OA
HETATM    8  H   UNK N   1      36.381  15.415   9.310  0.00  0.00     0.210 HD
ENDBRANCH   6   7
BRANCH   6   9
HETATM    9  C   UNK N   1      33.684  16.067   9.250  0.00  0.00     0.151 C 
BRANCH   9  10
HETATM   10  C   UNK N   1      34.629  17.219   9.128  0.00  0.00     0.142 C 
HETATM   11  O   UNK N   1      34.677  17.848   8.084  0.00  0.00    -0.650 OA
BRANCH  10  12
HETATM   12  O   UNK N   1      35.453  17.541  10.144  0.00  0.00    -0.776 OA
HETATM   13  H   UNK N   1      36.389  17.512  10.112  0.00  0.00     0.167 HD
ENDBRANCH  10  12
ENDBRANCH   9  10
ENDBRANCH   6   9
ENDBRANCH   3   6
ENDBRANCH   1   2
BRANCH   1  14
HETATM   14  C   UNK N   1      36.835  12.900  12.289  0.00  0.00     0.240 C 
HETATM   15  O   UNK N   1      37.769  12.809  11.497  0.00  0.00    -0.271 OA
HETATM   16  N   UNK N   1      37.035  13.568  13.446  0.00  0.00    -0.359 N 
HETATM   17  H   UNK N   1      37.933  13.922  13.642  0.00  0.00     0.162 HD
BRANCH  16  18
HETATM   18  C   UNK N   1      35.981  13.782  14.404  0.00  0.00     0.123 C 
BRANCH  18  19
HETATM   19  C   UNK N   1      36.410  13.249  15.757  0.00  0.00     0.023 C 
BRANCH  19  20
HETATM   20  C   UNK N   1      35.220  12.978  16.659  0.00  0.00    -0.021 C 
HETATM   21  C   UNK N   1      35.290  11.542  17.125  0.00  0.00     0.009 C 
HETATM   22  C   UNK N   1      35.231  13.892  17.870  0.00  0.00     0.009 C 
ENDBRANCH  19  20
ENDBRANCH  18  19
ENDBRANCH  16  18
ENDBRANCH   1  14
BRANCH   1  23
HETATM   23  C   UNK N   1      35.641  10.761  11.766  0.00  0.00     0.038 C 
BRANCH  23  24
HETATM   24  C   UNK N   1      35.099   9.994  12.968  0.00  0.00    -0.020 C 
HETATM   25  C   UNK N   1      33.983  10.792  13.617  0.00  0.00     0.009 C 
HETATM   26  C   UNK N   1      36.195   9.779  13.989  0.00  0.00     0.009 C 
ENDBRANCH  23  24
ENDBRANCH   1  23
TORSDOF 12
ENDMDL
MODEL 6
REMARK VINA RESULT:      -5.4     13.025     15.983
REMARK  12 active torsions:
REMARK  status: ('A' for Active; 'I' for Inactive)
REMARK    1  A    between atoms: C_3  and  O_1 
REMARK    2  A    between atoms: C_2  and  C_3 
REMARK    3  A    between atoms: C_2  and  C_16 
REMARK    4  A    between atoms: C_3  and  C_4 
REMARK       I    between atoms: C_4  and  N_6 
REMARK    5  A    between atoms: C_7  and  N_6 
REMARK    6  A    between atoms: C_7  and  C_8 
REMARK    7  A    between atoms: C_7  and  C_19 
REMARK       I    between atoms: C_8  and  N_10 
REMARK    8  A    between atoms: N_10  and  C_11 
REMARK    9  A    between atoms: C_11  and  C_12 
REMARK   10  A    between atoms: C_12  and  C_13 
REMARK   11  A    between atoms: C_16  and  O_18 
REMARK   12  A    between atoms: C_19  and  C_20 
ROOT
HETATM    1  C   UNK N   1      27.968  25.262  -4.661  0.00  0.00     0.177 C 
ENDROOT
BRANCH   1   2
HETATM    2  N   UNK N   1      28.832  24.157  -4.315  0.00  0.00    -0.346 N 
HETATM    3  C   UNK N   1      29.873  24.228  -3.455  0.00  0.00     0.247 C 
HETATM    4  O   UNK N   1      30.322  25.315  -3.107  0.00  0.00    -0.271 OA
HETATM    5  H   UNK N   1      28.650  23.287  -4.738  0.00  0.00     0.163 HD
BRANCH   3   6
HETATM    6  C   UNK N   1      30.441  22.949  -2.920  0.00  0.00     0.219 C 
BRANCH   6   7
HETATM    7  O   UNK N   1      30.526  23.048  -1.528  0.00  0.00    -0.386 OA
HETATM    8  H   UNK N   1      30.422  22.263  -0.967  0.00  0.00     0.210 HD
ENDBRANCH   6   7
BRANCH   6   9
HETATM    9  C   UNK N   1      31.826  22.651  -3.484  0.00  0.00     0.151 C 
BRANCH   9  10
HETATM   10  C   UNK N   1      32.335  21.329  -3.005  0.00  0.00     0.142 C 
HETATM   11  O   UNK N   1      32.969  21.272  -1.964  0.00  0.00    -0.650 OA
BRANCH  10  12
HETATM   12  O   UNK N   1      32.134  20.212  -3.730  0.00  0.00    -0.776 OA
HETATM   13  H   UNK N   1      32.251  20.140  -4.657  0.00  0.00     0.167 HD
ENDBRANCH  10  12
ENDBRANCH   9  10
ENDBRANCH   6   9
ENDBRANCH   3   6
ENDBRANCH   1   2
BRANCH   1  14
HETATM   14  C   UNK N   1      26.870  25.329  -3.616  0.00  0.00     0.240 C 
HETATM   15  O   UNK N   1      26.307  24.296  -3.266  0.00  0.00    -0.271 OA
HETATM   16  N   UNK N   1      26.497  26.493  -3.041  0.00  0.00    -0.359 N 
HETATM   17  H   UNK N   1      25.755  26.487  -2.394  0.00  0.00     0.162 HD
BRANCH  16  18
HETATM   18  C   UNK N   1      27.147  27.743  -3.340  0.00  0.00     0.123 C 
BRANCH  18  19
HETATM   19  C   UNK N   1      26.103  28.789  -3.680  0.00  0.00     0.023 C 
BRANCH  19  20
HETATM   20  C   UNK N   1      26.603  30.194  -3.404  0.00  0.00    -0.021 C 
HETATM   21  C   UNK N   1      27.656  30.123  -2.322  0.00  0.00     0.009 C 
HETATM   22  C   UNK N   1      27.214  30.813  -4.648  0.00  0.00     0.009 C 
ENDBRANCH  19  20
ENDBRANCH  18  19
ENDBRANCH  16  18
ENDBRANCH   1  14
BRANCH   1  23
HETATM   23  C   UNK N   1      27.365  25.044  -6.055  0.00  0.00     0.038 C 
BRANCH  23  24
HETATM   24  C   UNK N   1      27.047  26.362  -6.755  0.00  0.00    -0.020 C 
HETATM   25  C   UNK N   1      25.555  26.631  -6.672  0.00  0.00     0.009 C 
HETATM   26  C   UNK N   1      27.444  26.290  -8.213  0.00  0.00     0.009 C 
ENDBRANCH  23  24
ENDBRANCH   1  23
TORSDOF 12
ENDMDL
MODEL 7
REMARK VINA RESULT:      -5.3     12.688     15.637
REMARK  12 active torsions:
REMARK  status: ('A' for Active; 'I' for Inactive)
REMARK    1  A    between atoms: C_3  and  O_1 
REMARK    2  A    between atoms: C_2  and  C_3 
REMARK    3  A    between atoms: C_2  and  C_16 
REMARK    4  A    between atoms: C_3  and  C_4 
REMARK       I    between atoms: C_4  and  N_6 
REMARK    5  A    between atoms: C_7  and  N_6 
REMARK    6  A    between atoms: C_7  and  C_8 
REMARK    7  A    between atoms: C_7  and  C_19 
REMARK       I    between atoms: C_8  and  N_10 
REMARK    8  A    between atoms: N_10  and  C_11 
REMARK    9  A    between atoms: C_11  and  C_12 
REMARK   10  A    between atoms: C_12  and  C_13 
REMARK   11  A    between atoms: C_16  and  O_18 
REMARK   12  A    between atoms: C_19  and  C_20 
ROOT
HETATM    1  C   UNK N   1      28.530  25.543  -4.449  0.00  0.00     0.177 C 
ENDROOT
BRANCH   1   2
HETATM    2  N   UNK N   1      29.179  24.599  -3.569  0.00  0.00    -0.346 N 
HETATM    3  C   UNK N   1      28.537  23.725  -2.762  0.00  0.00     0.247 C 
HETATM    4  O   UNK N   1      27.341  23.858  -2.523  0.00  0.00    -0.271 OA
HETATM    5  H   UNK N   1      30.164  24.591  -3.557  0.00  0.00     0.163 HD
BRANCH   3   6
HETATM    6  C   UNK N   1      29.317  22.579  -2.193  0.00  0.00     0.219 C 
BRANCH   6   7
HETATM    7  O   UNK N   1      30.172  23.072  -1.202  0.00  0.00    -0.386 OA
HETATM    8  H   UNK N   1      29.840  23.262  -0.311  0.00  0.00     0.210 HD
ENDBRANCH   6   7
BRANCH   6   9
HETATM    9  C   UNK N   1      30.145  21.861  -3.254  0.00  0.00     0.151 C 
BRANCH   9  10
HETATM   10  C   UNK N   1      31.593  22.218  -3.146  0.00  0.00     0.142 C 
HETATM   11  O   UNK N   1      32.312  21.588  -2.388  0.00  0.00    -0.650 OA
BRANCH  10  12
HETATM   12  O   UNK N   1      32.099  23.251  -3.847  0.00  0.00    -0.776 OA
HETATM   13  H   UNK N   1      31.798  24.137  -3.798  0.00  0.00     0.167 HD
ENDBRANCH  10  12
ENDBRANCH   9  10
ENDBRANCH   6   9
ENDBRANCH   3   6
ENDBRANCH   1   2
BRANCH   1  14
HETATM   14  C   UNK N   1      27.975  24.764  -5.627  0.00  0.00     0.240 C 
HETATM   15  O   UNK N   1      28.732  24.078  -6.308  0.00  0.00    -0.271 OA
HETATM   16  N   UNK N   1      26.662  24.787  -5.947  0.00  0.00    -0.359 N 
HETATM   17  H   UNK N   1      26.358  24.292  -6.743  0.00  0.00     0.162 HD
BRANCH  16  18
HETATM   18  C   UNK N   1      25.691  25.509  -5.167  0.00  0.00     0.123 C 
BRANCH  18  19
HETATM   19  C   UNK N   1      25.372  26.826  -5.846  0.00  0.00     0.023 C 
BRANCH  19  20
HETATM   20  C   UNK N   1      25.575  28.006  -4.914  0.00  0.00    -0.021 C 
HETATM   21  C   UNK N   1      25.745  27.479  -3.507  0.00  0.00     0.009 C 
HETATM   22  C   UNK N   1      26.811  28.800  -5.297  0.00  0.00     0.009 C 
ENDBRANCH  19  20
ENDBRANCH  18  19
ENDBRANCH  16  18
ENDBRANCH   1  14
BRANCH   1  23
HETATM   23  C   UNK N   1      29.539  26.593  -4.933  0.00  0.00     0.038 C 
BRANCH  23  24
HETATM   24  C   UNK N   1      30.485  27.033  -3.820  0.00  0.00    -0.020 C 
HETATM   25  C   UNK N   1      29.980  28.328  -3.208  0.00  0.00     0.009 C 
HETATM   26  C   UNK N   1      31.872  27.271  -4.375  0.00  0.00     0.009 C 
ENDBRANCH  23  24
ENDBRANCH   1  23
TORSDOF 12
ENDMDL
MODEL 8
REMARK VINA RESULT:      -5.3      1.838      4.388
REMARK  12 active torsions:
REMARK  status: ('A' for Active; 'I' for Inactive)
REMARK    1  A    between atoms: C_3  and  O_1 
REMARK    2  A    between atoms: C_2  and  C_3 
REMARK    3  A    between atoms: C_2  and  C_16 
REMARK    4  A    between atoms: C_3  and  C_4 
REMARK       I    between atoms: C_4  and  N_6 
REMARK    5  A    between atoms: C_7  and  N_6 
REMARK    6  A    between atoms: C_7  and  C_8 
REMARK    7  A    between atoms: C_7  and  C_19 
REMARK       I    between atoms: C_8  and  N_10 
REMARK    8  A    between atoms: N_10  and  C_11 
REMARK    9  A    between atoms: C_11  and  C_12 
REMARK   10  A    between atoms: C_12  and  C_13 
REMARK   11  A    between atoms: C_16  and  O_18 
REMARK   12  A    between atoms: C_19  and  C_20 
ROOT
HETATM    1  C   UNK N   1      33.713  15.938   7.795  0.00  0.00     0.177 C 
ENDROOT
BRANCH   1   2
HETATM    2  N   UNK N   1      34.586  15.695   8.921  0.00  0.00    -0.346 N 
HETATM    3  C   UNK N   1      35.085  16.652   9.735  0.00  0.00     0.247 C 
HETATM    4  O   UNK N   1      35.041  17.834   9.408  0.00  0.00    -0.271 OA
HETATM    5  H   UNK N   1      34.837  14.762   9.109  0.00  0.00     0.163 HD
BRANCH   3   6
HETATM    6  C   UNK N   1      35.663  16.233  11.052  0.00  0.00     0.219 C 
BRANCH   6   7
HETATM    7  O   UNK N   1      37.044  16.072  10.900  0.00  0.00    -0.386 OA
HETATM    8  H   UNK N   1      37.566  15.612  11.575  0.00  0.00     0.210 HD
ENDBRANCH   6   7
BRANCH   6   9
HETATM    9  C   UNK N   1      35.061  14.927  11.558  0.00  0.00     0.151 C 
BRANCH   9  10
HETATM   10  C   UNK N   1      36.116  13.888  11.769  0.00  0.00     0.142 C 
HETATM   11  O   UNK N   1      36.633  13.774  12.867  0.00  0.00    -0.650 OA
BRANCH  10  12
HETATM   12  O   UNK N   1      36.524  13.108  10.750  0.00  0.00    -0.776 OA
HETATM   13  H   UNK N   1      37.118  13.368  10.073  0.00  0.00     0.167 HD
ENDBRANCH  10  12
ENDBRANCH   9  10
ENDBRANCH   6   9
ENDBRANCH   3   6
ENDBRANCH   1   2
BRANCH   1  14
HETATM   14  C   UNK N   1      32.327  15.455   8.179  0.00  0.00     0.240 C 
HETATM   15  O   UNK N   1      32.088  14.251   8.188  0.00  0.00    -0.271 OA
HETATM   16  N   UNK N   1      31.341  16.310   8.528  0.00  0.00    -0.359 N 
HETATM   17  H   UNK N   1      30.448  15.948   8.733  0.00  0.00     0.162 HD
BRANCH  16  18
HETATM   18  C   UNK N   1      31.548  17.733   8.609  0.00  0.00     0.123 C 
BRANCH  18  19
HETATM   19  C   UNK N   1      30.234  18.419   8.928  0.00  0.00     0.023 C 
BRANCH  19  20
HETATM   20  C   UNK N   1      29.060  17.730   8.258  0.00  0.00    -0.021 C 
HETATM   21  C   UNK N   1      28.009  17.447   9.307  0.00  0.00     0.009 C 
HETATM   22  C   UNK N   1      28.456  18.607   7.176  0.00  0.00     0.009 C 
ENDBRANCH  19  20
ENDBRANCH  18  19
ENDBRANCH  16  18
ENDBRANCH   1  14
BRANCH   1  23
HETATM   23  C   UNK N   1      34.220  15.179   6.561  0.00  0.00     0.038 C 
BRANCH  23  24
HETATM   24  C   UNK N   1      34.149  16.029   5.297  0.00  0.00    -0.020 C 
HETATM   25  C   UNK N   1      33.671  17.426   5.653  0.00  0.00     0.009 C 
HETATM   26  C   UNK N   1      33.174  15.422   4.311  0.00  0.00     0.009 C 
ENDBRANCH  23  24
ENDBRANCH   1  23
TORSDOF 12
ENDMDL
MODEL 9
REMARK VINA RESULT:      -5.1     13.533     16.933
REMARK  12 active torsions:
REMARK  status: ('A' for Active; 'I' for Inactive)
REMARK    1  A    between atoms: C_3  and  O_1 
REMARK    2  A    between atoms: C_2  and  C_3 
REMARK    3  A    between atoms: C_2  and  C_16 
REMARK    4  A    between atoms: C_3  and  C_4 
REMARK       I    between atoms: C_4  and  N_6 
REMARK    5  A    between atoms: C_7  and  N_6 
REMARK    6  A    between atoms: C_7  and  C_8 
REMARK    7  A    between atoms: C_7  and  C_19 
REMARK       I    between atoms: C_8  and  N_10 
REMARK    8  A    between atoms: N_10  and  C_11 
REMARK    9  A    between atoms: C_11  and  C_12 
REMARK   10  A    between atoms: C_12  and  C_13 
REMARK   11  A    between atoms: C_16  and  O_18 
REMARK   12  A    between atoms: C_19  and  C_20 
ROOT
HETATM    1  C   UNK N   1      28.026  25.175  -4.433  0.00  0.00     0.177 C 
ENDROOT
BRANCH   1   2
HETATM    2  N   UNK N   1      27.162  24.851  -5.546  0.00  0.00    -0.346 N 
HETATM    3  C   UNK N   1      27.573  24.299  -6.709  0.00  0.00     0.247 C 
HETATM    4  O   UNK N   1      28.764  24.278  -7.004  0.00  0.00    -0.271 OA
HETATM    5  H   UNK N   1      26.203  25.048  -5.450  0.00  0.00     0.163 HD
BRANCH   3   6
HETATM    6  C   UNK N   1      26.542  23.691  -7.610  0.00  0.00     0.219 C 
BRANCH   6   7
HETATM    7  O   UNK N   1      25.339  24.384  -7.439  0.00  0.00    -0.386 OA
HETATM    8  H   UNK N   1      24.851  24.726  -8.204  0.00  0.00     0.210 HD
ENDBRANCH   6   7
BRANCH   6   9
HETATM    9  C   UNK N   1      26.313  22.213  -7.310  0.00  0.00     0.151 C 
BRANCH   9  10
HETATM   10  C   UNK N   1      24.929  21.790  -7.689  0.00  0.00     0.142 C 
HETATM   11  O   UNK N   1      24.113  21.557  -6.814  0.00  0.00    -0.650 OA
BRANCH  10  12
HETATM   12  O   UNK N   1      24.592  21.628  -8.983  0.00  0.00    -0.776 OA
HETATM   13  H   UNK N   1      25.123  21.872  -9.715  0.00  0.00     0.167 HD
ENDBRANCH  10  12
ENDBRANCH   9  10
ENDBRANCH   6   9
ENDBRANCH   3   6
ENDBRANCH   1   2
BRANCH   1  14
HETATM   14  C   UNK N   1      27.686  24.225  -3.299  0.00  0.00     0.240 C 
HETATM   15  O   UNK N   1      26.539  24.192  -2.863  0.00  0.00    -0.271 OA
HETATM   16  N   UNK N   1      28.606  23.397  -2.758  0.00  0.00    -0.359 N 
HETATM   17  H   UNK N   1      28.343  22.825  -2.000  0.00  0.00     0.162 HD
BRANCH  16  18
HETATM   18  C   UNK N   1      29.957  23.319  -3.250  0.00  0.00     0.123 C 
BRANCH  18  19
HETATM   19  C   UNK N   1      30.078  22.161  -4.220  0.00  0.00     0.023 C 
BRANCH  19  20
HETATM   20  C   UNK N   1      31.488  21.601  -4.256  0.00  0.00    -0.021 C 
HETATM   21  C   UNK N   1      32.078  21.703  -2.867  0.00  0.00     0.009 C 
HETATM   22  C   UNK N   1      31.488  20.145  -4.687  0.00  0.00     0.009 C 
ENDBRANCH  19  20
ENDBRANCH  18  19
ENDBRANCH  16  18
ENDBRANCH   1  14
BRANCH   1  23
HETATM   23  C   UNK N   1      27.800  26.629  -3.996  0.00  0.00     0.038 C 
BRANCH  23  24
HETATM   24  C   UNK N   1      26.587  27.251  -4.681  0.00  0.00    -0.020 C 
HETATM   25  C   UNK N   1      27.041  28.382  -5.585  0.00  0.00     0.009 C 
HETATM   26  C   UNK N   1      25.633  27.811  -3.648  0.00  0.00     0.009 C 
ENDBRANCH  23  24
ENDBRANCH   1  23
TORSDOF 12
ENDMDL
