MODEL 1
REMARK VINA RESULT:      -8.5      0.000      0.000
REMARK  4 active torsions:
REMARK  status: ('A' for Active; 'I' for Inactive)
REMARK    1  A    between atoms: C_7  and  C_10 
REMARK       I    between atoms: N_16  and  C_20 
REMARK    2  A    between atoms: C_20  and  C_22 
REMARK    3  A    between atoms: C_24  and  O_25 
REMARK    4  A    between atoms: C_26  and  O_27 
ROOT
HETATM    1  C   UNK N   1      33.006  16.830   7.752  0.00  0.00    -0.010 A 
HETATM    2  C   UNK N   1      33.427  17.056   6.436  0.00  0.00     0.023 A 
HETATM    3  C   UNK N   1      32.502  17.219   5.410  0.00  0.00    -0.030 A 
HETATM    4  C   UNK N   1      31.118  17.177   5.691  0.00  0.00     0.043 A 
HETATM    5  C   UNK N   1      30.691  17.052   7.024  0.00  0.00     0.031 A 
HETATM    6  C   UNK N   1      31.631  16.865   8.044  0.00  0.00     0.016 A 
HETATM    7  N   UNK N   1      30.211  16.966   4.615  0.00  0.00    -0.317 N 
HETATM    8  C   UNK N   1      30.765  16.393   3.403  0.00  0.00     0.132 C 
HETATM    9  C   UNK N   1      31.888  17.305   2.942  0.00  0.00     0.025 C 
HETATM   10  C   UNK N   1      33.006  17.284   3.988  0.00  0.00     0.042 C 
HETATM   11  C   UNK N   1      28.857  17.085   4.698  0.00  0.00     0.235 C 
HETATM   12  O   UNK N   1      28.162  16.483   3.891  0.00  0.00    -0.272 OA
ENDROOT
BRANCH  11  13
HETATM   13  C   UNK N   1      28.200  18.175   5.468  0.00  0.00     0.126 C 
HETATM   14  C   UNK N   1      26.858  17.844   5.721  0.00  0.00     0.031 C 
HETATM   15  C   UNK N   1      25.836  18.298   4.884  0.00  0.00     0.098 C 
HETATM   16  C   UNK N   1      26.160  19.203   3.843  0.00  0.00     0.101 C 
HETATM   17  C   UNK N   1      27.439  19.790   3.835  0.00  0.00     0.036 C 
HETATM   18  C   UNK N   1      28.423  19.341   4.721  0.00  0.00    -0.006 C 
BRANCH  15  19
HETATM   19  O   UNK N   1      24.605  17.750   5.056  0.00  0.00    -0.353 OA
HETATM   20  C   UNK N   1      24.292  16.422   4.882  0.00  0.00     0.210 C 
ENDBRANCH  15  19
BRANCH  16  21
HETATM   21  O   UNK N   1      25.262  19.490   2.870  0.00  0.00    -0.353 OA
HETATM   22  C   UNK N   1      24.338  20.507   2.989  0.00  0.00     0.210 C 
ENDBRANCH  16  21
ENDBRANCH  11  13
BRANCH   1  23
HETATM   23  C   UNK N   1      33.989  16.386   8.784  0.00  0.00     0.050 C 
HETATM   24  N   UNK N   1      34.196  17.172   9.790  0.00  0.00    -0.300 N 
HETATM   25  N   UNK N   1      34.917  16.858  10.924  0.00  0.00    -0.261 N 
ATOM     26  HN  UNK N   1      33.791  18.106   9.742  1.00  0.00     0.186 HD
HETATM   27  C   UNK N   1      35.692  15.764  11.075  0.00  0.00     0.298 C 
HETATM   28  H   UNK N   1      34.862  17.483  11.682  0.00  0.00     0.190 HD
HETATM   29  S   UNK N   1      36.029  14.641   9.733  0.00  0.00    -0.057 SA
HETATM   30  O   UNK N   1      36.226  15.561  12.152  0.00  0.00    -0.259 OA
HETATM   31  C   UNK N   1      34.583  14.989   8.691  0.00  0.00     0.105 C 
HETATM   32  C   UNK N   1      33.532  13.911   8.898  0.00  0.00     0.028 C 
ENDBRANCH   1  23
TORSDOF 4
ENDMDL
MODEL 2
REMARK VINA RESULT:      -8.1      3.358      9.084
REMARK  4 active torsions:
REMARK  status: ('A' for Active; 'I' for Inactive)
REMARK    1  A    between atoms: C_7  and  C_10 
REMARK       I    between atoms: N_16  and  C_20 
REMARK    2  A    between atoms: C_20  and  C_22 
REMARK    3  A    between atoms: C_24  and  O_25 
REMARK    4  A    between atoms: C_26  and  O_27 
ROOT
HETATM    1  C   UNK N   1      28.233  17.444   5.088  0.00  0.00    -0.010 A 
HETATM    2  C   UNK N   1      29.054  17.042   4.027  0.00  0.00     0.023 A 
HETATM    3  C   UNK N   1      30.422  16.871   4.212  0.00  0.00    -0.030 A 
HETATM    4  C   UNK N   1      30.998  17.083   5.484  0.00  0.00     0.043 A 
HETATM    5  C   UNK N   1      30.164  17.386   6.573  0.00  0.00     0.031 A 
HETATM    6  C   UNK N   1      28.793  17.579   6.371  0.00  0.00     0.016 A 
HETATM    7  N   UNK N   1      32.405  17.275   5.571  0.00  0.00    -0.317 N 
HETATM    8  C   UNK N   1      33.084  17.663   4.348  0.00  0.00     0.132 C 
HETATM    9  C   UNK N   1      32.785  16.598   3.308  0.00  0.00     0.025 C 
HETATM   10  C   UNK N   1      31.285  16.611   3.000  0.00  0.00     0.042 C 
HETATM   11  C   UNK N   1      33.121  17.305   6.729  0.00  0.00     0.235 C 
HETATM   12  O   UNK N   1      34.196  17.890   6.743  0.00  0.00    -0.272 OA
ENDROOT
BRANCH  11  13
HETATM   13  C   UNK N   1      32.850  16.372   7.856  0.00  0.00     0.126 C 
HETATM   14  C   UNK N   1      33.694  16.668   8.939  0.00  0.00     0.031 C 
HETATM   15  C   UNK N   1      34.896  15.980   9.122  0.00  0.00     0.098 C 
HETATM   16  C   UNK N   1      35.194  14.891   8.266  0.00  0.00     0.101 C 
HETATM   17  C   UNK N   1      34.178  14.396   7.428  0.00  0.00     0.036 C 
HETATM   18  C   UNK N   1      32.968  15.086   7.307  0.00  0.00    -0.006 C 
BRANCH  15  19
HETATM   19  O   UNK N   1      35.759  16.476  10.046  0.00  0.00    -0.353 OA
HETATM   20  C   UNK N   1      35.922  15.993  11.324  0.00  0.00     0.210 C 
ENDBRANCH  15  19
BRANCH  16  21
HETATM   21  O   UNK N   1      36.433  14.343   8.248  0.00  0.00    -0.353 OA
HETATM   22  C   UNK N   1      36.740  13.180   8.921  0.00  0.00     0.210 C 
ENDBRANCH  16  21
ENDBRANCH  11  13
BRANCH   1  23
HETATM   23  C   UNK N   1      26.833  17.887   4.821  0.00  0.00     0.050 C 
HETATM   24  N   UNK N   1      25.876  17.210   5.368  0.00  0.00    -0.300 N 
HETATM   25  N   UNK N   1      24.544  17.570   5.391  0.00  0.00    -0.261 N 
ATOM     26  HN  UNK N   1      26.128  16.332   5.822  1.00  0.00     0.186 HD
HETATM   27  C   UNK N   1      23.996  18.572   4.673  0.00  0.00     0.298 C 
HETATM   28  H   UNK N   1      23.946  17.053   5.978  0.00  0.00     0.190 HD
HETATM   29  S   UNK N   1      24.914  19.475   3.441  0.00  0.00    -0.057 SA
HETATM   30  O   UNK N   1      22.817  18.838   4.832  0.00  0.00    -0.259 OA
HETATM   31  C   UNK N   1      26.597  19.180   4.056  0.00  0.00     0.105 C 
HETATM   32  C   UNK N   1      27.077  20.395   4.833  0.00  0.00     0.028 C 
ENDBRANCH   1  23
TORSDOF 4
ENDMDL
MODEL 3
REMARK VINA RESULT:      -7.8      3.330      9.065
REMARK  4 active torsions:
REMARK  status: ('A' for Active; 'I' for Inactive)
REMARK    1  A    between atoms: C_7  and  C_10 
REMARK       I    between atoms: N_16  and  C_20 
REMARK    2  A    between atoms: C_20  and  C_22 
REMARK    3  A    between atoms: C_24  and  O_25 
REMARK    4  A    between atoms: C_26  and  O_27 
ROOT
HETATM    1  C   UNK N   1      28.501  17.908   4.659  0.00  0.00    -0.010 A 
HETATM    2  C   UNK N   1      29.460  17.488   3.729  0.00  0.00     0.023 A 
HETATM    3  C   UNK N   1      30.709  17.041   4.148  0.00  0.00    -0.030 A 
HETATM    4  C   UNK N   1      31.017  16.987   5.526  0.00  0.00     0.043 A 
HETATM    5  C   UNK N   1      30.023  17.310   6.465  0.00  0.00     0.031 A 
HETATM    6  C   UNK N   1      28.779  17.781   6.031  0.00  0.00     0.016 A 
HETATM    7  N   UNK N   1      32.383  16.898   5.915  0.00  0.00    -0.317 N 
HETATM    8  C   UNK N   1      33.367  17.293   4.924  0.00  0.00     0.132 C 
HETATM    9  C   UNK N   1      33.138  16.436   3.692  0.00  0.00     0.025 C 
HETATM   10  C   UNK N   1      31.764  16.769   3.103  0.00  0.00     0.042 C 
HETATM   11  C   UNK N   1      32.822  16.653   7.180  0.00  0.00     0.235 C 
HETATM   12  O   UNK N   1      33.946  17.018   7.495  0.00  0.00    -0.272 OA
ENDROOT
BRANCH  11  13
HETATM   13  C   UNK N   1      32.164  15.661   8.072  0.00  0.00     0.126 C 
HETATM   14  C   UNK N   1      32.719  15.730   9.361  0.00  0.00     0.031 C 
HETATM   15  C   UNK N   1      33.750  14.868   9.747  0.00  0.00     0.098 C 
HETATM   16  C   UNK N   1      34.143  13.837   8.858  0.00  0.00     0.101 C 
HETATM   17  C   UNK N   1      33.337  13.572   7.736  0.00  0.00     0.036 C 
HETATM   18  C   UNK N   1      32.284  14.431   7.407  0.00  0.00    -0.006 C 
BRANCH  15  19
HETATM   19  O   UNK N   1      34.385  15.147  10.913  0.00  0.00    -0.353 OA
HETATM   20  C   UNK N   1      35.247  16.199  11.120  0.00  0.00     0.210 C 
ENDBRANCH  15  19
BRANCH  16  21
HETATM   21  O   UNK N   1      35.276  13.129   9.078  0.00  0.00    -0.353 OA
HETATM   22  C   UNK N   1      35.276  11.908   9.719  0.00  0.00     0.210 C 
ENDBRANCH  16  21
ENDBRANCH  11  13
BRANCH   1  23
HETATM   23  C   UNK N   1      27.283  18.637   4.196  0.00  0.00     0.050 C 
HETATM   24  N   UNK N   1      27.448  19.812   3.679  0.00  0.00    -0.300 N 
HETATM   25  N   UNK N   1      26.481  20.552   3.033  0.00  0.00    -0.261 N 
ATOM     26  HN  UNK N   1      28.377  20.227   3.756  1.00  0.00     0.186 HD
HETATM   27  C   UNK N   1      25.162  20.266   3.018  0.00  0.00     0.298 C 
HETATM   28  H   UNK N   1      26.776  21.355   2.545  0.00  0.00     0.190 HD
HETATM   29  S   UNK N   1      24.461  18.954   3.999  0.00  0.00    -0.057 SA
HETATM   30  O   UNK N   1      24.413  20.960   2.352  0.00  0.00    -0.259 OA
HETATM   31  C   UNK N   1      25.940  17.924   4.210  0.00  0.00     0.105 C 
HETATM   32  C   UNK N   1      25.902  16.766   3.226  0.00  0.00     0.028 C 
ENDBRANCH   1  23
TORSDOF 4
ENDMDL
MODEL 4
REMARK VINA RESULT:      -7.4      2.086      3.277
REMARK  4 active torsions:
REMARK  status: ('A' for Active; 'I' for Inactive)
REMARK    1  A    between atoms: C_7  and  C_10 
REMARK       I    between atoms: N_16  and  C_20 
REMARK    2  A    between atoms: C_20  and  C_22 
REMARK    3  A    between atoms: C_24  and  O_25 
REMARK    4  A    between atoms: C_26  and  O_27 
ROOT
HETATM    1  C   UNK N   1      31.687  16.500   8.045  0.00  0.00    -0.010 A 
HETATM    2  C   UNK N   1      30.831  17.488   8.547  0.00  0.00     0.023 A 
HETATM    3  C   UNK N   1      29.682  17.851   7.853  0.00  0.00    -0.030 A 
HETATM    4  C   UNK N   1      29.353  17.209   6.639  0.00  0.00     0.043 A 
HETATM    5  C   UNK N   1      30.154  16.148   6.185  0.00  0.00     0.031 A 
HETATM    6  C   UNK N   1      31.321  15.807   6.878  0.00  0.00     0.016 A 
HETATM    7  N   UNK N   1      28.414  17.833   5.771  0.00  0.00    -0.317 N 
HETATM    8  C   UNK N   1      28.186  19.252   5.974  0.00  0.00     0.132 C 
HETATM    9  C   UNK N   1      27.741  19.437   7.414  0.00  0.00     0.025 C 
HETATM   10  C   UNK N   1      28.890  19.040   8.345  0.00  0.00     0.042 C 
HETATM   11  C   UNK N   1      27.863  17.256   4.668  0.00  0.00     0.235 C 
HETATM   12  O   UNK N   1      27.435  17.976   3.777  0.00  0.00    -0.272 OA
ENDROOT
BRANCH  11  13
HETATM   13  C   UNK N   1      27.429  15.833   4.649  0.00  0.00     0.126 C 
HETATM   14  C   UNK N   1      26.965  15.489   3.367  0.00  0.00     0.031 C 
HETATM   15  C   UNK N   1      25.604  15.543   3.058  0.00  0.00     0.098 C 
HETATM   16  C   UNK N   1      24.681  15.831   4.094  0.00  0.00     0.101 C 
HETATM   17  C   UNK N   1      25.138  15.818   5.425  0.00  0.00     0.036 C 
HETATM   18  C   UNK N   1      26.505  15.715   5.698  0.00  0.00    -0.006 C 
BRANCH  15  19
HETATM   19  O   UNK N   1      25.261  15.422   1.750  0.00  0.00    -0.353 OA
HETATM   20  C   UNK N   1      24.644  14.330   1.184  0.00  0.00     0.210 C 
ENDBRANCH  15  19
BRANCH  16  21
HETATM   21  O   UNK N   1      23.389  16.121   3.810  0.00  0.00    -0.353 OA
HETATM   22  C   UNK N   1      22.358  15.241   4.060  0.00  0.00     0.210 C 
ENDBRANCH  16  21
ENDBRANCH  11  13
BRANCH   1  23
HETATM   23  C   UNK N   1      33.042  16.313   8.645  0.00  0.00     0.050 C 
HETATM   24  N   UNK N   1      33.496  17.257   9.405  0.00  0.00    -0.300 N 
HETATM   25  N   UNK N   1      34.629  17.187  10.187  0.00  0.00    -0.261 N 
ATOM     26  HN  UNK N   1      32.968  18.129   9.428  1.00  0.00     0.186 HD
HETATM   27  C   UNK N   1      35.557  16.209  10.128  0.00  0.00     0.298 C 
HETATM   28  H   UNK N   1      34.773  17.910  10.840  0.00  0.00     0.190 HD
HETATM   29  S   UNK N   1      35.524  14.938   8.881  0.00  0.00    -0.057 SA
HETATM   30  O   UNK N   1      36.483  16.223  10.922  0.00  0.00    -0.259 OA
HETATM   31  C   UNK N   1      33.757  14.983   8.464  0.00  0.00     0.105 C 
HETATM   32  C   UNK N   1      33.035  13.850   9.174  0.00  0.00     0.028 C 
ENDBRANCH   1  23
TORSDOF 4
ENDMDL
MODEL 5
REMARK VINA RESULT:      -7.4      4.457      9.464
REMARK  4 active torsions:
REMARK  status: ('A' for Active; 'I' for Inactive)
REMARK    1  A    between atoms: C_7  and  C_10 
REMARK       I    between atoms: N_16  and  C_20 
REMARK    2  A    between atoms: C_20  and  C_22 
REMARK    3  A    between atoms: C_24  and  O_25 
REMARK    4  A    between atoms: C_26  and  O_27 
ROOT
HETATM    1  C   UNK N   1      25.942  15.876   2.868  0.00  0.00    -0.010 A 
HETATM    2  C   UNK N   1      26.039  17.262   3.040  0.00  0.00     0.023 A 
HETATM    3  C   UNK N   1      27.053  17.814   3.815  0.00  0.00    -0.030 A 
HETATM    4  C   UNK N   1      28.014  16.978   4.425  0.00  0.00     0.043 A 
HETATM    5  C   UNK N   1      27.981  15.596   4.172  0.00  0.00     0.031 A 
HETATM    6  C   UNK N   1      26.942  15.050   3.410  0.00  0.00     0.016 A 
HETATM    7  N   UNK N   1      28.793  17.503   5.494  0.00  0.00    -0.317 N 
HETATM    8  C   UNK N   1      28.270  18.682   6.159  0.00  0.00     0.132 C 
HETATM    9  C   UNK N   1      28.084  19.754   5.099  0.00  0.00     0.025 C 
HETATM   10  C   UNK N   1      27.008  19.295   4.112  0.00  0.00     0.042 C 
HETATM   11  C   UNK N   1      29.872  16.889   6.051  0.00  0.00     0.235 C 
HETATM   12  O   UNK N   1      30.192  17.181   7.195  0.00  0.00    -0.272 OA
ENDROOT
BRANCH  11  13
HETATM   13  C   UNK N   1      30.885  16.166   5.235  0.00  0.00     0.126 C 
HETATM   14  C   UNK N   1      31.688  15.365   6.064  0.00  0.00     0.031 C 
HETATM   15  C   UNK N   1      32.917  15.830   6.540  0.00  0.00     0.098 C 
HETATM   16  C   UNK N   1      33.401  17.077   6.071  0.00  0.00     0.101 C 
HETATM   17  C   UNK N   1      32.752  17.684   4.981  0.00  0.00     0.036 C 
HETATM   18  C   UNK N   1      31.547  17.163   4.501  0.00  0.00    -0.006 C 
BRANCH  15  19
HETATM   19  O   UNK N   1      33.521  15.099   7.512  0.00  0.00    -0.353 OA
HETATM   20  C   UNK N   1      32.871  14.360   8.473  0.00  0.00     0.210 C 
ENDBRANCH  15  19
BRANCH  16  21
HETATM   21  O   UNK N   1      34.460  17.676   6.666  0.00  0.00    -0.353 OA
HETATM   22  C   UNK N   1      34.383  18.247   7.919  0.00  0.00     0.210 C 
ENDBRANCH  16  21
ENDBRANCH  11  13
BRANCH   1  23
HETATM   23  C   UNK N   1      24.708  15.282   2.273  0.00  0.00     0.050 C 
HETATM   24  N   UNK N   1      24.826  14.667   1.141  0.00  0.00    -0.300 N 
HETATM   25  N   UNK N   1      23.852  13.903   0.533  0.00  0.00    -0.261 N 
ATOM     26  HN  UNK N   1      25.719  14.754   0.655  1.00  0.00     0.186 HD
HETATM   27  C   UNK N   1      22.559  13.845   0.913  0.00  0.00     0.298 C 
HETATM   28  H   UNK N   1      24.122  13.358  -0.242  0.00  0.00     0.190 HD
HETATM   29  S   UNK N   1      21.888  14.906   2.178  0.00  0.00    -0.057 SA
HETATM   30  O   UNK N   1      21.806  13.078   0.336  0.00  0.00    -0.259 OA
HETATM   31  C   UNK N   1      23.418  15.292   3.077  0.00  0.00     0.105 C 
HETATM   32  C   UNK N   1      23.515  14.420   4.318  0.00  0.00     0.028 C 
ENDBRANCH   1  23
TORSDOF 4
ENDMDL
MODEL 6
REMARK VINA RESULT:      -7.1      4.128      6.097
REMARK  4 active torsions:
REMARK  status: ('A' for Active; 'I' for Inactive)
REMARK    1  A    between atoms: C_7  and  C_10 
REMARK       I    between atoms: N_16  and  C_20 
REMARK    2  A    between atoms: C_20  and  C_22 
REMARK    3  A    between atoms: C_24  and  O_25 
REMARK    4  A    between atoms: C_26  and  O_27 
ROOT
HETATM    1  C   UNK N   1      28.925  16.812   4.134  0.00  0.00    -0.010 A 
HETATM    2  C   UNK N   1      28.900  18.053   4.783  0.00  0.00     0.023 A 
HETATM    3  C   UNK N   1      27.706  18.746   4.946  0.00  0.00    -0.030 A 
HETATM    4  C   UNK N   1      26.495  18.194   4.473  0.00  0.00     0.043 A 
HETATM    5  C   UNK N   1      26.501  16.905   3.913  0.00  0.00     0.031 A 
HETATM    6  C   UNK N   1      27.712  16.228   3.732  0.00  0.00     0.016 A 
HETATM    7  N   UNK N   1      25.374  19.054   4.304  0.00  0.00    -0.317 N 
HETATM    8  C   UNK N   1      25.654  20.475   4.217  0.00  0.00     0.132 C 
HETATM    9  C   UNK N   1      26.404  20.868   5.477  0.00  0.00     0.025 C 
HETATM   10  C   UNK N   1      27.759  20.153   5.492  0.00  0.00     0.042 C 
HETATM   11  C   UNK N   1      24.104  18.642   4.038  0.00  0.00     0.235 C 
HETATM   12  O   UNK N   1      23.333  19.421   3.494  0.00  0.00    -0.272 OA
ENDROOT
BRANCH  11  13
HETATM   13  C   UNK N   1      23.503  17.447   4.689  0.00  0.00     0.126 C 
HETATM   14  C   UNK N   1      23.025  16.557   3.713  0.00  0.00     0.031 C 
HETATM   15  C   UNK N   1      21.685  16.578   3.316  0.00  0.00     0.098 C 
HETATM   16  C   UNK N   1      20.785  17.430   4.002  0.00  0.00     0.101 C 
HETATM   17  C   UNK N   1      21.212  18.039   5.196  0.00  0.00     0.036 C 
HETATM   18  C   UNK N   1      22.552  17.956   5.587  0.00  0.00    -0.006 C 
BRANCH  15  19
HETATM   19  O   UNK N   1      21.355  15.855   2.215  0.00  0.00    -0.353 OA
HETATM   20  C   UNK N   1      22.160  14.923   1.603  0.00  0.00     0.210 C 
ENDBRANCH  15  19
BRANCH  16  21
HETATM   21  O   UNK N   1      19.542  17.660   3.515  0.00  0.00    -0.353 OA
HETATM   22  C   UNK N   1      19.266  18.691   2.642  0.00  0.00     0.210 C 
ENDBRANCH  16  21
ENDBRANCH  11  13
BRANCH   1  23
HETATM   23  C   UNK N   1      30.229  16.212   3.723  0.00  0.00     0.050 C 
HETATM   24  N   UNK N   1      31.004  16.923   2.968  0.00  0.00    -0.300 N 
HETATM   25  N   UNK N   1      32.310  16.621   2.642  0.00  0.00    -0.261 N 
ATOM     26  HN  UNK N   1      30.615  17.782   2.580  1.00  0.00     0.186 HD
HETATM   27  C   UNK N   1      32.920  15.442   2.883  0.00  0.00     0.298 C 
HETATM   28  H   UNK N   1      32.838  17.322   2.196  0.00  0.00     0.190 HD
HETATM   29  S   UNK N   1      32.042  14.027   3.518  0.00  0.00    -0.057 SA
HETATM   30  O   UNK N   1      34.102  15.320   2.608  0.00  0.00    -0.259 OA
HETATM   31  C   UNK N   1      30.654  14.879   4.318  0.00  0.00     0.105 C 
HETATM   32  C   UNK N   1      30.910  14.981   5.813  0.00  0.00     0.028 C 
ENDBRANCH   1  23
TORSDOF 4
ENDMDL
MODEL 7
REMARK VINA RESULT:      -7.0      4.575      9.668
REMARK  4 active torsions:
REMARK  status: ('A' for Active; 'I' for Inactive)
REMARK    1  A    between atoms: C_7  and  C_10 
REMARK       I    between atoms: N_16  and  C_20 
REMARK    2  A    between atoms: C_20  and  C_22 
REMARK    3  A    between atoms: C_24  and  O_25 
REMARK    4  A    between atoms: C_26  and  O_27 
ROOT
HETATM    1  C   UNK N   1      24.571  17.120   4.128  0.00  0.00    -0.010 A 
HETATM    2  C   UNK N   1      24.961  18.464   4.173  0.00  0.00     0.023 A 
HETATM    3  C   UNK N   1      26.192  18.830   4.705  0.00  0.00    -0.030 A 
HETATM    4  C   UNK N   1      27.077  17.842   5.192  0.00  0.00     0.043 A 
HETATM    5  C   UNK N   1      26.733  16.487   5.056  0.00  0.00     0.031 A 
HETATM    6  C   UNK N   1      25.482  16.132   4.540  0.00  0.00     0.016 A 
HETATM    7  N   UNK N   1      28.133  18.240   6.058  0.00  0.00    -0.317 N 
HETATM    8  C   UNK N   1      27.984  19.526   6.715  0.00  0.00     0.132 C 
HETATM    9  C   UNK N   1      27.803  20.571   5.629  0.00  0.00     0.025 C 
HETATM   10  C   UNK N   1      26.488  20.300   4.892  0.00  0.00     0.042 C 
HETATM   11  C   UNK N   1      29.164  17.443   6.454  0.00  0.00     0.235 C 
HETATM   12  O   UNK N   1      29.748  17.709   7.495  0.00  0.00    -0.272 OA
ENDROOT
BRANCH  11  13
HETATM   13  C   UNK N   1      29.842  16.501   5.525  0.00  0.00     0.126 C 
HETATM   14  C   UNK N   1      30.594  15.564   6.254  0.00  0.00     0.031 C 
HETATM   15  C   UNK N   1      31.957  15.762   6.488  0.00  0.00     0.098 C 
HETATM   16  C   UNK N   1      32.600  16.864   5.872  0.00  0.00     0.101 C 
HETATM   17  C   UNK N   1      31.911  17.573   4.872  0.00  0.00     0.036 C 
HETATM   18  C   UNK N   1      30.558  17.314   4.632  0.00  0.00    -0.006 C 
BRANCH  15  19
HETATM   19  O   UNK N   1      32.556  14.940   7.388  0.00  0.00    -0.353 OA
HETATM   20  C   UNK N   1      32.323  14.937   8.743  0.00  0.00     0.210 C 
ENDBRANCH  15  19
BRANCH  16  21
HETATM   21  O   UNK N   1      33.850  17.233   6.245  0.00  0.00    -0.353 OA
HETATM   22  C   UNK N   1      34.103  17.927   7.408  0.00  0.00     0.210 C 
ENDBRANCH  16  21
ENDBRANCH  11  13
BRANCH   1  23
HETATM   23  C   UNK N   1      23.156  16.764   3.815  0.00  0.00     0.050 C 
HETATM   24  N   UNK N   1      22.941  15.641   3.209  0.00  0.00    -0.300 N 
HETATM   25  N   UNK N   1      21.707  15.059   3.003  0.00  0.00    -0.261 N 
ATOM     26  HN  UNK N   1      23.755  15.143   2.851  1.00  0.00     0.186 HD
HETATM   27  C   UNK N   1      20.518  15.660   3.214  0.00  0.00     0.298 C 
HETATM   28  H   UNK N   1      21.694  14.131   2.675  0.00  0.00     0.190 HD
HETATM   29  S   UNK N   1      20.384  17.387   3.633  0.00  0.00    -0.057 SA
HETATM   30  O   UNK N   1      19.494  15.016   3.061  0.00  0.00    -0.259 OA
HETATM   31  C   UNK N   1      22.034  17.644   4.344  0.00  0.00     0.105 C 
HETATM   32  C   UNK N   1      21.950  17.604   5.861  0.00  0.00     0.028 C 
ENDBRANCH   1  23
TORSDOF 4
ENDMDL
MODEL 8
REMARK VINA RESULT:      -6.9      4.901      9.986
REMARK  4 active torsions:
REMARK  status: ('A' for Active; 'I' for Inactive)
REMARK    1  A    between atoms: C_7  and  C_10 
REMARK       I    between atoms: N_16  and  C_20 
REMARK    2  A    between atoms: C_20  and  C_22 
REMARK    3  A    between atoms: C_24  and  O_25 
REMARK    4  A    between atoms: C_26  and  O_27 
ROOT
HETATM    1  C   UNK N   1      23.154  16.732   4.750  0.00  0.00    -0.010 A 
HETATM    2  C   UNK N   1      23.437  17.933   4.088  0.00  0.00     0.023 A 
HETATM    3  C   UNK N   1      24.700  18.510   4.170  0.00  0.00    -0.030 A 
HETATM    4  C   UNK N   1      25.722  17.877   4.911  0.00  0.00     0.043 A 
HETATM    5  C   UNK N   1      25.473  16.622   5.492  0.00  0.00     0.031 A 
HETATM    6  C   UNK N   1      24.192  16.063   5.422  0.00  0.00     0.016 A 
HETATM    7  N   UNK N   1      26.859  18.642   5.296  0.00  0.00    -0.317 N 
HETATM    8  C   UNK N   1      26.704  20.085   5.281  0.00  0.00     0.132 C 
HETATM    9  C   UNK N   1      26.283  20.481   3.877  0.00  0.00     0.025 C 
HETATM   10  C   UNK N   1      24.901  19.889   3.587  0.00  0.00     0.042 C 
HETATM   11  C   UNK N   1      27.997  18.133   5.844  0.00  0.00     0.235 C 
HETATM   12  O   UNK N   1      28.704  18.866   6.520  0.00  0.00    -0.272 OA
ENDROOT
BRANCH  11  13
HETATM   13  C   UNK N   1      28.606  16.861   5.372  0.00  0.00     0.126 C 
HETATM   14  C   UNK N   1      29.287  16.233   6.428  0.00  0.00     0.031 C 
HETATM   15  C   UNK N   1      30.661  16.415   6.606  0.00  0.00     0.098 C 
HETATM   16  C   UNK N   1      31.383  17.145   5.629  0.00  0.00     0.101 C 
HETATM   17  C   UNK N   1      30.746  17.454   4.413  0.00  0.00     0.036 C 
HETATM   18  C   UNK N   1      29.378  17.213   4.255  0.00  0.00    -0.006 C 
BRANCH  15  19
HETATM   19  O   UNK N   1      31.199  15.970   7.770  0.00  0.00    -0.353 OA
HETATM   20  C   UNK N   1      31.174  16.644   8.969  0.00  0.00     0.210 C 
ENDBRANCH  15  19
BRANCH  16  21
HETATM   21  O   UNK N   1      32.655  17.546   5.865  0.00  0.00    -0.353 OA
HETATM   22  C   UNK N   1      33.751  16.832   5.430  0.00  0.00     0.210 C 
ENDBRANCH  16  21
ENDBRANCH  11  13
BRANCH   1  23
HETATM   23  C   UNK N   1      21.741  16.269   4.884  0.00  0.00     0.050 C 
HETATM   24  N   UNK N   1      21.100  16.605   5.956  0.00  0.00    -0.300 N 
HETATM   25  N   UNK N   1      19.749  16.434   6.175  0.00  0.00    -0.261 N 
ATOM     26  HN  UNK N   1      21.642  17.034   6.707  1.00  0.00     0.186 HD
HETATM   27  C   UNK N   1      18.921  15.705   5.399  0.00  0.00     0.298 C 
HETATM   28  H   UNK N   1      19.359  16.878   6.963  0.00  0.00     0.190 HD
HETATM   29  S   UNK N   1      19.515  14.704   4.049  0.00  0.00    -0.057 SA
HETATM   30  O   UNK N   1      17.730  15.686   5.658  0.00  0.00    -0.259 OA
HETATM   31  C   UNK N   1      21.076  15.565   3.711  0.00  0.00     0.105 C 
HETATM   32  C   UNK N   1      20.902  16.491   2.519  0.00  0.00     0.028 C 
ENDBRANCH   1  23
TORSDOF 4
ENDMDL
MODEL 9
REMARK VINA RESULT:      -6.9     12.208     14.971
REMARK  4 active torsions:
REMARK  status: ('A' for Active; 'I' for Inactive)
REMARK    1  A    between atoms: C_7  and  C_10 
REMARK       I    between atoms: N_16  and  C_20 
REMARK    2  A    between atoms: C_20  and  C_22 
REMARK    3  A    between atoms: C_24  and  O_25 
REMARK    4  A    between atoms: C_26  and  O_27 
ROOT
HETATM    1  C   UNK N   1      30.068  20.840  -6.859  0.00  0.00    -0.010 A 
HETATM    2  C   UNK N   1      30.379  20.685  -5.503  0.00  0.00     0.023 A 
HETATM    3  C   UNK N   1      30.141  21.712  -4.596  0.00  0.00    -0.030 A 
HETATM    4  C   UNK N   1      29.561  22.924  -5.034  0.00  0.00     0.043 A 
HETATM    5  C   UNK N   1      29.154  23.045  -6.374  0.00  0.00     0.031 A 
HETATM    6  C   UNK N   1      29.420  22.014  -7.281  0.00  0.00     0.016 A 
HETATM    7  N   UNK N   1      29.673  24.073  -4.202  0.00  0.00    -0.317 N 
HETATM    8  C   UNK N   1      30.715  24.042  -3.192  0.00  0.00     0.132 C 
HETATM    9  C   UNK N   1      30.472  22.817  -2.328  0.00  0.00     0.025 C 
HETATM   10  C   UNK N   1      30.655  21.561  -3.184  0.00  0.00     0.042 C 
HETATM   11  C   UNK N   1      29.016  25.248  -4.398  0.00  0.00     0.235 C 
HETATM   12  O   UNK N   1      29.485  26.273  -3.922  0.00  0.00    -0.272 OA
ENDROOT
BRANCH  11  13
HETATM   13  C   UNK N   1      27.595  25.301  -4.835  0.00  0.00     0.126 C 
HETATM   14  C   UNK N   1      27.394  26.400  -5.688  0.00  0.00     0.031 C 
HETATM   15  C   UNK N   1      26.920  27.617  -5.191  0.00  0.00     0.098 C 
HETATM   16  C   UNK N   1      26.524  27.690  -3.833  0.00  0.00     0.101 C 
HETATM   17  C   UNK N   1      26.400  26.494  -3.102  0.00  0.00     0.036 C 
HETATM   18  C   UNK N   1      26.843  25.287  -3.650  0.00  0.00    -0.006 C 
BRANCH  15  19
HETATM   19  O   UNK N   1      26.973  28.688  -6.024  0.00  0.00    -0.353 OA
HETATM   20  C   UNK N   1      28.124  29.253  -6.523  0.00  0.00     0.210 C 
ENDBRANCH  15  19
BRANCH  16  21
HETATM   21  O   UNK N   1      26.280  28.887  -3.246  0.00  0.00    -0.353 OA
HETATM   22  C   UNK N   1      27.281  29.672  -2.716  0.00  0.00     0.210 C 
ENDBRANCH  16  21
ENDBRANCH  11  13
BRANCH   1  23
HETATM   23  C   UNK N   1      30.574  19.852  -7.858  0.00  0.00     0.050 C 
HETATM   24  N   UNK N   1      29.704  19.269  -8.618  0.00  0.00    -0.300 N 
HETATM   25  N   UNK N   1      29.990  18.478  -9.711  0.00  0.00    -0.261 N 
ATOM     26  HN  UNK N   1      28.720  19.407  -8.389  1.00  0.00     0.186 HD
HETATM   27  C   UNK N   1      31.214  18.016 -10.038  0.00  0.00     0.298 C 
HETATM   28  H   UNK N   1      29.239  18.230 -10.298  0.00  0.00     0.190 HD
HETATM   29  S   UNK N   1      32.630  18.233  -8.978  0.00  0.00    -0.057 SA
HETATM   30  O   UNK N   1      31.351  17.380 -11.070  0.00  0.00    -0.259 OA
HETATM   31  C   UNK N   1      32.074  19.685  -8.042  0.00  0.00     0.105 C 
HETATM   32  C   UNK N   1      32.719  20.938  -8.613  0.00  0.00     0.028 C 
ENDBRANCH   1  23
TORSDOF 4
ENDMDL
