REMARK  1 active torsions:
REMARK  status: ('A' for Active; 'I' for Inactive)
REMARK    1  A    between atoms: C_1  and  O_19 
ROOT
HETATM    1  C   UNK N   1       4.695   0.721   0.171  0.00  0.00     0.066 A 
HETATM    2  C   UNK N   1       3.774   1.717  -0.163  0.00  0.00     0.048 A 
HETATM    3  C   UNK N   1       2.417   1.406  -0.284  0.00  0.00    -0.023 A 
HETATM    4  C   UNK N   1       1.969   0.082  -0.065  0.00  0.00    -0.019 A 
HETATM    5  C   UNK N   1       2.907  -0.910   0.268  0.00  0.00     0.015 A 
HETATM    6  C   UNK N   1       4.262  -0.590   0.383  0.00  0.00     0.037 A 
HETATM    7  C   UNK N   1       1.505   2.406  -0.618  0.00  0.00     0.013 A 
HETATM    8  C   UNK N   1       0.147   2.108  -0.731  0.00  0.00     0.009 A 
HETATM    9  C   UNK N   1      -0.322   0.805  -0.511  0.00  0.00    -0.046 A 
HETATM   10  C   UNK N   1       0.596  -0.221  -0.174  0.00  0.00    -0.040 A 
HETATM   11  C   UNK N   1      -1.814   0.544  -0.588  0.00  0.00     0.035 C 
HETATM   12  C   UNK N   1      -2.245  -0.912  -0.300  0.00  0.00     0.025 C 
HETATM   13  C   UNK N   1      -1.297  -1.607   0.677  0.00  0.00     0.022 C 
HETATM   14  C   UNK N   1       0.108  -1.622   0.088  0.00  0.00     0.041 C 
HETATM   15  C   UNK N   1      -2.566   1.389   0.442  0.00  0.00     0.018 C 
HETATM   16  C   UNK N   1      -3.907   0.697   0.643  0.00  0.00     0.080 C 
HETATM   17  C   UNK N   1      -3.571  -0.715   0.345  0.00  0.00     0.136 C 
HETATM   18  C   UNK N   1      -2.371  -1.725  -1.587  0.00  0.00     0.024 C 
HETATM   19  O   UNK N   1      -4.290  -1.641   0.688  0.00  0.00    -0.297 OA
ENDROOT
BRANCH   1  20
HETATM   20  O   UNK N   1       5.997   1.025   0.288  0.00  0.00    -0.361 OA
HETATM   21  H   UNK N   1       6.635   0.343   0.370  0.00  0.00     0.217 HD
ENDBRANCH   1  20
TORSDOF 1
