MODEL 1
REMARK VINA RESULT:      -7.4      0.000      0.000
REMARK  1 active torsions:
REMARK  status: ('A' for Active; 'I' for Inactive)
REMARK    1  A    between atoms: C_1  and  O_19 
ROOT
HETATM    1  C   UNK N   1      31.848  21.385  -3.101  0.00  0.00     0.066 A 
HETATM    2  C   UNK N   1      30.866  22.378  -3.100  0.00  0.00     0.048 A 
HETATM    3  C   UNK N   1      29.989  22.499  -4.181  0.00  0.00    -0.023 A 
HETATM    4  C   UNK N   1      30.090  21.614  -5.280  0.00  0.00    -0.019 A 
HETATM    5  C   UNK N   1      31.084  20.621  -5.268  0.00  0.00     0.015 A 
HETATM    6  C   UNK N   1      31.958  20.511  -4.184  0.00  0.00     0.037 A 
HETATM    7  C   UNK N   1      29.012  23.494  -4.172  0.00  0.00     0.013 A 
HETATM    8  C   UNK N   1      28.126  23.616  -5.242  0.00  0.00     0.009 A 
HETATM    9  C   UNK N   1      28.201  22.746  -6.339  0.00  0.00    -0.046 A 
HETATM   10  C   UNK N   1      29.192  21.733  -6.361  0.00  0.00    -0.040 A 
HETATM   11  C   UNK N   1      27.177  22.882  -7.450  0.00  0.00     0.035 C 
HETATM   12  C   UNK N   1      27.314  21.862  -8.602  0.00  0.00     0.025 C 
HETATM   13  C   UNK N   1      27.895  20.532  -8.123  0.00  0.00     0.022 C 
HETATM   14  C   UNK N   1      29.273  20.774  -7.520  0.00  0.00     0.041 C 
HETATM   15  C   UNK N   1      25.761  22.679  -6.909  0.00  0.00     0.018 C 
HETATM   16  C   UNK N   1      24.907  22.318  -8.117  0.00  0.00     0.080 C 
HETATM   17  C   UNK N   1      25.896  21.670  -9.009  0.00  0.00     0.136 C 
HETATM   18  C   UNK N   1      28.149  22.423  -9.752  0.00  0.00     0.024 C 
HETATM   19  O   UNK N   1      25.561  20.963  -9.947  0.00  0.00    -0.297 OA
ENDROOT
BRANCH   1  20
HETATM   20  O   UNK N   1      32.687  21.271  -2.059  0.00  0.00    -0.361 OA
HETATM   21  H   UNK N   1      33.380  20.640  -2.078  0.00  0.00     0.217 HD
ENDBRANCH   1  20
TORSDOF 1
ENDMDL
MODEL 2
REMARK VINA RESULT:      -7.1      4.219      7.239
REMARK  1 active torsions:
REMARK  status: ('A' for Active; 'I' for Inactive)
REMARK    1  A    between atoms: C_1  and  O_19 
ROOT
HETATM    1  C   UNK N   1      25.339  22.036  -8.522  0.00  0.00     0.066 A 
HETATM    2  C   UNK N   1      25.499  23.295  -9.106  0.00  0.00     0.048 A 
HETATM    3  C   UNK N   1      25.776  24.409  -8.309  0.00  0.00    -0.023 A 
HETATM    4  C   UNK N   1      25.899  24.266  -6.906  0.00  0.00    -0.019 A 
HETATM    5  C   UNK N   1      25.732  22.994  -6.332  0.00  0.00     0.015 A 
HETATM    6  C   UNK N   1      25.452  21.888  -7.138  0.00  0.00     0.037 A 
HETATM    7  C   UNK N   1      25.935  25.661  -8.900  0.00  0.00     0.013 A 
HETATM    8  C   UNK N   1      26.221  26.777  -8.114  0.00  0.00     0.009 A 
HETATM    9  C   UNK N   1      26.355  26.660  -6.723  0.00  0.00    -0.046 A 
HETATM   10  C   UNK N   1      26.193  25.392  -6.110  0.00  0.00    -0.040 A 
HETATM   11  C   UNK N   1      26.725  27.891  -5.919  0.00  0.00     0.035 C 
HETATM   12  C   UNK N   1      26.884  27.663  -4.398  0.00  0.00     0.025 C 
HETATM   13  C   UNK N   1      27.364  26.248  -4.079  0.00  0.00     0.022 C 
HETATM   14  C   UNK N   1      26.355  25.242  -4.620  0.00  0.00     0.041 C 
HETATM   15  C   UNK N   1      28.073  28.452  -6.376  0.00  0.00     0.018 C 
HETATM   16  C   UNK N   1      28.579  29.304  -5.221  0.00  0.00     0.080 C 
HETATM   17  C   UNK N   1      27.950  28.642  -4.054  0.00  0.00     0.136 C 
HETATM   18  C   UNK N   1      25.589  27.968  -3.647  0.00  0.00     0.024 C 
HETATM   19  O   UNK N   1      28.344  28.824  -2.912  0.00  0.00    -0.297 OA
ENDROOT
BRANCH   1  20
HETATM   20  O   UNK N   1      25.075  20.970  -9.292  0.00  0.00    -0.361 OA
HETATM   21  H   UNK N   1      25.250  20.105  -8.976  0.00  0.00     0.217 HD
ENDBRANCH   1  20
TORSDOF 1
ENDMDL
MODEL 3
REMARK VINA RESULT:      -7.0     21.473     24.919
REMARK  1 active torsions:
REMARK  status: ('A' for Active; 'I' for Inactive)
REMARK    1  A    between atoms: C_1  and  O_19 
ROOT
HETATM    1  C   UNK N   1      35.190  12.863  19.283  0.00  0.00     0.066 A 
HETATM    2  C   UNK N   1      35.313  11.567  18.774  0.00  0.00     0.048 A 
HETATM    3  C   UNK N   1      35.499  11.366  17.404  0.00  0.00    -0.023 A 
HETATM    4  C   UNK N   1      35.569  12.473  16.526  0.00  0.00    -0.019 A 
HETATM    5  C   UNK N   1      35.442  13.770  17.051  0.00  0.00     0.015 A 
HETATM    6  C   UNK N   1      35.252  13.961  18.422  0.00  0.00     0.037 A 
HETATM    7  C   UNK N   1      35.620  10.070  16.905  0.00  0.00     0.013 A 
HETATM    8  C   UNK N   1      35.817   9.858  15.541  0.00  0.00     0.009 A 
HETATM    9  C   UNK N   1      35.898  10.940  14.652  0.00  0.00    -0.046 A 
HETATM   10  C   UNK N   1      35.773  12.262  15.146  0.00  0.00    -0.040 A 
HETATM   11  C   UNK N   1      36.172  10.661  13.187  0.00  0.00     0.035 C 
HETATM   12  C   UNK N   1      36.277  11.911  12.285  0.00  0.00     0.025 C 
HETATM   13  C   UNK N   1      36.812  13.123  13.047  0.00  0.00     0.022 C 
HETATM   14  C   UNK N   1      35.879  13.437  14.210  0.00  0.00     0.041 C 
HETATM   15  C   UNK N   1      37.508   9.936  13.013  0.00  0.00     0.018 C 
HETATM   16  C   UNK N   1      37.921  10.173  11.567  0.00  0.00     0.080 C 
HETATM   17  C   UNK N   1      37.277  11.475  11.274  0.00  0.00     0.136 C 
HETATM   18  C   UNK N   1      34.938  12.245  11.630  0.00  0.00     0.024 C 
HETATM   19  O   UNK N   1      37.613  12.168  10.326  0.00  0.00    -0.297 OA
ENDROOT
BRANCH   1  20
HETATM   20  O   UNK N   1      35.013  13.051  20.600  0.00  0.00    -0.361 OA
HETATM   21  H   UNK N   1      34.620  13.842  20.914  0.00  0.00     0.217 HD
ENDBRANCH   1  20
TORSDOF 1
ENDMDL
MODEL 4
REMARK VINA RESULT:      -6.9     11.229     14.489
REMARK  1 active torsions:
REMARK  status: ('A' for Active; 'I' for Inactive)
REMARK    1  A    between atoms: C_1  and  O_19 
ROOT
HETATM    1  C   UNK N   1      26.348  19.533   4.875  0.00  0.00     0.066 A 
HETATM    2  C   UNK N   1      26.758  19.457   6.209  0.00  0.00     0.048 A 
HETATM    3  C   UNK N   1      27.958  18.820   6.539  0.00  0.00    -0.023 A 
HETATM    4  C   UNK N   1      28.764  18.254   5.524  0.00  0.00    -0.019 A 
HETATM    5  C   UNK N   1      28.338  18.336   4.187  0.00  0.00     0.015 A 
HETATM    6  C   UNK N   1      27.136  18.971   3.868  0.00  0.00     0.037 A 
HETATM    7  C   UNK N   1      28.359  18.748   7.872  0.00  0.00     0.013 A 
HETATM    8  C   UNK N   1      29.560  18.124   8.211  0.00  0.00     0.009 A 
HETATM    9  C   UNK N   1      30.380  17.563   7.222  0.00  0.00    -0.046 A 
HETATM   10  C   UNK N   1      29.981  17.626   5.863  0.00  0.00    -0.040 A 
HETATM   11  C   UNK N   1      31.703  16.948   7.635  0.00  0.00     0.035 C 
HETATM   12  C   UNK N   1      32.557  16.382   6.478  0.00  0.00     0.025 C 
HETATM   13  C   UNK N   1      32.330  17.144   5.173  0.00  0.00     0.022 C 
HETATM   14  C   UNK N   1      30.860  17.048   4.785  0.00  0.00     0.041 C 
HETATM   15  C   UNK N   1      32.597  17.988   8.312  0.00  0.00     0.018 C 
HETATM   16  C   UNK N   1      34.015  17.447   8.204  0.00  0.00     0.080 C 
HETATM   17  C   UNK N   1      33.939  16.632   6.969  0.00  0.00     0.136 C 
HETATM   18  C   UNK N   1      32.305  14.889   6.272  0.00  0.00     0.024 C 
HETATM   19  O   UNK N   1      34.938  16.278   6.361  0.00  0.00    -0.297 OA
ENDROOT
BRANCH   1  20
HETATM   20  O   UNK N   1      25.197  20.147   4.563  0.00  0.00    -0.361 OA
HETATM   21  H   UNK N   1      25.105  20.588   3.741  0.00  0.00     0.217 HD
ENDBRANCH   1  20
TORSDOF 1
ENDMDL
MODEL 5
REMARK VINA RESULT:      -6.9     24.099     28.168
REMARK  1 active torsions:
REMARK  status: ('A' for Active; 'I' for Inactive)
REMARK    1  A    between atoms: C_1  and  O_19 
ROOT
HETATM    1  C   UNK N   1      34.647  12.311  13.992  0.00  0.00     0.066 A 
HETATM    2  C   UNK N   1      34.923  13.063  15.137  0.00  0.00     0.048 A 
HETATM    3  C   UNK N   1      35.014  12.436  16.383  0.00  0.00    -0.023 A 
HETATM    4  C   UNK N   1      34.830  11.037  16.490  0.00  0.00    -0.019 A 
HETATM    5  C   UNK N   1      34.550  10.295  15.331  0.00  0.00     0.015 A 
HETATM    6  C   UNK N   1      34.458  10.930  14.090  0.00  0.00     0.037 A 
HETATM    7  C   UNK N   1      35.289  13.194  17.520  0.00  0.00     0.013 A 
HETATM    8  C   UNK N   1      35.392  12.576  18.767  0.00  0.00     0.009 A 
HETATM    9  C   UNK N   1      35.222  11.191  18.897  0.00  0.00    -0.046 A 
HETATM   10  C   UNK N   1      34.938  10.410  17.749  0.00  0.00    -0.040 A 
HETATM   11  C   UNK N   1      35.401  10.559  20.264  0.00  0.00     0.035 C 
HETATM   12  C   UNK N   1      35.227   9.024  20.310  0.00  0.00     0.025 C 
HETATM   13  C   UNK N   1      35.634   8.362  18.993  0.00  0.00     0.022 C 
HETATM   14  C   UNK N   1      34.773   8.917  17.866  0.00  0.00     0.041 C 
HETATM   15  C   UNK N   1      36.813  10.812  20.797  0.00  0.00     0.018 C 
HETATM   16  C   UNK N   1      37.050   9.746  21.857  0.00  0.00     0.080 C 
HETATM   17  C   UNK N   1      36.187   8.641  21.380  0.00  0.00     0.136 C 
HETATM   18  C   UNK N   1      33.798   8.632  20.682  0.00  0.00     0.024 C 
HETATM   19  O   UNK N   1      36.323   7.492  21.773  0.00  0.00    -0.297 OA
ENDROOT
BRANCH   1  20
HETATM   20  O   UNK N   1      34.563  12.917  12.798  0.00  0.00    -0.361 OA
HETATM   21  H   UNK N   1      35.091  12.623  12.081  0.00  0.00     0.217 HD
ENDBRANCH   1  20
TORSDOF 1
ENDMDL
MODEL 6
REMARK VINA RESULT:      -6.8      2.115      2.909
REMARK  1 active torsions:
REMARK  status: ('A' for Active; 'I' for Inactive)
REMARK    1  A    between atoms: C_1  and  O_19 
ROOT
HETATM    1  C   UNK N   1      32.829  20.042  -4.072  0.00  0.00     0.066 A 
HETATM    2  C   UNK N   1      32.363  21.028  -3.199  0.00  0.00     0.048 A 
HETATM    3  C   UNK N   1      31.331  21.884  -3.594  0.00  0.00    -0.023 A 
HETATM    4  C   UNK N   1      30.751  21.754  -4.878  0.00  0.00    -0.019 A 
HETATM    5  C   UNK N   1      31.232  20.759  -5.746  0.00  0.00     0.015 A 
HETATM    6  C   UNK N   1      32.266  19.911  -5.344  0.00  0.00     0.037 A 
HETATM    7  C   UNK N   1      30.873  22.865  -2.716  0.00  0.00     0.013 A 
HETATM    8  C   UNK N   1      29.836  23.718  -3.096  0.00  0.00     0.009 A 
HETATM    9  C   UNK N   1      29.240  23.603  -4.360  0.00  0.00    -0.046 A 
HETATM   10  C   UNK N   1      29.700  22.612  -5.263  0.00  0.00    -0.040 A 
HETATM   11  C   UNK N   1      28.078  24.515  -4.705  0.00  0.00     0.035 C 
HETATM   12  C   UNK N   1      27.461  24.298  -6.105  0.00  0.00     0.025 C 
HETATM   13  C   UNK N   1      27.585  22.846  -6.566  0.00  0.00     0.022 C 
HETATM   14  C   UNK N   1      29.057  22.459  -6.617  0.00  0.00     0.041 C 
HETATM   15  C   UNK N   1      26.920  24.308  -3.727  0.00  0.00     0.018 C 
HETATM   16  C   UNK N   1      25.681  24.838  -4.437  0.00  0.00     0.080 C 
HETATM   17  C   UNK N   1      26.031  24.625  -5.862  0.00  0.00     0.136 C 
HETATM   18  C   UNK N   1      28.076  25.238  -7.141  0.00  0.00     0.024 C 
HETATM   19  O   UNK N   1      25.188  24.629  -6.746  0.00  0.00    -0.297 OA
ENDROOT
BRANCH   1  20
HETATM   20  O   UNK N   1      33.819  19.221  -3.688  0.00  0.00    -0.361 OA
HETATM   21  H   UNK N   1      33.781  18.795  -2.854  0.00  0.00     0.217 HD
ENDBRANCH   1  20
TORSDOF 1
ENDMDL
MODEL 7
REMARK VINA RESULT:      -6.8     23.383     25.794
REMARK  1 active torsions:
REMARK  status: ('A' for Active; 'I' for Inactive)
REMARK    1  A    between atoms: C_1  and  O_19 
ROOT
HETATM    1  C   UNK N   1      35.158  12.663  19.535  0.00  0.00     0.066 A 
HETATM    2  C   UNK N   1      34.898  13.222  18.281  0.00  0.00     0.048 A 
HETATM    3  C   UNK N   1      35.113  12.473  17.121  0.00  0.00    -0.023 A 
HETATM    4  C   UNK N   1      35.591  11.145  17.211  0.00  0.00    -0.019 A 
HETATM    5  C   UNK N   1      35.851  10.597  18.479  0.00  0.00     0.015 A 
HETATM    6  C   UNK N   1      35.637  11.355  19.633  0.00  0.00     0.037 A 
HETATM    7  C   UNK N   1      34.851  13.039  15.874  0.00  0.00     0.013 A 
HETATM    8  C   UNK N   1      35.052  12.296  14.711  0.00  0.00     0.009 A 
HETATM    9  C   UNK N   1      35.518  10.975  14.775  0.00  0.00    -0.046 A 
HETATM   10  C   UNK N   1      35.791  10.390  16.036  0.00  0.00    -0.040 A 
HETATM   11  C   UNK N   1      35.665  10.190  13.485  0.00  0.00     0.035 C 
HETATM   12  C   UNK N   1      36.153   8.733  13.651  0.00  0.00     0.025 C 
HETATM   13  C   UNK N   1      35.708   8.129  14.983  0.00  0.00     0.022 C 
HETATM   14  C   UNK N   1      36.271   8.965  16.126  0.00  0.00     0.041 C 
HETATM   15  C   UNK N   1      34.320  10.076  12.764  0.00  0.00     0.018 C 
HETATM   16  C   UNK N   1      34.456   8.886  11.824  0.00  0.00     0.080 C 
HETATM   17  C   UNK N   1      35.451   8.048  12.533  0.00  0.00     0.136 C 
HETATM   18  C   UNK N   1      37.669   8.628  13.500  0.00  0.00     0.024 C 
HETATM   19  O   UNK N   1      35.609   6.865  12.272  0.00  0.00    -0.297 OA
ENDROOT
BRANCH   1  20
HETATM   20  O   UNK N   1      34.949  13.386  20.647  0.00  0.00    -0.361 OA
HETATM   21  H   UNK N   1      34.938  14.322  20.605  0.00  0.00     0.217 HD
ENDBRANCH   1  20
TORSDOF 1
ENDMDL
MODEL 8
REMARK VINA RESULT:      -6.8     16.150     17.097
REMARK  1 active torsions:
REMARK  status: ('A' for Active; 'I' for Inactive)
REMARK    1  A    between atoms: C_1  and  O_19 
ROOT
HETATM    1  C   UNK N   1      22.725  11.995  10.728  0.00  0.00     0.066 A 
HETATM    2  C   UNK N   1      21.578  12.789  10.666  0.00  0.00     0.048 A 
HETATM    3  C   UNK N   1      21.402  13.687   9.609  0.00  0.00    -0.023 A 
HETATM    4  C   UNK N   1      22.384  13.793   8.596  0.00  0.00    -0.019 A 
HETATM    5  C   UNK N   1      23.535  12.990   8.674  0.00  0.00     0.015 A 
HETATM    6  C   UNK N   1      23.702  12.098   9.736  0.00  0.00     0.037 A 
HETATM    7  C   UNK N   1      20.254  14.476   9.555  0.00  0.00     0.013 A 
HETATM    8  C   UNK N   1      20.065  15.368   8.499  0.00  0.00     0.009 A 
HETATM    9  C   UNK N   1      21.020  15.485   7.480  0.00  0.00    -0.046 A 
HETATM   10  C   UNK N   1      22.193  14.691   7.526  0.00  0.00    -0.040 A 
HETATM   11  C   UNK N   1      20.741  16.426   6.323  0.00  0.00     0.035 C 
HETATM   12  C   UNK N   1      21.832  16.468   5.229  0.00  0.00     0.025 C 
HETATM   13  C   UNK N   1      22.563  15.132   5.097  0.00  0.00     0.022 C 
HETATM   14  C   UNK N   1      23.220  14.787   6.427  0.00  0.00     0.041 C 
HETATM   15  C   UNK N   1      19.462  16.018   5.590  0.00  0.00     0.018 C 
HETATM   16  C   UNK N   1      19.559  16.652   4.209  0.00  0.00     0.080 C 
HETATM   17  C   UNK N   1      21.025  16.719   4.005  0.00  0.00     0.136 C 
HETATM   18  C   UNK N   1      22.830  17.598   5.475  0.00  0.00     0.024 C 
HETATM   19  O   UNK N   1      21.521  16.877   2.900  0.00  0.00    -0.297 OA
ENDROOT
BRANCH   1  20
HETATM   20  O   UNK N   1      22.888  11.133  11.744  0.00  0.00    -0.361 OA
HETATM   21  H   UNK N   1      23.382  11.383  12.500  0.00  0.00     0.217 HD
ENDBRANCH   1  20
TORSDOF 1
ENDMDL
MODEL 9
REMARK VINA RESULT:      -6.7      2.983      4.389
REMARK  1 active torsions:
REMARK  status: ('A' for Active; 'I' for Inactive)
REMARK    1  A    between atoms: C_1  and  O_19 
ROOT
HETATM    1  C   UNK N   1      33.796  19.786  -4.072  0.00  0.00     0.066 A 
HETATM    2  C   UNK N   1      32.838  19.717  -5.087  0.00  0.00     0.048 A 
HETATM    3  C   UNK N   1      31.758  20.604  -5.094  0.00  0.00    -0.023 A 
HETATM    4  C   UNK N   1      31.631  21.577  -4.075  0.00  0.00    -0.019 A 
HETATM    5  C   UNK N   1      32.601  21.633  -3.059  0.00  0.00     0.015 A 
HETATM    6  C   UNK N   1      33.675  20.740  -3.059  0.00  0.00     0.037 A 
HETATM    7  C   UNK N   1      30.807  20.529  -6.110  0.00  0.00     0.013 A 
HETATM    8  C   UNK N   1      29.731  21.416  -6.132  0.00  0.00     0.009 A 
HETATM    9  C   UNK N   1      29.588  22.394  -5.138  0.00  0.00    -0.046 A 
HETATM   10  C   UNK N   1      30.547  22.479  -4.097  0.00  0.00    -0.040 A 
HETATM   11  C   UNK N   1      28.434  23.373  -5.237  0.00  0.00     0.035 C 
HETATM   12  C   UNK N   1      28.372  24.437  -4.118  0.00  0.00     0.025 C 
HETATM   13  C   UNK N   1      29.761  24.792  -3.589  0.00  0.00     0.022 C 
HETATM   14  C   UNK N   1      30.423  23.538  -3.033  0.00  0.00     0.041 C 
HETATM   15  C   UNK N   1      28.513  24.174  -6.539  0.00  0.00     0.018 C 
HETATM   16  C   UNK N   1      27.676  25.424  -6.305  0.00  0.00     0.080 C 
HETATM   17  C   UNK N   1      27.798  25.604  -4.839  0.00  0.00     0.136 C 
HETATM   18  C   UNK N   1      27.464  23.994  -2.972  0.00  0.00     0.024 C 
HETATM   19  O   UNK N   1      27.532  26.663  -4.290  0.00  0.00    -0.297 OA
ENDROOT
BRANCH   1  20
HETATM   20  O   UNK N   1      34.832  18.933  -4.072  0.00  0.00    -0.361 OA
HETATM   21  H   UNK N   1      35.294  18.753  -3.276  0.00  0.00     0.217 HD
ENDBRANCH   1  20
TORSDOF 1
ENDMDL
