REMARK  5 active torsions:
REMARK  status: ('A' for Active; 'I' for Inactive)
REMARK    1  A    between atoms: C_2  and  C_4 
REMARK    2  A    between atoms: C_4  and  C_6 
REMARK    3  A    between atoms: C_7  and  C_8 
REMARK    4  A    between atoms: C_10  and  C_8 
REMARK    5  A    between atoms: C_19  and  O_20 
ROOT
HETATM    1  C   UNK N   1       2.628  -2.479   0.622  0.00  0.00     0.002 C 
HETATM    2  C   UNK N   1       2.092  -1.134   1.087  0.00  0.00     0.007 C 
HETATM    3  C   UNK N   1       2.962  -0.079   0.414  0.00  0.00     0.010 C 
HETATM    4  C   UNK N   1       3.972  -0.820  -0.464  0.00  0.00     0.023 C 
HETATM    5  C   UNK N   1       5.341  -0.818   0.170  0.00  0.00    -0.070 C 
HETATM    6  C   UNK N   1       5.978   0.359   0.315  0.00  0.00     0.004 C 
HETATM    7  C   UNK N   1       7.396   0.387   0.743  0.00  0.00     0.004 C 
HETATM    8  C   UNK N   1       8.147  -0.725   0.619  0.00  0.00    -0.069 C 
HETATM    9  C   UNK N   1       9.544  -0.738   1.167  0.00  0.00     0.066 C 
HETATM   10  C   UNK N   1      10.436  -1.608   0.279  0.00  0.00     0.122 C 
HETATM   11  C   UNK N   1       9.903  -3.045   0.146  0.00  0.00     0.033 C 
HETATM   12  C   UNK N   1       8.396  -3.202   0.422  0.00  0.00     0.017 C 
HETATM   13  C   UNK N   1       7.558  -1.987  -0.005  0.00  0.00    -0.013 C 
HETATM   14  C   UNK N   1       7.569  -1.873  -1.531  0.00  0.00     0.021 C 
HETATM   15  C   UNK N   1       6.106  -2.104   0.499  0.00  0.00     0.027 C 
HETATM   16  C   UNK N   1       5.392  -3.409   0.115  0.00  0.00     0.011 C 
HETATM   17  C   UNK N   1       4.422  -3.242  -1.048  0.00  0.00     0.011 C 
HETATM   18  C   UNK N   1       3.362  -2.195  -0.705  0.00  0.00    -0.032 C 
HETATM   19  C   UNK N   1       2.423  -2.052  -1.898  0.00  0.00     0.016 C 
ENDROOT
BRANCH   1  20
HETATM   20  C   UNK N   1       1.550  -3.584   0.671  0.00  0.00     0.008 C 
HETATM   21  C   UNK N   1       2.111  -4.959   0.359  0.00  0.00     0.014 C 
BRANCH  20  22
HETATM   22  C   UNK N   1       0.413  -3.258  -0.239  0.00  0.00    -0.026 C 
HETATM   23  C   UNK N   1      -0.707  -2.731   0.238  0.00  0.00    -0.026 C 
BRANCH  23  24
HETATM   24  C   UNK N   1      -1.726  -2.217  -0.719  0.00  0.00     0.007 C 
HETATM   25  C   UNK N   1      -3.050  -2.943  -0.543  0.00  0.00     0.014 C 
BRANCH  24  26
HETATM   26  C   UNK N   1      -1.849  -0.695  -0.571  0.00  0.00    -0.015 C 
HETATM   27  C   UNK N   1      -2.430  -0.273   0.771  0.00  0.00     0.010 C 
HETATM   28  C   UNK N   1      -2.650  -0.086  -1.704  0.00  0.00     0.010 C 
ENDBRANCH  24  26
ENDBRANCH  23  24
ENDBRANCH  20  22
ENDBRANCH   1  20
BRANCH  10  29
HETATM   29  O   UNK N   1      10.561  -1.030  -0.986  0.00  0.00    -0.395 OA
HETATM   30  H   UNK N   1      10.951  -0.904  -1.865  0.00  0.00     0.210 HD
ENDBRANCH  10  29
TORSDOF 5
