MODEL 1
REMARK VINA RESULT:      -7.8      0.000      0.000
REMARK  5 active torsions:
REMARK  status: ('A' for Active; 'I' for Inactive)
REMARK    1  A    between atoms: C_2  and  C_4 
REMARK    2  A    between atoms: C_4  and  C_6 
REMARK    3  A    between atoms: C_7  and  C_8 
REMARK    4  A    between atoms: C_10  and  C_8 
REMARK    5  A    between atoms: C_19  and  O_20 
ROOT
HETATM    1  C   UNK N   1      28.024  22.916  -7.045  0.00  0.00     0.002 C 
HETATM    2  C   UNK N   1      26.612  22.374  -7.205  0.00  0.00     0.007 C 
HETATM    3  C   UNK N   1      25.738  23.573  -7.553  0.00  0.00     0.010 C 
HETATM    4  C   UNK N   1      26.657  24.794  -7.628  0.00  0.00     0.023 C 
HETATM    5  C   UNK N   1      26.493  25.668  -6.409  0.00  0.00    -0.070 C 
HETATM    6  C   UNK N   1      25.309  26.279  -6.213  0.00  0.00     0.004 C 
HETATM    7  C   UNK N   1      25.168  27.298  -5.148  0.00  0.00     0.004 C 
HETATM    8  C   UNK N   1      26.271  27.885  -4.642  0.00  0.00    -0.069 C 
HETATM    9  C   UNK N   1      26.142  28.823  -3.478  0.00  0.00     0.066 C 
HETATM   10  C   UNK N   1      27.189  29.932  -3.593  0.00  0.00     0.122 C 
HETATM   11  C   UNK N   1      28.622  29.376  -3.672  0.00  0.00     0.033 C 
HETATM   12  C   UNK N   1      28.722  27.921  -4.165  0.00  0.00     0.017 C 
HETATM   13  C   UNK N   1      27.650  27.540  -5.198  0.00  0.00    -0.013 C 
HETATM   14  C   UNK N   1      27.901  28.310  -6.497  0.00  0.00     0.021 C 
HETATM   15  C   UNK N   1      27.658  26.025  -5.480  0.00  0.00     0.027 C 
HETATM   16  C   UNK N   1      29.023  25.450  -5.888  0.00  0.00     0.011 C 
HETATM   17  C   UNK N   1      29.144  25.200  -7.386  0.00  0.00     0.011 C 
HETATM   18  C   UNK N   1      28.055  24.232  -7.849  0.00  0.00    -0.032 C 
HETATM   19  C   UNK N   1      28.207  24.020  -9.351  0.00  0.00     0.016 C 
ENDROOT
BRANCH   1  20
HETATM   20  C   UNK N   1      29.095  21.836  -7.314  0.00  0.00     0.008 C 
HETATM   21  C   UNK N   1      28.529  20.616  -8.016  0.00  0.00     0.014 C 
BRANCH  20  22
HETATM   22  C   UNK N   1      29.786  21.446  -6.050  0.00  0.00    -0.026 C 
HETATM   23  C   UNK N   1      29.648  22.174  -4.950  0.00  0.00    -0.026 C 
BRANCH  23  24
HETATM   24  C   UNK N   1      30.167  21.638  -3.661  0.00  0.00     0.007 C 
HETATM   25  C   UNK N   1      31.516  20.965  -3.858  0.00  0.00     0.014 C 
BRANCH  24  26
HETATM   26  C   UNK N   1      30.200  22.758  -2.614  0.00  0.00    -0.015 C 
HETATM   27  C   UNK N   1      28.833  23.051  -2.012  0.00  0.00     0.010 C 
HETATM   28  C   UNK N   1      30.810  24.028  -3.172  0.00  0.00     0.010 C 
ENDBRANCH  24  26
ENDBRANCH  23  24
ENDBRANCH  20  22
ENDBRANCH   1  20
BRANCH  10  29
HETATM   29  O   UNK N   1      26.926  30.724  -4.713  0.00  0.00    -0.395 OA
HETATM   30  H   UNK N   1      26.905  31.545  -5.229  0.00  0.00     0.210 HD
ENDBRANCH  10  29
TORSDOF 5
ENDMDL
MODEL 2
REMARK VINA RESULT:      -7.3      2.801      6.913
REMARK  5 active torsions:
REMARK  status: ('A' for Active; 'I' for Inactive)
REMARK    1  A    between atoms: C_2  and  C_4 
REMARK    2  A    between atoms: C_4  and  C_6 
REMARK    3  A    between atoms: C_7  and  C_8 
REMARK    4  A    between atoms: C_10  and  C_8 
REMARK    5  A    between atoms: C_19  and  O_20 
ROOT
HETATM    1  C   UNK N   1      27.012  25.117  -5.378  0.00  0.00     0.002 C 
HETATM    2  C   UNK N   1      26.259  24.791  -4.098  0.00  0.00     0.007 C 
HETATM    3  C   UNK N   1      27.322  24.466  -3.055  0.00  0.00     0.010 C 
HETATM    4  C   UNK N   1      28.684  24.641  -3.729  0.00  0.00     0.023 C 
HETATM    5  C   UNK N   1      29.305  23.303  -4.045  0.00  0.00    -0.070 C 
HETATM    6  C   UNK N   1      29.654  22.501  -3.022  0.00  0.00     0.004 C 
HETATM    7  C   UNK N   1      30.446  21.275  -3.277  0.00  0.00     0.004 C 
HETATM    8  C   UNK N   1      31.132  21.158  -4.431  0.00  0.00    -0.069 C 
HETATM    9  C   UNK N   1      31.831  19.869  -4.747  0.00  0.00     0.066 C 
HETATM   10  C   UNK N   1      33.114  20.159  -5.528  0.00  0.00     0.122 C 
HETATM   11  C   UNK N   1      32.845  20.949  -6.820  0.00  0.00     0.033 C 
HETATM   12  C   UNK N   1      31.530  21.751  -6.824  0.00  0.00     0.017 C 
HETATM   13  C   UNK N   1      31.135  22.299  -5.444  0.00  0.00    -0.013 C 
HETATM   14  C   UNK N   1      32.136  23.376  -5.020  0.00  0.00     0.021 C 
HETATM   15  C   UNK N   1      29.711  22.890  -5.463  0.00  0.00     0.027 C 
HETATM   16  C   UNK N   1      29.465  23.947  -6.551  0.00  0.00     0.011 C 
HETATM   17  C   UNK N   1      29.485  25.373  -6.016  0.00  0.00     0.011 C 
HETATM   18  C   UNK N   1      28.425  25.544  -4.928  0.00  0.00    -0.032 C 
HETATM   19  C   UNK N   1      28.489  26.979  -4.415  0.00  0.00     0.016 C 
ENDROOT
BRANCH   1  20
HETATM   20  C   UNK N   1      26.201  26.042  -6.311  0.00  0.00     0.008 C 
HETATM   21  C   UNK N   1      24.999  26.658  -5.620  0.00  0.00     0.014 C 
BRANCH  20  22
HETATM   22  C   UNK N   1      25.785  25.317  -7.548  0.00  0.00    -0.026 C 
HETATM   23  C   UNK N   1      26.055  24.027  -7.700  0.00  0.00    -0.026 C 
BRANCH  23  24
HETATM   24  C   UNK N   1      25.436  23.291  -8.837  0.00  0.00     0.007 C 
HETATM   25  C   UNK N   1      26.066  23.703 -10.157  0.00  0.00     0.014 C 
BRANCH  24  26
HETATM   26  C   UNK N   1      25.515  21.781  -8.576  0.00  0.00    -0.015 C 
HETATM   27  C   UNK N   1      24.671  21.337  -7.390  0.00  0.00     0.010 C 
HETATM   28  C   UNK N   1      26.948  21.319  -8.403  0.00  0.00     0.010 C 
ENDBRANCH  24  26
ENDBRANCH  23  24
ENDBRANCH  20  22
ENDBRANCH   1  20
BRANCH  10  29
HETATM   29  O   UNK N   1      34.016  20.858  -4.724  0.00  0.00    -0.395 OA
HETATM   30  H   UNK N   1      34.344  21.619  -4.219  0.00  0.00     0.210 HD
ENDBRANCH  10  29
TORSDOF 5
ENDMDL
MODEL 3
REMARK VINA RESULT:      -7.2     24.010     28.195
REMARK  5 active torsions:
REMARK  status: ('A' for Active; 'I' for Inactive)
REMARK    1  A    between atoms: C_2  and  C_4 
REMARK    2  A    between atoms: C_4  and  C_6 
REMARK    3  A    between atoms: C_7  and  C_8 
REMARK    4  A    between atoms: C_10  and  C_8 
REMARK    5  A    between atoms: C_19  and  O_20 
ROOT
HETATM    1  C   UNK N   1      36.802   9.216  18.859  0.00  0.00     0.002 C 
HETATM    2  C   UNK N   1      36.738  10.184  20.030  0.00  0.00     0.007 C 
HETATM    3  C   UNK N   1      35.659  11.201  19.677  0.00  0.00     0.010 C 
HETATM    4  C   UNK N   1      35.082  10.793  18.320  0.00  0.00     0.023 C 
HETATM    5  C   UNK N   1      35.586  11.701  17.225  0.00  0.00    -0.070 C 
HETATM    6  C   UNK N   1      35.226  12.998  17.252  0.00  0.00     0.004 C 
HETATM    7  C   UNK N   1      35.528  13.875  16.097  0.00  0.00     0.004 C 
HETATM    8  C   UNK N   1      35.803  13.322  14.899  0.00  0.00    -0.069 C 
HETATM    9  C   UNK N   1      36.232  14.200  13.761  0.00  0.00     0.066 C 
HETATM   10  C   UNK N   1      35.702  13.629  12.444  0.00  0.00     0.122 C 
HETATM   11  C   UNK N   1      36.169  12.182  12.205  0.00  0.00     0.033 C 
HETATM   12  C   UNK N   1      36.570  11.416  13.480  0.00  0.00     0.017 C 
HETATM   13  C   UNK N   1      35.753  11.807  14.721  0.00  0.00    -0.013 C 
HETATM   14  C   UNK N   1      34.305  11.346  14.542  0.00  0.00     0.021 C 
HETATM   15  C   UNK N   1      36.345  11.182  16.000  0.00  0.00     0.027 C 
HETATM   16  C   UNK N   1      36.539   9.659  15.944  0.00  0.00     0.011 C 
HETATM   17  C   UNK N   1      35.460   8.889  16.695  0.00  0.00     0.011 C 
HETATM   18  C   UNK N   1      35.429   9.319  18.162  0.00  0.00    -0.032 C 
HETATM   19  C   UNK N   1      34.330   8.534  18.870  0.00  0.00     0.016 C 
ENDROOT
BRANCH   1  20
HETATM   20  C   UNK N   1      37.338   7.829  19.278  0.00  0.00     0.008 C 
HETATM   21  C   UNK N   1      37.546   7.714  20.777  0.00  0.00     0.014 C 
BRANCH  20  22
HETATM   22  C   UNK N   1      38.595   7.501  18.543  0.00  0.00    -0.026 C 
HETATM   23  C   UNK N   1      38.552   7.046  17.298  0.00  0.00    -0.026 C 
BRANCH  23  24
HETATM   24  C   UNK N   1      39.822   6.942  16.525  0.00  0.00     0.007 C 
HETATM   25  C   UNK N   1      39.951   5.572  15.878  0.00  0.00     0.014 C 
BRANCH  24  26
HETATM   26  C   UNK N   1      39.907   8.095  15.517  0.00  0.00    -0.015 C 
HETATM   27  C   UNK N   1      39.252   7.768  14.183  0.00  0.00     0.010 C 
HETATM   28  C   UNK N   1      41.338   8.545  15.303  0.00  0.00     0.010 C 
ENDBRANCH  24  26
ENDBRANCH  23  24
ENDBRANCH  20  22
ENDBRANCH   1  20
BRANCH  10  29
HETATM   29  O   UNK N   1      34.307  13.686  12.424  0.00  0.00    -0.395 OA
HETATM   30  H   UNK N   1      33.424  13.574  12.039  0.00  0.00     0.210 HD
ENDBRANCH  10  29
TORSDOF 5
ENDMDL
MODEL 4
REMARK VINA RESULT:      -6.9      1.648      4.641
REMARK  5 active torsions:
REMARK  status: ('A' for Active; 'I' for Inactive)
REMARK    1  A    between atoms: C_2  and  C_4 
REMARK    2  A    between atoms: C_4  and  C_6 
REMARK    3  A    between atoms: C_7  and  C_8 
REMARK    4  A    between atoms: C_10  and  C_8 
REMARK    5  A    between atoms: C_19  and  O_20 
ROOT
HETATM    1  C   UNK N   1      31.338  22.811  -5.195  0.00  0.00     0.002 C 
HETATM    2  C   UNK N   1      32.579  23.689  -5.213  0.00  0.00     0.007 C 
HETATM    3  C   UNK N   1      32.257  24.890  -4.331  0.00  0.00     0.010 C 
HETATM    4  C   UNK N   1      30.846  24.680  -3.780  0.00  0.00     0.023 C 
HETATM    5  C   UNK N   1      29.854  25.571  -4.487  0.00  0.00    -0.070 C 
HETATM    6  C   UNK N   1      29.968  26.904  -4.334  0.00  0.00     0.004 C 
HETATM    7  C   UNK N   1      28.903  27.802  -4.840  0.00  0.00     0.004 C 
HETATM    8  C   UNK N   1      27.680  27.299  -5.097  0.00  0.00    -0.069 C 
HETATM    9  C   UNK N   1      26.638  28.176  -5.727  0.00  0.00     0.066 C 
HETATM   10  C   UNK N   1      25.255  27.795  -5.195  0.00  0.00     0.122 C 
HETATM   11  C   UNK N   1      24.923  26.313  -5.441  0.00  0.00     0.033 C 
HETATM   12  C   UNK N   1      26.149  25.402  -5.638  0.00  0.00     0.017 C 
HETATM   13  C   UNK N   1      27.377  25.829  -4.820  0.00  0.00    -0.013 C 
HETATM   14  C   UNK N   1      27.091  25.623  -3.330  0.00  0.00     0.021 C 
HETATM   15  C   UNK N   1      28.628  25.026  -5.227  0.00  0.00     0.027 C 
HETATM   16  C   UNK N   1      28.459  23.500  -5.182  0.00  0.00     0.011 C 
HETATM   17  C   UNK N   1      29.092  22.862  -3.952  0.00  0.00     0.011 C 
HETATM   18  C   UNK N   1      30.586  23.184  -3.900  0.00  0.00    -0.032 C 
HETATM   19  C   UNK N   1      31.174  22.539  -2.650  0.00  0.00     0.016 C 
ENDROOT
BRANCH   1  20
HETATM   20  C   UNK N   1      31.668  21.329  -5.479  0.00  0.00     0.008 C 
HETATM   21  C   UNK N   1      33.050  21.145  -6.078  0.00  0.00     0.014 C 
BRANCH  20  22
HETATM   22  C   UNK N   1      30.628  20.710  -6.351  0.00  0.00    -0.026 C 
HETATM   23  C   UNK N   1      30.255  21.296  -7.482  0.00  0.00    -0.026 C 
BRANCH  23  24
HETATM   24  C   UNK N   1      29.384  20.546  -8.429  0.00  0.00     0.007 C 
HETATM   25  C   UNK N   1      28.935  19.226  -7.823  0.00  0.00     0.014 C 
BRANCH  24  26
HETATM   26  C   UNK N   1      28.215  21.437  -8.868  0.00  0.00    -0.015 C 
HETATM   27  C   UNK N   1      28.576  22.915  -8.909  0.00  0.00     0.010 C 
HETATM   28  C   UNK N   1      26.991  21.220  -8.001  0.00  0.00     0.010 C 
ENDBRANCH  24  26
ENDBRANCH  23  24
ENDBRANCH  20  22
ENDBRANCH   1  20
BRANCH  10  29
HETATM   29  O   UNK N   1      25.173  28.078  -3.830  0.00  0.00    -0.395 OA
HETATM   30  H   UNK N   1      24.721  28.256  -2.991  0.00  0.00     0.210 HD
ENDBRANCH  10  29
TORSDOF 5
ENDMDL
MODEL 5
REMARK VINA RESULT:      -6.9     13.985     18.520
REMARK  5 active torsions:
REMARK  status: ('A' for Active; 'I' for Inactive)
REMARK    1  A    between atoms: C_2  and  C_4 
REMARK    2  A    between atoms: C_4  and  C_6 
REMARK    3  A    between atoms: C_7  and  C_8 
REMARK    4  A    between atoms: C_10  and  C_8 
REMARK    5  A    between atoms: C_19  and  O_20 
ROOT
HETATM    1  C   UNK N   1      31.692  16.231   7.361  0.00  0.00     0.002 C 
HETATM    2  C   UNK N   1      31.541  17.640   7.913  0.00  0.00     0.007 C 
HETATM    3  C   UNK N   1      32.941  18.087   8.314  0.00  0.00     0.010 C 
HETATM    4  C   UNK N   1      33.898  16.948   7.958  0.00  0.00     0.023 C 
HETATM    5  C   UNK N   1      34.330  16.200   9.194  0.00  0.00    -0.070 C 
HETATM    6  C   UNK N   1      35.073  16.850  10.110  0.00  0.00     0.004 C 
HETATM    7  C   UNK N   1      35.686  16.104  11.233  0.00  0.00     0.004 C 
HETATM    8  C   UNK N   1      35.828  14.767  11.141  0.00  0.00    -0.069 C 
HETATM    9  C   UNK N   1      36.330  13.994  12.325  0.00  0.00     0.066 C 
HETATM   10  C   UNK N   1      37.171  12.809  11.845  0.00  0.00     0.122 C 
HETATM   11  C   UNK N   1      36.389  11.884  10.898  0.00  0.00     0.033 C 
HETATM   12  C   UNK N   1      35.193  12.547  10.190  0.00  0.00     0.017 C 
HETATM   13  C   UNK N   1      35.409  14.034   9.870  0.00  0.00    -0.013 C 
HETATM   14  C   UNK N   1      36.498  14.170   8.802  0.00  0.00     0.021 C 
HETATM   15  C   UNK N   1      34.108  14.695   9.375  0.00  0.00     0.027 C 
HETATM   16  C   UNK N   1      33.431  13.985   8.193  0.00  0.00     0.011 C 
HETATM   17  C   UNK N   1      33.674  14.679   6.858  0.00  0.00     0.011 C 
HETATM   18  C   UNK N   1      33.164  16.119   6.912  0.00  0.00    -0.032 C 
HETATM   19  C   UNK N   1      33.438  16.777   5.563  0.00  0.00     0.016 C 
ENDROOT
BRANCH   1  20
HETATM   20  C   UNK N   1      30.567  15.871   6.366  0.00  0.00     0.008 C 
HETATM   21  C   UNK N   1      30.998  14.829   5.351  0.00  0.00     0.014 C 
BRANCH  20  22
HETATM   22  C   UNK N   1      30.050  17.093   5.683  0.00  0.00    -0.026 C 
HETATM   23  C   UNK N   1      28.778  17.450   5.802  0.00  0.00    -0.026 C 
BRANCH  23  24
HETATM   24  C   UNK N   1      28.354  18.784   5.293  0.00  0.00     0.007 C 
HETATM   25  C   UNK N   1      27.564  18.645   4.002  0.00  0.00     0.014 C 
BRANCH  24  26
HETATM   26  C   UNK N   1      27.587  19.533   6.391  0.00  0.00    -0.015 C 
HETATM   27  C   UNK N   1      27.570  21.040   6.182  0.00  0.00     0.010 C 
HETATM   28  C   UNK N   1      28.119  19.201   7.770  0.00  0.00     0.010 C 
ENDBRANCH  24  26
ENDBRANCH  23  24
ENDBRANCH  20  22
ENDBRANCH   1  20
BRANCH  10  29
HETATM   29  O   UNK N   1      38.327  13.269  11.211  0.00  0.00    -0.395 OA
HETATM   30  H   UNK N   1      39.235  13.207  10.875  0.00  0.00     0.210 HD
ENDBRANCH  10  29
TORSDOF 5
ENDMDL
MODEL 6
REMARK VINA RESULT:      -6.8     18.526     22.665
REMARK  5 active torsions:
REMARK  status: ('A' for Active; 'I' for Inactive)
REMARK    1  A    between atoms: C_2  and  C_4 
REMARK    2  A    between atoms: C_4  and  C_6 
REMARK    3  A    between atoms: C_7  and  C_8 
REMARK    4  A    between atoms: C_10  and  C_8 
REMARK    5  A    between atoms: C_19  and  O_20 
ROOT
HETATM    1  C   UNK N   1      36.747  10.824  12.440  0.00  0.00     0.002 C 
HETATM    2  C   UNK N   1      35.766   9.672  12.293  0.00  0.00     0.007 C 
HETATM    3  C   UNK N   1      35.229   9.757  10.869  0.00  0.00     0.010 C 
HETATM    4  C   UNK N   1      35.930  10.936  10.192  0.00  0.00     0.023 C 
HETATM    5  C   UNK N   1      35.002  12.119  10.074  0.00  0.00    -0.070 C 
HETATM    6  C   UNK N   1      33.918  12.007   9.284  0.00  0.00     0.004 C 
HETATM    7  C   UNK N   1      33.095  13.201   8.981  0.00  0.00     0.004 C 
HETATM    8  C   UNK N   1      33.618  14.430   9.163  0.00  0.00    -0.069 C 
HETATM    9  C   UNK N   1      32.747  15.638   8.979  0.00  0.00     0.066 C 
HETATM   10  C   UNK N   1      33.581  16.790   8.413  0.00  0.00     0.122 C 
HETATM   11  C   UNK N   1      34.785  17.133   9.306  0.00  0.00     0.033 C 
HETATM   12  C   UNK N   1      35.247  15.992  10.232  0.00  0.00     0.017 C 
HETATM   13  C   UNK N   1      35.063  14.591   9.628  0.00  0.00    -0.013 C 
HETATM   14  C   UNK N   1      36.017  14.418   8.444  0.00  0.00     0.021 C 
HETATM   15  C   UNK N   1      35.325  13.491  10.675  0.00  0.00     0.027 C 
HETATM   16  C   UNK N   1      36.680  13.591  11.391  0.00  0.00     0.011 C 
HETATM   17  C   UNK N   1      37.713  12.603  10.862  0.00  0.00     0.011 C 
HETATM   18  C   UNK N   1      37.195  11.172  11.006  0.00  0.00    -0.032 C 
HETATM   19  C   UNK N   1      38.252  10.221  10.454  0.00  0.00     0.016 C 
ENDROOT
BRANCH   1  20
HETATM   20  C   UNK N   1      37.814  10.545  13.522  0.00  0.00     0.008 C 
HETATM   21  C   UNK N   1      37.729   9.134  14.074  0.00  0.00     0.014 C 
BRANCH  20  22
HETATM   22  C   UNK N   1      37.730  11.550  14.623  0.00  0.00    -0.026 C 
HETATM   23  C   UNK N   1      36.843  12.535  14.575  0.00  0.00    -0.026 C 
BRANCH  23  24
HETATM   24  C   UNK N   1      36.639  13.380  15.784  0.00  0.00     0.007 C 
HETATM   25  C   UNK N   1      37.039  14.821  15.512  0.00  0.00     0.014 C 
BRANCH  24  26
HETATM   26  C   UNK N   1      35.191  13.238  16.272  0.00  0.00    -0.015 C 
HETATM   27  C   UNK N   1      35.094  12.880  17.748  0.00  0.00     0.010 C 
HETATM   28  C   UNK N   1      34.415  12.240  15.437  0.00  0.00     0.010 C 
ENDBRANCH  24  26
ENDBRANCH  23  24
ENDBRANCH  20  22
ENDBRANCH   1  20
BRANCH  10  29
HETATM   29  O   UNK N   1      34.020  16.475   7.125  0.00  0.00    -0.395 OA
HETATM   30  H   UNK N   1      33.998  16.013   6.273  0.00  0.00     0.210 HD
ENDBRANCH  10  29
TORSDOF 5
ENDMDL
MODEL 7
REMARK VINA RESULT:      -6.7     12.193     14.686
REMARK  5 active torsions:
REMARK  status: ('A' for Active; 'I' for Inactive)
REMARK    1  A    between atoms: C_2  and  C_4 
REMARK    2  A    between atoms: C_4  and  C_6 
REMARK    3  A    between atoms: C_7  and  C_8 
REMARK    4  A    between atoms: C_10  and  C_8 
REMARK    5  A    between atoms: C_19  and  O_20 
ROOT
HETATM    1  C   UNK N   1      27.632  15.169   3.117  0.00  0.00     0.002 C 
HETATM    2  C   UNK N   1      28.192  14.735   1.772  0.00  0.00     0.007 C 
HETATM    3  C   UNK N   1      29.508  14.028   2.073  0.00  0.00     0.010 C 
HETATM    4  C   UNK N   1      29.682  14.026   3.593  0.00  0.00     0.023 C 
HETATM    5  C   UNK N   1      30.713  15.041   4.019  0.00  0.00    -0.070 C 
HETATM    6  C   UNK N   1      31.991  14.855   3.639  0.00  0.00     0.004 C 
HETATM    7  C   UNK N   1      33.063  15.710   4.199  0.00  0.00     0.004 C 
HETATM    8  C   UNK N   1      32.838  16.393   5.338  0.00  0.00    -0.069 C 
HETATM    9  C   UNK N   1      33.874  17.356   5.840  0.00  0.00     0.066 C 
HETATM   10  C   UNK N   1      33.873  17.361   7.370  0.00  0.00     0.122 C 
HETATM   11  C   UNK N   1      32.493  17.714   7.951  0.00  0.00     0.033 C 
HETATM   12  C   UNK N   1      31.308  17.456   7.002  0.00  0.00     0.017 C 
HETATM   13  C   UNK N   1      31.509  16.247   6.074  0.00  0.00    -0.013 C 
HETATM   14  C   UNK N   1      31.507  14.963   6.906  0.00  0.00     0.021 C 
HETATM   15  C   UNK N   1      30.404  16.176   5.001  0.00  0.00     0.027 C 
HETATM   16  C   UNK N   1      28.969  16.198   5.549  0.00  0.00     0.011 C 
HETATM   17  C   UNK N   1      28.313  14.823   5.568  0.00  0.00     0.011 C 
HETATM   18  C   UNK N   1      28.282  14.234   4.157  0.00  0.00    -0.032 C 
HETATM   19  C   UNK N   1      27.630  12.857   4.225  0.00  0.00     0.016 C 
ENDROOT
BRANCH   1  20
HETATM   20  C   UNK N   1      26.094  15.318   3.087  0.00  0.00     0.008 C 
HETATM   21  C   UNK N   1      25.523  15.176   1.689  0.00  0.00     0.014 C 
BRANCH  20  22
HETATM   22  C   UNK N   1      25.673  16.610   3.702  0.00  0.00    -0.026 C 
HETATM   23  C   UNK N   1      26.412  17.702   3.557  0.00  0.00    -0.026 C 
BRANCH  23  24
HETATM   24  C   UNK N   1      25.854  19.013   3.991  0.00  0.00     0.007 C 
HETATM   25  C   UNK N   1      24.389  18.878   4.376  0.00  0.00     0.014 C 
BRANCH  24  26
HETATM   26  C   UNK N   1      26.721  19.594   5.116  0.00  0.00    -0.015 C 
HETATM   27  C   UNK N   1      26.230  20.949   5.606  0.00  0.00     0.010 C 
HETATM   28  C   UNK N   1      28.179  19.680   4.711  0.00  0.00     0.010 C 
ENDBRANCH  24  26
ENDBRANCH  23  24
ENDBRANCH  20  22
ENDBRANCH   1  20
BRANCH  10  29
HETATM   29  O   UNK N   1      34.287  16.118   7.852  0.00  0.00    -0.395 OA
HETATM   30  H   UNK N   1      34.291  15.364   8.462  0.00  0.00     0.210 HD
ENDBRANCH  10  29
TORSDOF 5
ENDMDL
MODEL 8
REMARK VINA RESULT:      -6.7     24.896     28.971
REMARK  5 active torsions:
REMARK  status: ('A' for Active; 'I' for Inactive)
REMARK    1  A    between atoms: C_2  and  C_4 
REMARK    2  A    between atoms: C_4  and  C_6 
REMARK    3  A    between atoms: C_7  and  C_8 
REMARK    4  A    between atoms: C_10  and  C_8 
REMARK    5  A    between atoms: C_19  and  O_20 
ROOT
HETATM    1  C   UNK N   1      36.678   9.379  19.214  0.00  0.00     0.002 C 
HETATM    2  C   UNK N   1      36.646  10.431  20.312  0.00  0.00     0.007 C 
HETATM    3  C   UNK N   1      35.605  11.457  19.881  0.00  0.00     0.010 C 
HETATM    4  C   UNK N   1      35.016  10.972  18.555  0.00  0.00     0.023 C 
HETATM    5  C   UNK N   1      35.554  11.780  17.399  0.00  0.00    -0.070 C 
HETATM    6  C   UNK N   1      35.240  13.087  17.330  0.00  0.00     0.004 C 
HETATM    7  C   UNK N   1      35.574  13.866  16.115  0.00  0.00     0.004 C 
HETATM    8  C   UNK N   1      35.832  13.218  14.962  0.00  0.00    -0.069 C 
HETATM    9  C   UNK N   1      36.294  13.995  13.765  0.00  0.00     0.066 C 
HETATM   10  C   UNK N   1      35.746  13.348  12.490  0.00  0.00     0.122 C 
HETATM   11  C   UNK N   1      36.162  11.873  12.360  0.00  0.00     0.033 C 
HETATM   12  C   UNK N   1      36.533  11.188  13.688  0.00  0.00     0.017 C 
HETATM   13  C   UNK N   1      35.728  11.697  14.894  0.00  0.00    -0.013 C 
HETATM   14  C   UNK N   1      34.265  11.276  14.743  0.00  0.00     0.021 C 
HETATM   15  C   UNK N   1      36.295  11.146  16.218  0.00  0.00     0.027 C 
HETATM   16  C   UNK N   1      36.436   9.617  16.274  0.00  0.00     0.011 C 
HETATM   17  C   UNK N   1      35.329   8.943  17.074  0.00  0.00     0.011 C 
HETATM   18  C   UNK N   1      35.311   9.479  18.506  0.00  0.00    -0.032 C 
HETATM   19  C   UNK N   1      34.184   8.787  19.265  0.00  0.00     0.016 C 
ENDROOT
BRANCH   1  20
HETATM   20  C   UNK N   1      37.164   8.008  19.735  0.00  0.00     0.008 C 
HETATM   21  C   UNK N   1      37.112   7.909  21.249  0.00  0.00     0.014 C 
BRANCH  20  22
HETATM   22  C   UNK N   1      38.536   7.704  19.233  0.00  0.00    -0.026 C 
HETATM   23  C   UNK N   1      39.566   7.649  20.066  0.00  0.00    -0.026 C 
BRANCH  23  24
HETATM   24  C   UNK N   1      40.869   7.129  19.567  0.00  0.00     0.007 C 
HETATM   25  C   UNK N   1      40.857   7.000  18.052  0.00  0.00     0.014 C 
BRANCH  24  26
HETATM   26  C   UNK N   1      42.010   8.013  20.087  0.00  0.00    -0.015 C 
HETATM   27  C   UNK N   1      41.522   9.151  20.973  0.00  0.00     0.010 C 
HETATM   28  C   UNK N   1      42.858   8.556  18.955  0.00  0.00     0.010 C 
ENDBRANCH  24  26
ENDBRANCH  23  24
ENDBRANCH  20  22
ENDBRANCH   1  20
BRANCH  10  29
HETATM   29  O   UNK N   1      34.354  13.453  12.461  0.00  0.00    -0.395 OA
HETATM   30  H   UNK N   1      33.464  13.508  12.842  0.00  0.00     0.210 HD
ENDBRANCH  10  29
TORSDOF 5
ENDMDL
MODEL 9
REMARK VINA RESULT:      -6.6     11.315     13.510
REMARK  5 active torsions:
REMARK  status: ('A' for Active; 'I' for Inactive)
REMARK    1  A    between atoms: C_2  and  C_4 
REMARK    2  A    between atoms: C_4  and  C_6 
REMARK    3  A    between atoms: C_7  and  C_8 
REMARK    4  A    between atoms: C_10  and  C_8 
REMARK    5  A    between atoms: C_19  and  O_20 
ROOT
HETATM    1  C   UNK N   1      27.514  16.226   4.222  0.00  0.00     0.002 C 
HETATM    2  C   UNK N   1      28.555  17.294   3.923  0.00  0.00     0.007 C 
HETATM    3  C   UNK N   1      27.979  18.603   4.449  0.00  0.00     0.010 C 
HETATM    4  C   UNK N   1      26.625  18.277   5.082  0.00  0.00     0.023 C 
HETATM    5  C   UNK N   1      25.492  18.723   4.190  0.00  0.00    -0.070 C 
HETATM    6  C   UNK N   1      25.334  20.041   3.966  0.00  0.00     0.004 C 
HETATM    7  C   UNK N   1      24.125  20.534   3.267  0.00  0.00     0.004 C 
HETATM    8  C   UNK N   1      23.033  19.748   3.198  0.00  0.00    -0.069 C 
HETATM    9  C   UNK N   1      21.852  20.192   2.384  0.00  0.00     0.066 C 
HETATM   10  C   UNK N   1      20.561  19.705   3.045  0.00  0.00     0.122 C 
HETATM   11  C   UNK N   1      20.538  18.178   3.227  0.00  0.00     0.033 C 
HETATM   12  C   UNK N   1      21.925  17.510   3.249  0.00  0.00     0.017 C 
HETATM   13  C   UNK N   1      23.023  18.382   3.879  0.00  0.00    -0.013 C 
HETATM   14  C   UNK N   1      22.748  18.543   5.376  0.00  0.00     0.021 C 
HETATM   15  C   UNK N   1      24.418  17.763   3.668  0.00  0.00     0.027 C 
HETATM   16  C   UNK N   1      24.557  16.306   4.137  0.00  0.00     0.011 C 
HETATM   17  C   UNK N   1      25.274  16.172   5.474  0.00  0.00     0.011 C 
HETATM   18  C   UNK N   1      26.672  16.786   5.387  0.00  0.00    -0.032 C 
HETATM   19  C   UNK N   1      27.347  16.641   6.747  0.00  0.00     0.016 C 
ENDROOT
BRANCH   1  20
HETATM   20  C   UNK N   1      28.141  14.820   4.346  0.00  0.00     0.008 C 
HETATM   21  C   UNK N   1      29.652  14.865   4.474  0.00  0.00     0.014 C 
BRANCH  20  22
HETATM   22  C   UNK N   1      27.733  13.953   3.202  0.00  0.00    -0.026 C 
HETATM   23  C   UNK N   1      26.471  13.567   3.061  0.00  0.00    -0.026 C 
BRANCH  23  24
HETATM   24  C   UNK N   1      26.061  12.894   1.797  0.00  0.00     0.007 C 
HETATM   25  C   UNK N   1      26.554  11.456   1.765  0.00  0.00     0.014 C 
BRANCH  24  26
HETATM   26  C   UNK N   1      24.542  13.014   1.619  0.00  0.00    -0.015 C 
HETATM   27  C   UNK N   1      24.119  14.340   1.004  0.00  0.00     0.010 C 
HETATM   28  C   UNK N   1      23.807  12.783   2.924  0.00  0.00     0.010 C 
ENDBRANCH  24  26
ENDBRANCH  23  24
ENDBRANCH  20  22
ENDBRANCH   1  20
BRANCH  10  29
HETATM   29  O   UNK N   1      20.390  20.333   4.281  0.00  0.00    -0.395 OA
HETATM   30  H   UNK N   1      20.106  20.400   5.206  0.00  0.00     0.210 HD
ENDBRANCH  10  29
TORSDOF 5
ENDMDL
