MODEL 1
REMARK VINA RESULT:      -5.0      0.000      0.000
REMARK  2 active torsions:
REMARK  status: ('A' for Active; 'I' for Inactive)
REMARK    1  A    between atoms: C_1  and  C_2 
REMARK    2  A    between atoms: C_1  and  N_3 
ROOT
HETATM    1  C   UNK N   1      29.453  17.481   7.825  0.00  0.00     0.051 A 
HETATM    2  S   UNK N   1      29.973  16.987   6.312  0.00  0.00    -0.068 SA
HETATM    3  C   UNK N   1      31.593  17.182   6.554  0.00  0.00     0.085 A 
HETATM    4  C   UNK N   1      31.787  17.646   7.846  0.00  0.00    -0.001 A 
HETATM    5  C   UNK N   1      30.588  17.822   8.582  0.00  0.00     0.037 A 
HETATM    6  N   UNK N   1      32.615  16.951   5.696  0.00  0.00    -0.360 N 
ATOM      7  HN  UNK N   1      32.436  16.609   4.753  1.00  0.00     0.166 HD
HETATM    8  C   UNK N   1      33.894  17.186   6.119  0.00  0.00     0.089 A 
HETATM    9  C   UNK N   1      34.145  17.659   7.425  0.00  0.00     0.018 A 
HETATM   10  C   UNK N   1      33.074  17.893   8.303  0.00  0.00     0.015 A 
ENDROOT
BRANCH   1  11
HETATM   11  C   UNK N   1      28.069  17.555   8.304  0.00  0.00     0.109 C 
HETATM   12  N   UNK N   1      27.728  18.433   9.172  0.00  0.00    -0.385 N 
HETATM   13  H   UNK N   1      26.796  18.476   9.489  0.00  0.00     0.157 HD
HETATM   14  H   UNK N   1      28.396  19.065   9.523  0.00  0.00     0.157 HD
BRANCH  11  15
HETATM   15  N   UNK N   1      27.104  16.651   7.805  0.00  0.00    -0.385 N 
HETATM   16  H   UNK N   1      26.158  16.754   8.053  0.00  0.00     0.157 HD
HETATM   17  H   UNK N   1      27.379  15.917   7.208  0.00  0.00     0.157 HD
ENDBRANCH  11  15
ENDBRANCH   1  11
TORSDOF 2
ENDMDL
MODEL 2
REMARK VINA RESULT:      -4.8      1.307      1.750
REMARK  2 active torsions:
REMARK  status: ('A' for Active; 'I' for Inactive)
REMARK    1  A    between atoms: C_1  and  C_2 
REMARK    2  A    between atoms: C_1  and  N_3 
ROOT
HETATM    1  C   UNK N   1      29.507  17.586   7.930  0.00  0.00     0.051 A 
HETATM    2  S   UNK N   1      30.708  18.142   8.956  0.00  0.00    -0.068 SA
HETATM    3  C   UNK N   1      32.004  17.800   7.994  0.00  0.00     0.085 A 
HETATM    4  C   UNK N   1      31.535  17.231   6.820  0.00  0.00    -0.001 A 
HETATM    5  C   UNK N   1      30.125  17.101   6.764  0.00  0.00     0.037 A 
HETATM    6  N   UNK N   1      33.321  18.007   8.235  0.00  0.00    -0.360 N 
ATOM      7  HN  UNK N   1      33.629  18.429   9.111  1.00  0.00     0.166 HD
HETATM    8  C   UNK N   1      34.230  17.640   7.282  0.00  0.00     0.089 A 
HETATM    9  C   UNK N   1      33.804  17.056   6.070  0.00  0.00     0.018 A 
HETATM   10  C   UNK N   1      32.435  16.848   5.834  0.00  0.00     0.015 A 
ENDROOT
BRANCH   1  11
HETATM   11  C   UNK N   1      28.061  17.591   8.176  0.00  0.00     0.109 C 
HETATM   12  N   UNK N   1      27.561  18.337   9.091  0.00  0.00    -0.385 N 
HETATM   13  H   UNK N   1      26.588  18.335   9.250  0.00  0.00     0.157 HD
HETATM   14  H   UNK N   1      28.147  18.911   9.634  0.00  0.00     0.157 HD
BRANCH  11  15
HETATM   15  N   UNK N   1      27.214  16.769   7.400  0.00  0.00    -0.385 N 
HETATM   16  H   UNK N   1      26.568  17.176   6.779  0.00  0.00     0.157 HD
HETATM   17  H   UNK N   1      27.270  15.790   7.481  0.00  0.00     0.157 HD
ENDBRANCH  11  15
ENDBRANCH   1  11
TORSDOF 2
ENDMDL
MODEL 3
REMARK VINA RESULT:      -4.8      7.042      8.561
REMARK  2 active torsions:
REMARK  status: ('A' for Active; 'I' for Inactive)
REMARK    1  A    between atoms: C_1  and  C_2 
REMARK    2  A    between atoms: C_1  and  N_3 
ROOT
HETATM    1  C   UNK N   1      22.576  19.934   3.037  0.00  0.00     0.051 A 
HETATM    2  S   UNK N   1      22.823  18.692   4.133  0.00  0.00    -0.068 SA
HETATM    3  C   UNK N   1      24.442  18.912   4.363  0.00  0.00     0.085 A 
HETATM    4  C   UNK N   1      24.851  19.979   3.578  0.00  0.00    -0.001 A 
HETATM    5  C   UNK N   1      23.810  20.571   2.820  0.00  0.00     0.037 A 
HETATM    6  N   UNK N   1      25.290  18.217   5.157  0.00  0.00    -0.360 N 
ATOM      7  HN  UNK N   1      24.954  17.437   5.721  1.00  0.00     0.166 HD
HETATM    8  C   UNK N   1      26.608  18.580   5.190  0.00  0.00     0.089 A 
HETATM    9  C   UNK N   1      27.075  19.660   4.410  0.00  0.00     0.018 A 
HETATM   10  C   UNK N   1      26.183  20.372   3.591  0.00  0.00     0.015 A 
ENDROOT
BRANCH   1  11
HETATM   11  C   UNK N   1      21.310  20.312   2.400  0.00  0.00     0.109 C 
HETATM   12  N   UNK N   1      20.860  21.507   2.507  0.00  0.00    -0.385 N 
HETATM   13  H   UNK N   1      20.009  21.753   2.076  0.00  0.00     0.157 HD
HETATM   14  H   UNK N   1      21.364  22.179   3.020  0.00  0.00     0.157 HD
BRANCH  11  15
HETATM   15  N   UNK N   1      20.581  19.352   1.662  0.00  0.00    -0.385 N 
HETATM   16  H   UNK N   1      19.651  19.537   1.399  0.00  0.00     0.157 HD
HETATM   17  H   UNK N   1      21.003  18.499   1.412  0.00  0.00     0.157 HD
ENDBRANCH  11  15
ENDBRANCH   1  11
TORSDOF 2
ENDMDL
MODEL 4
REMARK VINA RESULT:      -4.7      2.710      4.430
REMARK  2 active torsions:
REMARK  status: ('A' for Active; 'I' for Inactive)
REMARK    1  A    between atoms: C_1  and  C_2 
REMARK    2  A    between atoms: C_1  and  N_3 
ROOT
HETATM    1  C   UNK N   1      33.450  16.714   8.630  0.00  0.00     0.051 A 
HETATM    2  S   UNK N   1      31.794  16.649   8.387  0.00  0.00    -0.068 SA
HETATM    3  C   UNK N   1      31.787  17.016   6.779  0.00  0.00     0.085 A 
HETATM    4  C   UNK N   1      33.098  17.206   6.370  0.00  0.00    -0.001 A 
HETATM    5  C   UNK N   1      34.054  17.039   7.403  0.00  0.00     0.037 A 
HETATM    6  N   UNK N   1      30.732  17.132   5.937  0.00  0.00    -0.360 N 
ATOM      7  HN  UNK N   1      29.781  16.985   6.273  1.00  0.00     0.166 HD
HETATM    8  C   UNK N   1      30.966  17.448   4.628  0.00  0.00     0.089 A 
HETATM    9  C   UNK N   1      32.283  17.651   4.162  0.00  0.00     0.018 A 
HETATM   10  C   UNK N   1      33.367  17.528   5.047  0.00  0.00     0.015 A 
ENDROOT
BRANCH   1  11
HETATM   11  C   UNK N   1      34.169  16.479   9.887  0.00  0.00     0.109 C 
HETATM   12  N   UNK N   1      35.066  17.303  10.286  0.00  0.00    -0.385 N 
HETATM   13  H   UNK N   1      35.545  17.138  11.131  0.00  0.00     0.157 HD
HETATM   14  H   UNK N   1      35.277  18.100   9.748  0.00  0.00     0.157 HD
BRANCH  11  15
HETATM   15  N   UNK N   1      33.870  15.337  10.663  0.00  0.00    -0.385 N 
HETATM   16  H   UNK N   1      34.599  14.810  11.064  0.00  0.00     0.157 HD
HETATM   17  H   UNK N   1      32.934  15.068  10.804  0.00  0.00     0.157 HD
ENDBRANCH  11  15
ENDBRANCH   1  11
TORSDOF 2
ENDMDL
MODEL 5
REMARK VINA RESULT:      -4.7     10.796     11.788
REMARK  2 active torsions:
REMARK  status: ('A' for Active; 'I' for Inactive)
REMARK    1  A    between atoms: C_1  and  C_2 
REMARK    2  A    between atoms: C_1  and  N_3 
ROOT
HETATM    1  C   UNK N   1      35.606  12.755  14.812  0.00  0.00     0.051 A 
HETATM    2  S   UNK N   1      35.805  11.194  15.387  0.00  0.00    -0.068 SA
HETATM    3  C   UNK N   1      35.606  11.517  16.992  0.00  0.00     0.085 A 
HETATM    4  C   UNK N   1      35.373  12.876  17.137  0.00  0.00    -0.001 A 
HETATM    5  C   UNK N   1      35.370  13.594  15.915  0.00  0.00     0.037 A 
HETATM    6  N   UNK N   1      35.648  10.663  18.043  0.00  0.00    -0.360 N 
ATOM      7  HN  UNK N   1      35.821   9.669  17.899  1.00  0.00     0.166 HD
HETATM    8  C   UNK N   1      35.452  11.159  19.302  0.00  0.00     0.089 A 
HETATM    9  C   UNK N   1      35.212  12.536  19.503  0.00  0.00     0.018 A 
HETATM   10  C   UNK N   1      35.171  13.409  18.403  0.00  0.00     0.015 A 
ENDROOT
BRANCH   1  11
HETATM   11  C   UNK N   1      35.663  13.196  13.415  0.00  0.00     0.109 C 
HETATM   12  N   UNK N   1      34.738  12.867  12.591  0.00  0.00    -0.385 N 
HETATM   13  H   UNK N   1      34.783  13.168  11.654  0.00  0.00     0.157 HD
HETATM   14  H   UNK N   1      33.982  12.314  12.894  0.00  0.00     0.157 HD
BRANCH  11  15
HETATM   15  N   UNK N   1      36.745  13.991  12.973  0.00  0.00    -0.385 N 
HETATM   16  H   UNK N   1      37.333  14.429  13.629  0.00  0.00     0.157 HD
HETATM   17  H   UNK N   1      36.910  14.106  12.009  0.00  0.00     0.157 HD
ENDBRANCH  11  15
ENDBRANCH   1  11
TORSDOF 2
ENDMDL
MODEL 6
REMARK VINA RESULT:      -4.7     10.285     10.968
REMARK  2 active torsions:
REMARK  status: ('A' for Active; 'I' for Inactive)
REMARK    1  A    between atoms: C_1  and  C_2 
REMARK    2  A    between atoms: C_1  and  N_3 
ROOT
HETATM    1  C   UNK N   1      35.443  13.444  16.774  0.00  0.00     0.051 A 
HETATM    2  S   UNK N   1      36.341  13.621  15.372  0.00  0.00    -0.068 SA
HETATM    3  C   UNK N   1      35.561  12.491  14.458  0.00  0.00     0.085 A 
HETATM    4  C   UNK N   1      34.556  11.927  15.229  0.00  0.00    -0.001 A 
HETATM    5  C   UNK N   1      34.472  12.453  16.543  0.00  0.00     0.037 A 
HETATM    6  N   UNK N   1      35.798  12.121  13.177  0.00  0.00    -0.360 N 
ATOM      7  HN  UNK N   1      36.546  12.558  12.640  1.00  0.00     0.166 HD
HETATM    8  C   UNK N   1      35.015  11.150  12.617  0.00  0.00     0.089 A 
HETATM    9  C   UNK N   1      33.978  10.545  13.359  0.00  0.00     0.018 A 
HETATM   10  C   UNK N   1      33.744  10.939  14.687  0.00  0.00     0.015 A 
ENDROOT
BRANCH   1  11
HETATM   11  C   UNK N   1      35.614  14.176  18.033  0.00  0.00     0.109 C 
HETATM   12  N   UNK N   1      35.180  13.686  19.135  0.00  0.00    -0.385 N 
HETATM   13  H   UNK N   1      35.299  14.184  19.976  0.00  0.00     0.157 HD
HETATM   14  H   UNK N   1      34.728  12.812  19.140  0.00  0.00     0.157 HD
BRANCH  11  15
HETATM   15  N   UNK N   1      36.263  15.432  18.032  0.00  0.00    -0.385 N 
HETATM   16  H   UNK N   1      36.352  15.939  17.193  0.00  0.00     0.157 HD
HETATM   17  H   UNK N   1      36.625  15.799  18.870  0.00  0.00     0.157 HD
ENDBRANCH  11  15
ENDBRANCH   1  11
TORSDOF 2
ENDMDL
MODEL 7
REMARK VINA RESULT:      -4.7      9.529     10.606
REMARK  2 active torsions:
REMARK  status: ('A' for Active; 'I' for Inactive)
REMARK    1  A    between atoms: C_1  and  C_2 
REMARK    2  A    between atoms: C_1  and  N_3 
ROOT
HETATM    1  C   UNK N   1      21.623  13.180   9.863  0.00  0.00     0.051 A 
HETATM    2  S   UNK N   1      22.662  13.435   8.574  0.00  0.00    -0.068 SA
HETATM    3  C   UNK N   1      21.951  14.797   7.975  0.00  0.00     0.085 A 
HETATM    4  C   UNK N   1      20.860  15.105   8.774  0.00  0.00    -0.001 A 
HETATM    5  C   UNK N   1      20.658  14.202   9.847  0.00  0.00     0.037 A 
HETATM    6  N   UNK N   1      22.307  15.541   6.901  0.00  0.00    -0.360 N 
ATOM      7  HN  UNK N   1      23.116  15.284   6.336  1.00  0.00     0.166 HD
HETATM    8  C   UNK N   1      21.562  16.643   6.587  0.00  0.00     0.089 A 
HETATM    9  C   UNK N   1      20.441  16.999   7.369  0.00  0.00     0.018 A 
HETATM   10  C   UNK N   1      20.084  16.218   8.480  0.00  0.00     0.015 A 
ENDROOT
BRANCH   1  11
HETATM   11  C   UNK N   1      21.684  12.095  10.847  0.00  0.00     0.109 C 
HETATM   12  N   UNK N   1      20.742  11.939  11.702  0.00  0.00    -0.385 N 
HETATM   13  H   UNK N   1      20.791  11.207  12.360  0.00  0.00     0.157 HD
HETATM   14  H   UNK N   1      19.971  12.550  11.702  0.00  0.00     0.157 HD
BRANCH  11  15
HETATM   15  N   UNK N   1      22.790  11.214  10.853  0.00  0.00    -0.385 N 
HETATM   16  H   UNK N   1      23.626  11.477  11.300  0.00  0.00     0.157 HD
HETATM   17  H   UNK N   1      22.723  10.337  10.411  0.00  0.00     0.157 HD
ENDBRANCH  11  15
ENDBRANCH   1  11
TORSDOF 2
ENDMDL
MODEL 8
REMARK VINA RESULT:      -4.5      3.112      4.719
REMARK  2 active torsions:
REMARK  status: ('A' for Active; 'I' for Inactive)
REMARK    1  A    between atoms: C_1  and  C_2 
REMARK    2  A    between atoms: C_1  and  N_3 
ROOT
HETATM    1  C   UNK N   1      29.302  18.165   7.876  0.00  0.00     0.051 A 
HETATM    2  S   UNK N   1      29.512  17.546   6.334  0.00  0.00    -0.068 SA
HETATM    3  C   UNK N   1      28.447  18.530   5.547  0.00  0.00     0.085 A 
HETATM    4  C   UNK N   1      27.882  19.389   6.477  0.00  0.00    -0.001 A 
HETATM    5  C   UNK N   1      28.353  19.199   7.800  0.00  0.00     0.037 A 
HETATM    6  N   UNK N   1      28.126  18.556   4.232  0.00  0.00    -0.360 N 
ATOM      7  HN  UNK N   1      28.562  17.909   3.577  1.00  0.00     0.166 HD
HETATM    8  C   UNK N   1      27.205  19.469   3.798  0.00  0.00     0.089 A 
HETATM    9  C   UNK N   1      26.600  20.367   4.705  0.00  0.00     0.018 A 
HETATM   10  C   UNK N   1      26.944  20.327   6.066  0.00  0.00     0.015 A 
ENDROOT
BRANCH   1  11
HETATM   11  C   UNK N   1      29.975  17.728   9.104  0.00  0.00     0.109 C 
HETATM   12  N   UNK N   1      29.714  18.293  10.224  0.00  0.00    -0.385 N 
HETATM   13  H   UNK N   1      30.170  17.993  11.044  0.00  0.00     0.157 HD
HETATM   14  H   UNK N   1      29.058  19.026  10.265  0.00  0.00     0.157 HD
BRANCH  11  15
HETATM   15  N   UNK N   1      30.917  16.676   9.052  0.00  0.00    -0.385 N 
HETATM   16  H   UNK N   1      31.352  16.364   9.877  0.00  0.00     0.157 HD
HETATM   17  H   UNK N   1      31.138  16.255   8.189  0.00  0.00     0.157 HD
ENDBRANCH  11  15
ENDBRANCH   1  11
TORSDOF 2
ENDMDL
MODEL 9
REMARK VINA RESULT:      -4.5      4.830      6.323
REMARK  2 active torsions:
REMARK  status: ('A' for Active; 'I' for Inactive)
REMARK    1  A    between atoms: C_1  and  C_2 
REMARK    2  A    between atoms: C_1  and  N_3 
ROOT
HETATM    1  C   UNK N   1      34.632  16.584   9.367  0.00  0.00     0.051 A 
HETATM    2  S   UNK N   1      33.907  15.075   9.346  0.00  0.00    -0.068 SA
HETATM    3  C   UNK N   1      34.541  14.499  10.755  0.00  0.00     0.085 A 
HETATM    4  C   UNK N   1      35.355  15.481  11.299  0.00  0.00    -0.001 A 
HETATM    5  C   UNK N   1      35.420  16.669  10.528  0.00  0.00     0.037 A 
HETATM    6  N   UNK N   1      34.351  13.294  11.344  0.00  0.00    -0.360 N 
ATOM      7  HN  UNK N   1      33.746  12.596  10.915  1.00  0.00     0.166 HD
HETATM    8  C   UNK N   1      34.987  13.032  12.526  0.00  0.00     0.089 A 
HETATM    9  C   UNK N   1      35.826  13.999  13.121  0.00  0.00     0.018 A 
HETATM   10  C   UNK N   1      36.014  15.244  12.498  0.00  0.00     0.015 A 
ENDROOT
BRANCH   1  11
HETATM   11  C   UNK N   1      34.491  17.648   8.366  0.00  0.00     0.109 C 
HETATM   12  N   UNK N   1      34.907  18.834   8.616  0.00  0.00    -0.385 N 
HETATM   13  H   UNK N   1      34.808  19.542   7.938  0.00  0.00     0.157 HD
HETATM   14  H   UNK N   1      35.325  19.037   9.483  0.00  0.00     0.157 HD
BRANCH  11  15
HETATM   15  N   UNK N   1      33.892  17.362   7.119  0.00  0.00    -0.385 N 
HETATM   16  H   UNK N   1      33.893  18.041   6.406  0.00  0.00     0.157 HD
HETATM   17  H   UNK N   1      33.473  16.485   6.963  0.00  0.00     0.157 HD
ENDBRANCH  11  15
ENDBRANCH   1  11
TORSDOF 2
ENDMDL
