REMARK  5 active torsions:
REMARK  status: ('A' for Active; 'I' for Inactive)
REMARK    1  A    between atoms: C_3  and  S_11 
REMARK    2  A    between atoms: C_6  and  C_7 
REMARK       I    between atoms: C_7  and  N_9 
REMARK    3  A    between atoms: N_9  and  C_10 
REMARK    4  A    between atoms: C_10  and  C_15 
REMARK    5  A    between atoms: S_11  and  N_12 
ROOT
HETATM    1  C   UNK N   1      -1.760  -1.153   0.677  0.00  0.00     0.251 C 
HETATM    2  O   UNK N   1      -2.537  -1.812   1.356  0.00  0.00    -0.268 OA
HETATM    3  N   UNK N   1      -2.215   0.005   0.126  0.00  0.00    -0.352 N 
HETATM    4  H   UNK N   1      -3.113   0.312   0.388  0.00  0.00     0.163 HD
ENDROOT
BRANCH   1   5
HETATM    5  C   UNK N   1      -0.382  -1.686   0.456  0.00  0.00     0.032 A 
HETATM    6  C   UNK N   1       0.632  -0.900  -0.113  0.00  0.00     0.018 A 
HETATM    7  C   UNK N   1       1.902  -1.428  -0.341  0.00  0.00     0.026 A 
HETATM    8  C   UNK N   1       2.177  -2.754  -0.007  0.00  0.00     0.079 A 
HETATM    9  C   UNK N   1       1.185  -3.546   0.578  0.00  0.00     0.026 A 
HETATM   10  C   UNK N   1      -0.085  -3.010   0.819  0.00  0.00     0.018 A 
BRANCH   8  11
HETATM   11  S   UNK N   1       3.776  -3.449  -0.398  0.00  0.00     0.256 S 
HETATM   12  O   UNK N   1       4.400  -2.786  -1.636  0.00  0.00    -0.201 OA
HETATM   13  O   UNK N   1       3.688  -4.915  -0.848  0.00  0.00    -0.201 OA
BRANCH  11  14
HETATM   14  N   UNK N   1       5.044  -3.410   0.827  0.00  0.00    -0.324 N 
HETATM   15  H   UNK N   1       5.430  -4.034   1.536  0.00  0.00     0.169 HD
HETATM   16  H   UNK N   1       5.526  -2.511   0.827  0.00  0.00     0.169 HD
ENDBRANCH  11  14
ENDBRANCH   8  11
ENDBRANCH   1   5
BRANCH   3  17
HETATM   17  C   UNK N   1      -1.480   0.819  -0.816  0.00  0.00     0.167 C 
BRANCH  17  18
HETATM   18  C   UNK N   1      -1.530   2.268  -0.448  0.00  0.00     0.037 A 
HETATM   19  C   UNK N   1      -2.764   2.930  -0.325  0.00  0.00     0.127 A 
HETATM   20  C   UNK N   1      -2.799   4.290  -0.006  0.00  0.00     0.043 A 
HETATM   21  F   UNK N   1      -3.927   2.260  -0.518  0.00  0.00    -0.205 F 
HETATM   22  C   UNK N   1      -1.610   4.997   0.187  0.00  0.00     0.006 A 
HETATM   23  C   UNK N   1      -0.381   4.345   0.061  0.00  0.00     0.043 A 
HETATM   24  C   UNK N   1      -0.336   2.984  -0.255  0.00  0.00     0.127 A 
HETATM   25  F   UNK N   1       0.866   2.369  -0.386  0.00  0.00    -0.205 F 
ENDBRANCH  17  18
ENDBRANCH   3  17
TORSDOF 5
