MODEL 1
REMARK VINA RESULT:      -7.4      0.000      0.000
REMARK  5 active torsions:
REMARK  status: ('A' for Active; 'I' for Inactive)
REMARK    1  A    between atoms: C_3  and  S_11 
REMARK    2  A    between atoms: C_6  and  C_7 
REMARK       I    between atoms: C_7  and  N_9 
REMARK    3  A    between atoms: N_9  and  C_10 
REMARK    4  A    between atoms: C_10  and  C_15 
REMARK    5  A    between atoms: S_11  and  N_12 
ROOT
HETATM    1  C   UNK N   1      28.207  18.087   8.705  0.00  0.00     0.251 C 
HETATM    2  O   UNK N   1      27.674  17.357   9.530  0.00  0.00    -0.268 OA
HETATM    3  N   UNK N   1      27.437  19.021   8.084  0.00  0.00    -0.352 N 
HETATM    4  H   UNK N   1      26.514  19.137   8.405  0.00  0.00     0.163 HD
ENDROOT
BRANCH   1   5
HETATM    5  C   UNK N   1      29.653  17.872   8.397  0.00  0.00     0.032 A 
HETATM    6  C   UNK N   1      30.660  18.633   9.010  0.00  0.00     0.018 A 
HETATM    7  C   UNK N   1      32.002  18.439   8.683  0.00  0.00     0.026 A 
HETATM    8  C   UNK N   1      32.357  17.483   7.732  0.00  0.00     0.079 A 
HETATM    9  C   UNK N   1      31.369  16.703   7.125  0.00  0.00     0.026 A 
HETATM   10  C   UNK N   1      30.025  16.889   7.465  0.00  0.00     0.018 A 
BRANCH   8  11
HETATM   11  S   UNK N   1      34.068  17.315   7.247  0.00  0.00     0.256 S 
HETATM   12  O   UNK N   1      34.928  18.474   7.774  0.00  0.00    -0.201 OA
HETATM   13  O   UNK N   1      34.267  17.451   5.730  0.00  0.00    -0.201 OA
BRANCH  11  14
HETATM   14  N   UNK N   1      34.944  15.854   7.705  0.00  0.00    -0.324 N 
HETATM   15  H   UNK N   1      34.901  15.145   8.438  0.00  0.00     0.169 HD
HETATM   16  H   UNK N   1      35.708  15.666   7.056  0.00  0.00     0.169 HD
ENDBRANCH  11  14
ENDBRANCH   8  11
ENDBRANCH   1   5
BRANCH   3  17
HETATM   17  C   UNK N   1      27.871  19.856   6.986  0.00  0.00     0.167 C 
BRANCH  17  18
HETATM   18  C   UNK N   1      27.038  19.635   5.763  0.00  0.00     0.037 A 
HETATM   19  C   UNK N   1      27.170  18.452   5.015  0.00  0.00     0.127 A 
HETATM   20  C   UNK N   1      26.406  18.266   3.860  0.00  0.00     0.043 A 
HETATM   21  F   UNK N   1      28.039  17.485   5.403  0.00  0.00    -0.205 F 
HETATM   22  C   UNK N   1      25.513  19.256   3.442  0.00  0.00     0.006 A 
HETATM   23  C   UNK N   1      25.382  20.435   4.179  0.00  0.00     0.043 A 
HETATM   24  C   UNK N   1      26.140  20.629   5.338  0.00  0.00     0.127 A 
HETATM   25  F   UNK N   1      26.010  21.785   6.035  0.00  0.00    -0.205 F 
ENDBRANCH  17  18
ENDBRANCH   3  17
TORSDOF 5
ENDMDL
MODEL 2
REMARK VINA RESULT:      -7.4      0.044      1.778
REMARK  5 active torsions:
REMARK  status: ('A' for Active; 'I' for Inactive)
REMARK    1  A    between atoms: C_3  and  S_11 
REMARK    2  A    between atoms: C_6  and  C_7 
REMARK       I    between atoms: C_7  and  N_9 
REMARK    3  A    between atoms: N_9  and  C_10 
REMARK    4  A    between atoms: C_10  and  C_15 
REMARK    5  A    between atoms: S_11  and  N_12 
ROOT
HETATM    1  C   UNK N   1      28.206  18.100   8.688  0.00  0.00     0.251 C 
HETATM    2  O   UNK N   1      27.661  17.366   9.503  0.00  0.00    -0.268 OA
HETATM    3  N   UNK N   1      27.446  19.040   8.065  0.00  0.00    -0.352 N 
HETATM    4  H   UNK N   1      26.519  19.158   8.377  0.00  0.00     0.163 HD
ENDROOT
BRANCH   1   5
HETATM    5  C   UNK N   1      29.655  17.883   8.394  0.00  0.00     0.032 A 
HETATM    6  C   UNK N   1      30.656  18.651   9.008  0.00  0.00     0.018 A 
HETATM    7  C   UNK N   1      32.000  18.454   8.694  0.00  0.00     0.026 A 
HETATM    8  C   UNK N   1      32.364  17.487   7.757  0.00  0.00     0.079 A 
HETATM    9  C   UNK N   1      31.382  16.700   7.151  0.00  0.00     0.026 A 
HETATM   10  C   UNK N   1      30.034  16.889   7.477  0.00  0.00     0.018 A 
BRANCH   8  11
HETATM   11  S   UNK N   1      34.079  17.315   7.288  0.00  0.00     0.256 S 
HETATM   12  O   UNK N   1      34.933  18.483   7.804  0.00  0.00    -0.201 OA
HETATM   13  O   UNK N   1      34.290  17.429   5.771  0.00  0.00    -0.201 OA
BRANCH  11  14
HETATM   14  N   UNK N   1      34.953  15.862   7.775  0.00  0.00    -0.324 N 
HETATM   15  H   UNK N   1      35.019  15.258   8.594  0.00  0.00     0.169 HD
HETATM   16  H   UNK N   1      35.566  15.535   7.027  0.00  0.00     0.169 HD
ENDBRANCH  11  14
ENDBRANCH   8  11
ENDBRANCH   1   5
BRANCH   3  17
HETATM   17  C   UNK N   1      27.894  19.881   6.977  0.00  0.00     0.167 C 
BRANCH  17  18
HETATM   18  C   UNK N   1      27.077  19.667   5.743  0.00  0.00     0.037 A 
HETATM   19  C   UNK N   1      26.132  20.626   5.339  0.00  0.00     0.127 A 
HETATM   20  C   UNK N   1      25.356  20.406   4.198  0.00  0.00     0.043 A 
HETATM   21  F   UNK N   1      25.963  21.768   6.050  0.00  0.00    -0.205 F 
HETATM   22  C   UNK N   1      25.512  19.231   3.459  0.00  0.00     0.006 A 
HETATM   23  C   UNK N   1      26.446  18.272   3.859  0.00  0.00     0.043 A 
HETATM   24  C   UNK N   1      27.229  18.486   4.997  0.00  0.00     0.127 A 
HETATM   25  F   UNK N   1      28.123  17.539   5.379  0.00  0.00    -0.205 F 
ENDBRANCH  17  18
ENDBRANCH   3  17
TORSDOF 5
ENDMDL
MODEL 3
REMARK VINA RESULT:      -7.1      7.805     10.913
REMARK  5 active torsions:
REMARK  status: ('A' for Active; 'I' for Inactive)
REMARK    1  A    between atoms: C_3  and  S_11 
REMARK    2  A    between atoms: C_6  and  C_7 
REMARK       I    between atoms: C_7  and  N_9 
REMARK    3  A    between atoms: N_9  and  C_10 
REMARK    4  A    between atoms: C_10  and  C_15 
REMARK    5  A    between atoms: S_11  and  N_12 
ROOT
HETATM    1  C   UNK N   1      37.040  13.414  11.035  0.00  0.00     0.251 C 
HETATM    2  O   UNK N   1      38.141  13.088  10.608  0.00  0.00    -0.268 OA
HETATM    3  N   UNK N   1      36.541  12.733  12.102  0.00  0.00    -0.352 N 
HETATM    4  H   UNK N   1      37.133  12.084  12.547  0.00  0.00     0.163 HD
ENDROOT
BRANCH   1   5
HETATM    5  C   UNK N   1      36.297  14.500  10.329  0.00  0.00     0.032 A 
HETATM    6  C   UNK N   1      35.786  14.324   9.033  0.00  0.00     0.018 A 
HETATM    7  C   UNK N   1      35.125  15.363   8.379  0.00  0.00     0.026 A 
HETATM    8  C   UNK N   1      34.968  16.597   9.010  0.00  0.00     0.079 A 
HETATM    9  C   UNK N   1      35.454  16.785  10.307  0.00  0.00     0.026 A 
HETATM   10  C   UNK N   1      36.105  15.736  10.967  0.00  0.00     0.018 A 
BRANCH   8  11
HETATM   11  S   UNK N   1      34.210  17.951   8.123  0.00  0.00     0.256 S 
HETATM   12  O   UNK N   1      34.444  17.844   6.608  0.00  0.00    -0.201 OA
HETATM   13  O   UNK N   1      34.866  19.304   8.439  0.00  0.00    -0.201 OA
BRANCH  11  14
HETATM   14  N   UNK N   1      32.476  18.219   8.298  0.00  0.00    -0.324 N 
HETATM   15  H   UNK N   1      31.608  17.794   7.970  0.00  0.00     0.169 HD
HETATM   16  H   UNK N   1      32.288  19.025   8.894  0.00  0.00     0.169 HD
ENDBRANCH  11  14
ENDBRANCH   8  11
ENDBRANCH   1   5
BRANCH   3  17
HETATM   17  C   UNK N   1      35.205  12.889  12.633  0.00  0.00     0.167 C 
BRANCH  17  18
HETATM   18  C   UNK N   1      35.182  12.739  14.121  0.00  0.00     0.037 A 
HETATM   19  C   UNK N   1      34.419  11.724  14.723  0.00  0.00     0.127 A 
HETATM   20  C   UNK N   1      34.384  11.608  16.115  0.00  0.00     0.043 A 
HETATM   21  F   UNK N   1      33.709  10.853  13.963  0.00  0.00    -0.205 F 
HETATM   22  C   UNK N   1      35.102  12.502  16.913  0.00  0.00     0.006 A 
HETATM   23  C   UNK N   1      35.858  13.515  16.319  0.00  0.00     0.043 A 
HETATM   24  C   UNK N   1      35.902  13.637  14.927  0.00  0.00     0.127 A 
HETATM   25  F   UNK N   1      36.630  14.635  14.367  0.00  0.00    -0.205 F 
ENDBRANCH  17  18
ENDBRANCH   3  17
TORSDOF 5
ENDMDL
MODEL 4
REMARK VINA RESULT:      -6.9      3.467      5.154
REMARK  5 active torsions:
REMARK  status: ('A' for Active; 'I' for Inactive)
REMARK    1  A    between atoms: C_3  and  S_11 
REMARK    2  A    between atoms: C_6  and  C_7 
REMARK       I    between atoms: C_7  and  N_9 
REMARK    3  A    between atoms: N_9  and  C_10 
REMARK    4  A    between atoms: C_10  and  C_15 
REMARK    5  A    between atoms: S_11  and  N_12 
ROOT
HETATM    1  C   UNK N   1      33.755  17.946   7.738  0.00  0.00     0.251 C 
HETATM    2  O   UNK N   1      34.641  18.768   7.930  0.00  0.00    -0.268 OA
HETATM    3  N   UNK N   1      32.791  17.810   8.690  0.00  0.00    -0.352 N 
HETATM    4  H   UNK N   1      32.793  18.454   9.435  0.00  0.00     0.163 HD
ENDROOT
BRANCH   1   5
HETATM    5  C   UNK N   1      33.814  17.112   6.500  0.00  0.00     0.032 A 
HETATM    6  C   UNK N   1      33.202  17.519   5.305  0.00  0.00     0.018 A 
HETATM    7  C   UNK N   1      33.242  16.710   4.170  0.00  0.00     0.026 A 
HETATM    8  C   UNK N   1      33.892  15.477   4.215  0.00  0.00     0.079 A 
HETATM    9  C   UNK N   1      34.524  15.063   5.391  0.00  0.00     0.026 A 
HETATM   10  C   UNK N   1      34.495  15.883   6.525  0.00  0.00     0.018 A 
BRANCH   8  11
HETATM   11  S   UNK N   1      33.849  14.404   2.787  0.00  0.00     0.256 S 
HETATM   12  O   UNK N   1      34.470  15.073   1.550  0.00  0.00    -0.201 OA
HETATM   13  O   UNK N   1      32.418  14.128   2.299  0.00  0.00    -0.201 OA
BRANCH  11  14
HETATM   14  N   UNK N   1      34.623  12.822   2.885  0.00  0.00    -0.324 N 
HETATM   15  H   UNK N   1      35.167  12.208   2.280  0.00  0.00     0.169 HD
HETATM   16  H   UNK N   1      34.487  12.405   3.806  0.00  0.00     0.169 HD
ENDBRANCH  11  14
ENDBRANCH   8  11
ENDBRANCH   1   5
BRANCH   3  17
HETATM   17  C   UNK N   1      31.766  16.791   8.691  0.00  0.00     0.167 C 
BRANCH  17  18
HETATM   18  C   UNK N   1      30.497  17.287   8.074  0.00  0.00     0.037 A 
HETATM   19  C   UNK N   1      30.027  16.735   6.869  0.00  0.00     0.127 A 
HETATM   20  C   UNK N   1      28.854  17.223   6.287  0.00  0.00     0.043 A 
HETATM   21  F   UNK N   1      30.706  15.733   6.260  0.00  0.00    -0.205 F 
HETATM   22  C   UNK N   1      28.147  18.262   6.897  0.00  0.00     0.006 A 
HETATM   23  C   UNK N   1      28.612  18.817   8.092  0.00  0.00     0.043 A 
HETATM   24  C   UNK N   1      29.783  18.334   8.683  0.00  0.00     0.127 A 
HETATM   25  F   UNK N   1      30.228  18.892   9.836  0.00  0.00    -0.205 F 
ENDBRANCH  17  18
ENDBRANCH   3  17
TORSDOF 5
ENDMDL
MODEL 5
REMARK VINA RESULT:      -6.9      3.985      5.595
REMARK  5 active torsions:
REMARK  status: ('A' for Active; 'I' for Inactive)
REMARK    1  A    between atoms: C_3  and  S_11 
REMARK    2  A    between atoms: C_6  and  C_7 
REMARK       I    between atoms: C_7  and  N_9 
REMARK    3  A    between atoms: N_9  and  C_10 
REMARK    4  A    between atoms: C_10  and  C_15 
REMARK    5  A    between atoms: S_11  and  N_12 
ROOT
HETATM    1  C   UNK N   1      34.241  18.016   8.310  0.00  0.00     0.251 C 
HETATM    2  O   UNK N   1      34.994  18.871   7.863  0.00  0.00    -0.268 OA
HETATM    3  N   UNK N   1      32.904  18.178   8.120  0.00  0.00    -0.352 N 
HETATM    4  H   UNK N   1      32.613  18.918   7.539  0.00  0.00     0.163 HD
ENDROOT
BRANCH   1   5
HETATM    5  C   UNK N   1      34.833  16.879   9.077  0.00  0.00     0.032 A 
HETATM    6  C   UNK N   1      35.220  17.014  10.419  0.00  0.00     0.018 A 
HETATM    7  C   UNK N   1      35.802  15.950  11.106  0.00  0.00     0.026 A 
HETATM    8  C   UNK N   1      36.010  14.732  10.459  0.00  0.00     0.079 A 
HETATM    9  C   UNK N   1      35.613  14.572   9.129  0.00  0.00     0.026 A 
HETATM   10  C   UNK N   1      35.017  15.638   8.445  0.00  0.00     0.018 A 
BRANCH   8  11
HETATM   11  S   UNK N   1      36.848  13.408  11.318  0.00  0.00     0.256 S 
HETATM   12  O   UNK N   1      36.197  12.044  11.042  0.00  0.00    -0.201 OA
HETATM   13  O   UNK N   1      36.706  13.511  12.844  0.00  0.00    -0.201 OA
BRANCH  11  14
HETATM   14  N   UNK N   1      38.569  13.158  11.024  0.00  0.00    -0.324 N 
HETATM   15  H   UNK N   1      39.362  13.696  10.673  0.00  0.00     0.169 HD
HETATM   16  H   UNK N   1      38.850  12.210  11.274  0.00  0.00     0.169 HD
ENDBRANCH  11  14
ENDBRANCH   8  11
ENDBRANCH   1   5
BRANCH   3  17
HETATM   17  C   UNK N   1      31.877  17.346   8.706  0.00  0.00     0.167 C 
BRANCH  17  18
HETATM   18  C   UNK N   1      30.527  17.659   8.143  0.00  0.00     0.037 A 
HETATM   19  C   UNK N   1      30.158  17.184   6.872  0.00  0.00     0.127 A 
HETATM   20  C   UNK N   1      28.904  17.503   6.344  0.00  0.00     0.043 A 
HETATM   21  F   UNK N   1      31.012  16.419   6.148  0.00  0.00    -0.205 F 
HETATM   22  C   UNK N   1      28.016  18.297   7.072  0.00  0.00     0.006 A 
HETATM   23  C   UNK N   1      28.380  18.775   8.333  0.00  0.00     0.043 A 
HETATM   24  C   UNK N   1      29.631  18.459   8.872  0.00  0.00     0.127 A 
HETATM   25  F   UNK N   1      29.973  18.942  10.092  0.00  0.00    -0.205 F 
ENDBRANCH  17  18
ENDBRANCH   3  17
TORSDOF 5
ENDMDL
MODEL 6
REMARK VINA RESULT:      -6.9      1.478      2.011
REMARK  5 active torsions:
REMARK  status: ('A' for Active; 'I' for Inactive)
REMARK    1  A    between atoms: C_3  and  S_11 
REMARK    2  A    between atoms: C_6  and  C_7 
REMARK       I    between atoms: C_7  and  N_9 
REMARK    3  A    between atoms: N_9  and  C_10 
REMARK    4  A    between atoms: C_10  and  C_15 
REMARK    5  A    between atoms: S_11  and  N_12 
ROOT
HETATM    1  C   UNK N   1      28.015  17.268   8.302  0.00  0.00     0.251 C 
HETATM    2  O   UNK N   1      27.567  17.242   9.441  0.00  0.00    -0.268 OA
HETATM    3  N   UNK N   1      27.142  17.131   7.267  0.00  0.00    -0.352 N 
HETATM    4  H   UNK N   1      26.181  17.126   7.480  0.00  0.00     0.163 HD
ENDROOT
BRANCH   1   5
HETATM    5  C   UNK N   1      29.493  17.396   8.123  0.00  0.00     0.032 A 
HETATM    6  C   UNK N   1      30.211  16.546   7.268  0.00  0.00     0.018 A 
HETATM    7  C   UNK N   1      31.594  16.662   7.141  0.00  0.00     0.026 A 
HETATM    8  C   UNK N   1      32.283  17.629   7.872  0.00  0.00     0.079 A 
HETATM    9  C   UNK N   1      31.583  18.498   8.714  0.00  0.00     0.026 A 
HETATM   10  C   UNK N   1      30.192  18.389   8.829  0.00  0.00     0.018 A 
BRANCH   8  11
HETATM   11  S   UNK N   1      34.066  17.701   7.780  0.00  0.00     0.256 S 
HETATM   12  O   UNK N   1      34.609  19.060   8.250  0.00  0.00    -0.201 OA
HETATM   13  O   UNK N   1      34.585  17.648   6.335  0.00  0.00    -0.201 OA
BRANCH  11  14
HETATM   14  N   UNK N   1      35.014  16.504   8.663  0.00  0.00    -0.324 N 
HETATM   15  H   UNK N   1      34.925  15.947   9.513  0.00  0.00     0.169 HD
HETATM   16  H   UNK N   1      35.898  16.316   8.191  0.00  0.00     0.169 HD
ENDBRANCH  11  14
ENDBRANCH   8  11
ENDBRANCH   1   5
BRANCH   3  17
HETATM   17  C   UNK N   1      27.519  16.990   5.878  0.00  0.00     0.167 C 
BRANCH  17  18
HETATM   18  C   UNK N   1      26.909  18.061   5.031  0.00  0.00     0.037 A 
HETATM   19  C   UNK N   1      25.534  18.041   4.738  0.00  0.00     0.127 A 
HETATM   20  C   UNK N   1      24.978  19.032   3.925  0.00  0.00     0.043 A 
HETATM   21  F   UNK N   1      24.738  17.063   5.237  0.00  0.00    -0.205 F 
HETATM   22  C   UNK N   1      25.786  20.042   3.396  0.00  0.00     0.006 A 
HETATM   23  C   UNK N   1      27.154  20.063   3.680  0.00  0.00     0.043 A 
HETATM   24  C   UNK N   1      27.718  19.077   4.495  0.00  0.00     0.127 A 
HETATM   25  F   UNK N   1      29.050  19.105   4.750  0.00  0.00    -0.205 F 
ENDBRANCH  17  18
ENDBRANCH   3  17
TORSDOF 5
ENDMDL
MODEL 7
REMARK VINA RESULT:      -6.8      5.041      8.691
REMARK  5 active torsions:
REMARK  status: ('A' for Active; 'I' for Inactive)
REMARK    1  A    between atoms: C_3  and  S_11 
REMARK    2  A    between atoms: C_6  and  C_7 
REMARK       I    between atoms: C_7  and  N_9 
REMARK    3  A    between atoms: N_9  and  C_10 
REMARK    4  A    between atoms: C_10  and  C_15 
REMARK    5  A    between atoms: S_11  and  N_12 
ROOT
HETATM    1  C   UNK N   1      34.524  18.149   8.530  0.00  0.00     0.251 C 
HETATM    2  O   UNK N   1      35.105  19.215   8.370  0.00  0.00    -0.268 OA
HETATM    3  N   UNK N   1      34.909  17.360   9.570  0.00  0.00    -0.352 N 
HETATM    4  H   UNK N   1      35.560  17.733  10.208  0.00  0.00     0.163 HD
ENDROOT
BRANCH   1   5
HETATM    5  C   UNK N   1      33.469  17.760   7.547  0.00  0.00     0.032 A 
HETATM    6  C   UNK N   1      33.768  17.525   6.196  0.00  0.00     0.018 A 
HETATM    7  C   UNK N   1      32.763  17.196   5.288  0.00  0.00     0.026 A 
HETATM    8  C   UNK N   1      31.439  17.101   5.717  0.00  0.00     0.079 A 
HETATM    9  C   UNK N   1      31.125  17.314   7.062  0.00  0.00     0.026 A 
HETATM   10  C   UNK N   1      32.138  17.630   7.975  0.00  0.00     0.018 A 
BRANCH   8  11
HETATM   11  S   UNK N   1      30.146  16.781   4.526  0.00  0.00     0.256 S 
HETATM   12  O   UNK N   1      28.953  17.733   4.707  0.00  0.00    -0.201 OA
HETATM   13  O   UNK N   1      29.479  15.412   4.733  0.00  0.00    -0.201 OA
BRANCH  11  14
HETATM   14  N   UNK N   1      30.534  16.857   2.807  0.00  0.00    -0.324 N 
HETATM   15  H   UNK N   1      31.336  16.676   2.204  0.00  0.00     0.169 HD
HETATM   16  H   UNK N   1      29.730  17.173   2.264  0.00  0.00     0.169 HD
ENDBRANCH  11  14
ENDBRANCH   8  11
ENDBRANCH   1   5
BRANCH   3  17
HETATM   17  C   UNK N   1      34.434  16.016   9.811  0.00  0.00     0.167 C 
BRANCH  17  18
HETATM   18  C   UNK N   1      35.550  15.021   9.763  0.00  0.00     0.037 A 
HETATM   19  C   UNK N   1      35.973  14.483   8.535  0.00  0.00     0.127 A 
HETATM   20  C   UNK N   1      36.999  13.534   8.504  0.00  0.00     0.043 A 
HETATM   21  F   UNK N   1      35.390  14.873   7.375  0.00  0.00    -0.205 F 
HETATM   22  C   UNK N   1      37.604  13.115   9.691  0.00  0.00     0.006 A 
HETATM   23  C   UNK N   1      37.183  13.643  10.914  0.00  0.00     0.043 A 
HETATM   24  C   UNK N   1      36.160  14.594  10.955  0.00  0.00     0.127 A 
HETATM   25  F   UNK N   1      35.755  15.088  12.152  0.00  0.00    -0.205 F 
ENDBRANCH  17  18
ENDBRANCH   3  17
TORSDOF 5
ENDMDL
MODEL 8
REMARK VINA RESULT:      -6.7      3.562      5.573
REMARK  5 active torsions:
REMARK  status: ('A' for Active; 'I' for Inactive)
REMARK    1  A    between atoms: C_3  and  S_11 
REMARK    2  A    between atoms: C_6  and  C_7 
REMARK       I    between atoms: C_7  and  N_9 
REMARK    3  A    between atoms: N_9  and  C_10 
REMARK    4  A    between atoms: C_10  and  C_15 
REMARK    5  A    between atoms: S_11  and  N_12 
ROOT
HETATM    1  C   UNK N   1      33.533  17.149   6.630  0.00  0.00     0.251 C 
HETATM    2  O   UNK N   1      34.261  18.003   6.142  0.00  0.00    -0.268 OA
HETATM    3  N   UNK N   1      32.264  17.040   6.152  0.00  0.00    -0.352 N 
HETATM    4  H   UNK N   1      32.026  17.580   5.364  0.00  0.00     0.163 HD
ENDROOT
BRANCH   1   5
HETATM    5  C   UNK N   1      34.067  16.316   7.750  0.00  0.00     0.032 A 
HETATM    6  C   UNK N   1      34.381  14.960   7.578  0.00  0.00     0.018 A 
HETATM    7  C   UNK N   1      34.847  14.193   8.645  0.00  0.00     0.026 A 
HETATM    8  C   UNK N   1      35.001  14.772   9.905  0.00  0.00     0.079 A 
HETATM    9  C   UNK N   1      34.710  16.126  10.091  0.00  0.00     0.026 A 
HETATM   10  C   UNK N   1      34.257  16.897   9.015  0.00  0.00     0.018 A 
BRANCH   8  11
HETATM   11  S   UNK N   1      35.499  13.755  11.288  0.00  0.00     0.256 S 
HETATM   12  O   UNK N   1      35.175  12.272  11.053  0.00  0.00    -0.201 OA
HETATM   13  O   UNK N   1      34.687  14.049  12.558  0.00  0.00    -0.201 OA
BRANCH  11  14
HETATM   14  N   UNK N   1      37.188  13.777  11.795  0.00  0.00    -0.324 N 
HETATM   15  H   UNK N   1      38.045  14.275  11.551  0.00  0.00     0.169 HD
HETATM   16  H   UNK N   1      37.355  13.102  12.541  0.00  0.00     0.169 HD
ENDBRANCH  11  14
ENDBRANCH   8  11
ENDBRANCH   1   5
BRANCH   3  17
HETATM   17  C   UNK N   1      31.237  16.192   6.714  0.00  0.00     0.167 C 
BRANCH  17  18
HETATM   18  C   UNK N   1      30.282  16.972   7.562  0.00  0.00     0.037 A 
HETATM   19  C   UNK N   1      30.316  16.857   8.963  0.00  0.00     0.127 A 
HETATM   20  C   UNK N   1      29.403  17.570   9.745  0.00  0.00     0.043 A 
HETATM   21  F   UNK N   1      31.226  16.054   9.566  0.00  0.00    -0.205 F 
HETATM   22  C   UNK N   1      28.452  18.394   9.138  0.00  0.00     0.006 A 
HETATM   23  C   UNK N   1      28.412  18.508   7.747  0.00  0.00     0.043 A 
HETATM   24  C   UNK N   1      29.323  17.801   6.956  0.00  0.00     0.127 A 
HETATM   25  F   UNK N   1      29.261  17.913   5.606  0.00  0.00    -0.205 F 
ENDBRANCH  17  18
ENDBRANCH   3  17
TORSDOF 5
ENDMDL
MODEL 9
REMARK VINA RESULT:      -6.7      5.024      8.656
REMARK  5 active torsions:
REMARK  status: ('A' for Active; 'I' for Inactive)
REMARK    1  A    between atoms: C_3  and  S_11 
REMARK    2  A    between atoms: C_6  and  C_7 
REMARK       I    between atoms: C_7  and  N_9 
REMARK    3  A    between atoms: N_9  and  C_10 
REMARK    4  A    between atoms: C_10  and  C_15 
REMARK    5  A    between atoms: S_11  and  N_12 
ROOT
HETATM    1  C   UNK N   1      34.580  18.153   8.533  0.00  0.00     0.251 C 
HETATM    2  O   UNK N   1      35.192  19.197   8.352  0.00  0.00    -0.268 OA
HETATM    3  N   UNK N   1      34.944  17.372   9.586  0.00  0.00    -0.352 N 
HETATM    4  H   UNK N   1      35.609  17.736  10.214  0.00  0.00     0.163 HD
ENDROOT
BRANCH   1   5
HETATM    5  C   UNK N   1      33.510  17.778   7.560  0.00  0.00     0.032 A 
HETATM    6  C   UNK N   1      32.177  17.600   7.960  0.00  0.00     0.018 A 
HETATM    7  C   UNK N   1      31.200  17.218   7.042  0.00  0.00     0.026 A 
HETATM    8  C   UNK N   1      31.543  17.004   5.707  0.00  0.00     0.079 A 
HETATM    9  C   UNK N   1      32.862  17.195   5.286  0.00  0.00     0.026 A 
HETATM   10  C   UNK N   1      33.838  17.592   6.207  0.00  0.00     0.018 A 
BRANCH   8  11
HETATM   11  S   UNK N   1      30.304  16.416   4.561  0.00  0.00     0.256 S 
HETATM   12  O   UNK N   1      28.887  16.822   4.994  0.00  0.00    -0.201 OA
HETATM   13  O   UNK N   1      30.192  14.884   4.548  0.00  0.00    -0.201 OA
BRANCH  11  14
HETATM   14  N   UNK N   1      30.417  16.893   2.867  0.00  0.00    -0.324 N 
HETATM   15  H   UNK N   1      29.937  17.525   2.226  0.00  0.00     0.169 HD
HETATM   16  H   UNK N   1      31.173  16.396   2.396  0.00  0.00     0.169 HD
ENDBRANCH  11  14
ENDBRANCH   8  11
ENDBRANCH   1   5
BRANCH   3  17
HETATM   17  C   UNK N   1      34.430  16.047   9.853  0.00  0.00     0.167 C 
BRANCH  17  18
HETATM   18  C   UNK N   1      35.497  15.007   9.731  0.00  0.00     0.037 A 
HETATM   19  C   UNK N   1      36.264  14.639  10.850  0.00  0.00     0.127 A 
HETATM   20  C   UNK N   1      37.277  13.684  10.721  0.00  0.00     0.043 A 
HETATM   21  F   UNK N   1      36.034  15.206  12.060  0.00  0.00    -0.205 F 
HETATM   22  C   UNK N   1      37.534  13.097   9.480  0.00  0.00     0.006 A 
HETATM   23  C   UNK N   1      36.778  13.463   8.364  0.00  0.00     0.043 A 
HETATM   24  C   UNK N   1      35.761  14.415   8.484  0.00  0.00     0.127 A 
HETATM   25  F   UNK N   1      35.044  14.768   7.388  0.00  0.00    -0.205 F 
ENDBRANCH  17  18
ENDBRANCH   3  17
TORSDOF 5
ENDMDL
