MODEL 1
REMARK VINA RESULT:      -6.9      0.000      0.000
REMARK  13 active torsions:
REMARK  status: ('A' for Active; 'I' for Inactive)
REMARK    1  A    between atoms: C_1  and  C_2 
REMARK    2  A    between atoms: C_1  and  C_6 
REMARK    3  A    between atoms: C_2  and  C_3 
REMARK    4  A    between atoms: C_3  and  C_4 
REMARK    5  A    between atoms: C_4  and  C_13 
REMARK    6  A    between atoms: C_5  and  C_9 
REMARK    7  A    between atoms: C_5  and  P_21 
REMARK    8  A    between atoms: C_12  and  C_16 
REMARK    9  A    between atoms: C_12  and  P_27 
REMARK   10  A    between atoms: P_21  and  O_23 
REMARK   11  A    between atoms: P_21  and  O_24 
REMARK   12  A    between atoms: P_27  and  O_29 
REMARK   13  A    between atoms: P_27  and  O_30 
ROOT
HETATM    1  C   UNK N   1      26.542  28.089  -5.066  0.00  0.00     0.005 C 
ENDROOT
BRANCH   1   2
HETATM    2  C   UNK N   1      25.315  27.188  -4.962  0.00  0.00     0.038 C 
BRANCH   2   3
HETATM    3  C   UNK N   1      25.549  25.956  -5.765  0.00  0.00    -0.058 A 
HETATM    4  C   UNK N   1      25.827  26.041  -7.131  0.00  0.00     0.008 A 
HETATM    5  C   UNK N   1      26.194  24.892  -7.840  0.00  0.00     0.014 A 
HETATM    6  C   UNK N   1      26.308  23.662  -7.174  0.00  0.00     0.025 A 
HETATM    7  C   UNK N   1      26.018  23.587  -5.806  0.00  0.00     0.014 A 
HETATM    8  C   UNK N   1      25.635  24.729  -5.105  0.00  0.00     0.008 A 
BRANCH   6   9
HETATM    9  C   UNK N   1      26.788  22.436  -7.899  0.00  0.00     0.364 C 
HETATM   10  F   UNK N   1      27.534  22.782  -9.013  0.00  0.00    -0.187 F 
HETATM   11  F   UNK N   1      27.584  21.697  -7.044  0.00  0.00    -0.187 F 
BRANCH   9  12
HETATM   12  P   UNK N   1      25.348  21.384  -8.436  0.00  0.00     0.315 P 
HETATM   13  O   UNK N   1      25.382  20.016  -7.705  0.00  0.00    -0.649 OA
BRANCH  12  14
HETATM   14  O   UNK N   1      25.315  20.972 -10.121  0.00  0.00    -0.325 OA
HETATM   15  H   UNK N   1      25.302  21.526 -10.916  0.00  0.00     0.220 HD
ENDBRANCH  12  14
BRANCH  12  16
HETATM   16  O   UNK N   1      23.787  22.034  -8.037  0.00  0.00    -0.325 OA
HETATM   17  H   UNK N   1      23.493  22.834  -7.573  0.00  0.00     0.220 HD
ENDBRANCH  12  16
ENDBRANCH   9  12
ENDBRANCH   6   9
ENDBRANCH   2   3
ENDBRANCH   1   2
BRANCH   1  18
HETATM   18  C   UNK N   1      27.710  27.507  -4.264  0.00  0.00     0.005 C 
BRANCH  18  19
HETATM   19  C   UNK N   1      28.856  27.101  -5.174  0.00  0.00     0.038 C 
BRANCH  19  20
HETATM   20  C   UNK N   1      29.147  25.659  -4.979  0.00  0.00    -0.058 A 
HETATM   21  C   UNK N   1      29.057  25.081  -3.707  0.00  0.00     0.008 A 
HETATM   22  C   UNK N   1      29.416  23.746  -3.522  0.00  0.00     0.014 A 
HETATM   23  C   UNK N   1      29.878  22.981  -4.602  0.00  0.00     0.025 A 
HETATM   24  C   UNK N   1      29.948  23.567  -5.877  0.00  0.00     0.014 A 
HETATM   25  C   UNK N   1      29.583  24.899  -6.064  0.00  0.00     0.008 A 
BRANCH  23  26
HETATM   26  C   UNK N   1      30.319  21.560  -4.358  0.00  0.00     0.364 C 
HETATM   27  F   UNK N   1      29.554  21.032  -3.334  0.00  0.00    -0.187 F 
HETATM   28  F   UNK N   1      30.108  20.815  -5.503  0.00  0.00    -0.187 F 
BRANCH  26  29
HETATM   29  P   UNK N   1      32.120  21.410  -3.866  0.00  0.00     0.315 P 
HETATM   30  O   UNK N   1      32.731  20.089  -4.406  0.00  0.00    -0.649 OA
BRANCH  29  31
HETATM   31  O   UNK N   1      33.150  22.650  -4.510  0.00  0.00    -0.325 OA
HETATM   32  H   UNK N   1      34.112  22.594  -4.403  0.00  0.00     0.220 HD
ENDBRANCH  29  31
BRANCH  29  33
HETATM   33  O   UNK N   1      32.409  21.349  -2.158  0.00  0.00    -0.325 OA
HETATM   34  H   UNK N   1      31.735  21.520  -1.482  0.00  0.00     0.220 HD
ENDBRANCH  29  33
ENDBRANCH  26  29
ENDBRANCH  23  26
ENDBRANCH  19  20
ENDBRANCH  18  19
ENDBRANCH   1  18
TORSDOF 13
ENDMDL
MODEL 2
REMARK VINA RESULT:      -6.7      1.442      6.194
REMARK  13 active torsions:
REMARK  status: ('A' for Active; 'I' for Inactive)
REMARK    1  A    between atoms: C_1  and  C_2 
REMARK    2  A    between atoms: C_1  and  C_6 
REMARK    3  A    between atoms: C_2  and  C_3 
REMARK    4  A    between atoms: C_3  and  C_4 
REMARK    5  A    between atoms: C_4  and  C_13 
REMARK    6  A    between atoms: C_5  and  C_9 
REMARK    7  A    between atoms: C_5  and  P_21 
REMARK    8  A    between atoms: C_12  and  C_16 
REMARK    9  A    between atoms: C_12  and  P_27 
REMARK   10  A    between atoms: P_21  and  O_23 
REMARK   11  A    between atoms: P_21  and  O_24 
REMARK   12  A    between atoms: P_27  and  O_29 
REMARK   13  A    between atoms: P_27  and  O_30 
ROOT
HETATM    1  C   UNK N   1      27.189  28.177  -4.949  0.00  0.00     0.005 C 
ENDROOT
BRANCH   1   2
HETATM    2  C   UNK N   1      28.251  28.157  -3.853  0.00  0.00     0.038 C 
BRANCH   2   3
HETATM    3  C   UNK N   1      29.176  27.016  -4.095  0.00  0.00    -0.058 A 
HETATM    4  C   UNK N   1      30.412  26.955  -3.445  0.00  0.00     0.008 A 
HETATM    5  C   UNK N   1      31.204  25.808  -3.564  0.00  0.00     0.014 A 
HETATM    6  C   UNK N   1      30.746  24.711  -4.311  0.00  0.00     0.025 A 
HETATM    7  C   UNK N   1      29.510  24.788  -4.964  0.00  0.00     0.014 A 
HETATM    8  C   UNK N   1      28.730  25.938  -4.860  0.00  0.00     0.008 A 
BRANCH   6   9
HETATM    9  C   UNK N   1      31.541  23.438  -4.375  0.00  0.00     0.364 C 
HETATM   10  F   UNK N   1      31.274  22.747  -5.546  0.00  0.00    -0.187 F 
HETATM   11  F   UNK N   1      32.887  23.751  -4.342  0.00  0.00    -0.187 F 
BRANCH   9  12
HETATM   12  P   UNK N   1      31.145  22.342  -2.922  0.00  0.00     0.315 P 
HETATM   13  O   UNK N   1      30.111  21.261  -3.333  0.00  0.00    -0.649 OA
BRANCH  12  14
HETATM   14  O   UNK N   1      30.418  23.141  -1.565  0.00  0.00    -0.325 OA
HETATM   15  H   UNK N   1      29.489  23.297  -1.334  0.00  0.00     0.220 HD
ENDBRANCH  12  14
BRANCH  12  16
HETATM   16  O   UNK N   1      32.491  21.427  -2.317  0.00  0.00    -0.325 OA
HETATM   17  H   UNK N   1      32.690  21.016  -1.461  0.00  0.00     0.220 HD
ENDBRANCH  12  16
ENDBRANCH   9  12
ENDBRANCH   6   9
ENDBRANCH   2   3
ENDBRANCH   1   2
BRANCH   1  18
HETATM   18  C   UNK N   1      25.806  27.866  -4.369  0.00  0.00     0.005 C 
BRANCH  18  19
HETATM   19  C   UNK N   1      24.861  27.352  -5.440  0.00  0.00     0.038 C 
BRANCH  19  20
HETATM   20  C   UNK N   1      25.434  26.125  -6.050  0.00  0.00    -0.058 A 
HETATM   21  C   UNK N   1      25.884  26.135  -7.375  0.00  0.00     0.008 A 
HETATM   22  C   UNK N   1      26.340  24.955  -7.963  0.00  0.00     0.014 A 
HETATM   23  C   UNK N   1      26.340  23.755  -7.237  0.00  0.00     0.025 A 
HETATM   24  C   UNK N   1      25.902  23.763  -5.902  0.00  0.00     0.014 A 
HETATM   25  C   UNK N   1      25.453  24.942  -5.312  0.00  0.00     0.008 A 
BRANCH  23  26
HETATM   26  C   UNK N   1      26.779  22.485  -7.920  0.00  0.00     0.364 C 
HETATM   27  F   UNK N   1      27.502  22.821  -9.051  0.00  0.00    -0.187 F 
HETATM   28  F   UNK N   1      27.595  21.768  -7.065  0.00  0.00    -0.187 F 
BRANCH  26  29
HETATM   29  P   UNK N   1      25.355  21.391  -8.451  0.00  0.00     0.315 P 
HETATM   30  O   UNK N   1      25.437  20.004  -7.761  0.00  0.00    -0.649 OA
BRANCH  29  31
HETATM   31  O   UNK N   1      23.784  21.991  -8.019  0.00  0.00    -0.325 OA
HETATM   32  H   UNK N   1      23.555  22.142  -7.089  0.00  0.00     0.220 HD
ENDBRANCH  29  31
BRANCH  29  33
HETATM   33  O   UNK N   1      25.306  21.025 -10.145  0.00  0.00    -0.325 OA
HETATM   34  H   UNK N   1      24.813  20.283 -10.531  0.00  0.00     0.220 HD
ENDBRANCH  29  33
ENDBRANCH  26  29
ENDBRANCH  23  26
ENDBRANCH  19  20
ENDBRANCH  18  19
ENDBRANCH   1  18
TORSDOF 13
ENDMDL
MODEL 3
REMARK VINA RESULT:      -6.6      4.090      6.353
REMARK  13 active torsions:
REMARK  status: ('A' for Active; 'I' for Inactive)
REMARK    1  A    between atoms: C_1  and  C_2 
REMARK    2  A    between atoms: C_1  and  C_6 
REMARK    3  A    between atoms: C_2  and  C_3 
REMARK    4  A    between atoms: C_3  and  C_4 
REMARK    5  A    between atoms: C_4  and  C_13 
REMARK    6  A    between atoms: C_5  and  C_9 
REMARK    7  A    between atoms: C_5  and  P_21 
REMARK    8  A    between atoms: C_12  and  C_16 
REMARK    9  A    between atoms: C_12  and  P_27 
REMARK   10  A    between atoms: P_21  and  O_23 
REMARK   11  A    between atoms: P_21  and  O_24 
REMARK   12  A    between atoms: P_27  and  O_29 
REMARK   13  A    between atoms: P_27  and  O_30 
ROOT
HETATM    1  C   UNK N   1      26.331  23.758  -9.443  0.00  0.00     0.005 C 
ENDROOT
BRANCH   1   2
HETATM    2  C   UNK N   1      25.720  22.890  -8.346  0.00  0.00     0.038 C 
BRANCH   2   3
HETATM    3  C   UNK N   1      26.507  23.067  -7.094  0.00  0.00    -0.058 A 
HETATM    4  C   UNK N   1      27.901  23.155  -7.138  0.00  0.00     0.008 A 
HETATM    5  C   UNK N   1      28.615  23.472  -5.978  0.00  0.00     0.014 A 
HETATM    6  C   UNK N   1      27.931  23.728  -4.779  0.00  0.00     0.025 A 
HETATM    7  C   UNK N   1      26.534  23.628  -4.745  0.00  0.00     0.014 A 
HETATM    8  C   UNK N   1      25.826  23.295  -5.898  0.00  0.00     0.008 A 
BRANCH   6   9
HETATM    9  C   UNK N   1      28.674  24.158  -3.546  0.00  0.00     0.364 C 
HETATM   10  F   UNK N   1      29.119  25.464  -3.668  0.00  0.00    -0.187 F 
HETATM   11  F   UNK N   1      27.819  24.081  -2.462  0.00  0.00    -0.187 F 
BRANCH   9  12
HETATM   12  P   UNK N   1      30.135  23.046  -3.238  0.00  0.00     0.315 P 
HETATM   13  O   UNK N   1      31.390  23.596  -3.967  0.00  0.00    -0.649 OA
BRANCH  12  14
HETATM   14  O   UNK N   1      29.971  21.422  -3.825  0.00  0.00    -0.325 OA
HETATM   15  H   UNK N   1      29.377  20.702  -3.564  0.00  0.00     0.220 HD
ENDBRANCH  12  14
BRANCH  12  16
HETATM   16  O   UNK N   1      30.629  22.942  -1.576  0.00  0.00    -0.325 OA
HETATM   17  H   UNK N   1      30.352  22.388  -0.829  0.00  0.00     0.220 HD
ENDBRANCH  12  16
ENDBRANCH   9  12
ENDBRANCH   6   9
ENDBRANCH   2   3
ENDBRANCH   1   2
BRANCH   1  18
HETATM   18  C   UNK N   1      25.587  25.092  -9.556  0.00  0.00     0.005 C 
BRANCH  18  19
HETATM   19  C   UNK N   1      26.513  26.265  -9.288  0.00  0.00     0.038 C 
BRANCH  19  20
HETATM   20  C   UNK N   1      26.506  26.572  -7.835  0.00  0.00    -0.058 A 
HETATM   21  C   UNK N   1      25.304  26.587  -7.119  0.00  0.00     0.008 A 
HETATM   22  C   UNK N   1      25.300  26.961  -5.775  0.00  0.00     0.014 A 
HETATM   23  C   UNK N   1      26.493  27.332  -5.140  0.00  0.00     0.025 A 
HETATM   24  C   UNK N   1      27.695  27.295  -5.865  0.00  0.00     0.014 A 
HETATM   25  C   UNK N   1      27.702  26.915  -7.205  0.00  0.00     0.008 A 
BRANCH  23  26
HETATM   26  C   UNK N   1      26.447  27.791  -3.704  0.00  0.00     0.364 C 
HETATM   27  F   UNK N   1      25.211  28.364  -3.464  0.00  0.00    -0.187 F 
HETATM   28  F   UNK N   1      26.603  26.698  -2.872  0.00  0.00    -0.187 F 
BRANCH  26  29
HETATM   29  P   UNK N   1      27.760  29.059  -3.283  0.00  0.00     0.315 P 
HETATM   30  O   UNK N   1      27.497  29.683  -1.886  0.00  0.00    -0.649 OA
BRANCH  29  31
HETATM   31  O   UNK N   1      29.370  28.421  -3.168  0.00  0.00    -0.325 OA
HETATM   32  H   UNK N   1      29.626  27.866  -2.415  0.00  0.00     0.220 HD
ENDBRANCH  29  31
BRANCH  29  33
HETATM   33  O   UNK N   1      27.832  30.420  -4.354  0.00  0.00    -0.325 OA
HETATM   34  H   UNK N   1      27.778  31.346  -4.068  0.00  0.00     0.220 HD
ENDBRANCH  29  33
ENDBRANCH  26  29
ENDBRANCH  23  26
ENDBRANCH  19  20
ENDBRANCH  18  19
ENDBRANCH   1  18
TORSDOF 13
ENDMDL
MODEL 4
REMARK VINA RESULT:      -6.6      1.681      2.128
REMARK  13 active torsions:
REMARK  status: ('A' for Active; 'I' for Inactive)
REMARK    1  A    between atoms: C_1  and  C_2 
REMARK    2  A    between atoms: C_1  and  C_6 
REMARK    3  A    between atoms: C_2  and  C_3 
REMARK    4  A    between atoms: C_3  and  C_4 
REMARK    5  A    between atoms: C_4  and  C_13 
REMARK    6  A    between atoms: C_5  and  C_9 
REMARK    7  A    between atoms: C_5  and  P_21 
REMARK    8  A    between atoms: C_12  and  C_16 
REMARK    9  A    between atoms: C_12  and  P_27 
REMARK   10  A    between atoms: P_21  and  O_23 
REMARK   11  A    between atoms: P_21  and  O_24 
REMARK   12  A    between atoms: P_27  and  O_29 
REMARK   13  A    between atoms: P_27  and  O_30 
ROOT
HETATM    1  C   UNK N   1      26.660  28.699  -3.883  0.00  0.00     0.005 C 
ENDROOT
BRANCH   1   2
HETATM    2  C   UNK N   1      25.771  27.554  -3.409  0.00  0.00     0.038 C 
BRANCH   2   3
HETATM    3  C   UNK N   1      25.938  26.397  -4.332  0.00  0.00    -0.058 A 
HETATM    4  C   UNK N   1      25.699  26.540  -5.701  0.00  0.00     0.008 A 
HETATM    5  C   UNK N   1      26.005  25.491  -6.574  0.00  0.00     0.014 A 
HETATM    6  C   UNK N   1      26.576  24.308  -6.080  0.00  0.00     0.025 A 
HETATM    7  C   UNK N   1      26.803  24.173  -4.704  0.00  0.00     0.014 A 
HETATM    8  C   UNK N   1      26.481  25.212  -3.833  0.00  0.00     0.008 A 
BRANCH   6   9
HETATM    9  C   UNK N   1      26.995  23.207  -7.012  0.00  0.00     0.364 C 
HETATM   10  F   UNK N   1      27.724  23.712  -8.077  0.00  0.00    -0.187 F 
HETATM   11  F   UNK N   1      27.787  22.312  -6.318  0.00  0.00    -0.187 F 
BRANCH   9  12
HETATM   12  P   UNK N   1      25.506  22.303  -7.672  0.00  0.00     0.315 P 
HETATM   13  O   UNK N   1      24.578  21.875  -6.503  0.00  0.00    -0.649 OA
BRANCH  12  14
HETATM   14  O   UNK N   1      25.847  20.825  -8.514  0.00  0.00    -0.325 OA
HETATM   15  H   UNK N   1      25.318  20.021  -8.640  0.00  0.00     0.220 HD
ENDBRANCH  12  14
BRANCH  12  16
HETATM   16  O   UNK N   1      24.477  23.252  -8.699  0.00  0.00    -0.325 OA
HETATM   17  H   UNK N   1      23.620  23.687  -8.570  0.00  0.00     0.220 HD
ENDBRANCH  12  16
ENDBRANCH   9  12
ENDBRANCH   6   9
ENDBRANCH   2   3
ENDBRANCH   1   2
BRANCH   1  18
HETATM   18  C   UNK N   1      28.130  28.412  -3.564  0.00  0.00     0.005 C 
BRANCH  18  19
HETATM   19  C   UNK N   1      28.956  28.283  -4.832  0.00  0.00     0.038 C 
BRANCH  19  20
HETATM   20  C   UNK N   1      29.742  27.025  -4.778  0.00  0.00    -0.058 A 
HETATM   21  C   UNK N   1      29.659  26.091  -5.817  0.00  0.00     0.008 A 
HETATM   22  C   UNK N   1      30.334  24.874  -5.715  0.00  0.00     0.014 A 
HETATM   23  C   UNK N   1      31.089  24.578  -4.571  0.00  0.00     0.025 A 
HETATM   24  C   UNK N   1      31.178  25.531  -3.543  0.00  0.00     0.014 A 
HETATM   25  C   UNK N   1      30.509  26.749  -3.647  0.00  0.00     0.008 A 
BRANCH  23  26
HETATM   26  C   UNK N   1      31.756  23.230  -4.463  0.00  0.00     0.364 C 
HETATM   27  F   UNK N   1      31.434  22.488  -5.585  0.00  0.00    -0.187 F 
HETATM   28  F   UNK N   1      33.126  23.403  -4.419  0.00  0.00    -0.187 F 
BRANCH  26  29
HETATM   29  P   UNK N   1      31.224  22.252  -2.956  0.00  0.00     0.315 P 
HETATM   30  O   UNK N   1      30.150  21.197  -3.333  0.00  0.00    -0.649 OA
BRANCH  29  31
HETATM   31  O   UNK N   1      32.490  21.325  -2.213  0.00  0.00    -0.325 OA
HETATM   32  H   UNK N   1      33.205  21.769  -1.730  0.00  0.00     0.220 HD
ENDBRANCH  29  31
BRANCH  29  33
HETATM   33  O   UNK N   1      30.482  23.189  -1.700  0.00  0.00    -0.325 OA
HETATM   34  H   UNK N   1      29.770  23.832  -1.845  0.00  0.00     0.220 HD
ENDBRANCH  29  33
ENDBRANCH  26  29
ENDBRANCH  23  26
ENDBRANCH  19  20
ENDBRANCH  18  19
ENDBRANCH   1  18
TORSDOF 13
ENDMDL
MODEL 5
REMARK VINA RESULT:      -6.6      3.513      5.044
REMARK  13 active torsions:
REMARK  status: ('A' for Active; 'I' for Inactive)
REMARK    1  A    between atoms: C_1  and  C_2 
REMARK    2  A    between atoms: C_1  and  C_6 
REMARK    3  A    between atoms: C_2  and  C_3 
REMARK    4  A    between atoms: C_3  and  C_4 
REMARK    5  A    between atoms: C_4  and  C_13 
REMARK    6  A    between atoms: C_5  and  C_9 
REMARK    7  A    between atoms: C_5  and  P_21 
REMARK    8  A    between atoms: C_12  and  C_16 
REMARK    9  A    between atoms: C_12  and  P_27 
REMARK   10  A    between atoms: P_21  and  O_23 
REMARK   11  A    between atoms: P_21  and  O_24 
REMARK   12  A    between atoms: P_27  and  O_29 
REMARK   13  A    between atoms: P_27  and  O_30 
ROOT
HETATM    1  C   UNK N   1      26.250  21.517  -9.454  0.00  0.00     0.005 C 
ENDROOT
BRANCH   1   2
HETATM    2  C   UNK N   1      25.677  21.418  -8.043  0.00  0.00     0.038 C 
BRANCH   2   3
HETATM    3  C   UNK N   1      25.604  22.783  -7.453  0.00  0.00    -0.058 A 
HETATM    4  C   UNK N   1      25.734  22.968  -6.074  0.00  0.00     0.008 A 
HETATM    5  C   UNK N   1      25.816  24.263  -5.550  0.00  0.00     0.014 A 
HETATM    6  C   UNK N   1      25.794  25.372  -6.410  0.00  0.00     0.025 A 
HETATM    7  C   UNK N   1      25.655  25.174  -7.790  0.00  0.00     0.014 A 
HETATM    8  C   UNK N   1      25.555  23.885  -8.308  0.00  0.00     0.008 A 
BRANCH   6   9
HETATM    9  C   UNK N   1      25.972  26.765  -5.875  0.00  0.00     0.364 C 
HETATM   10  F   UNK N   1      26.575  27.583  -6.816  0.00  0.00    -0.187 F 
HETATM   11  F   UNK N   1      24.728  27.285  -5.568  0.00  0.00    -0.187 F 
BRANCH   9  12
HETATM   12  P   UNK N   1      27.013  26.747  -4.331  0.00  0.00     0.315 P 
HETATM   13  O   UNK N   1      28.394  26.101  -4.623  0.00  0.00    -0.649 OA
BRANCH  12  14
HETATM   14  O   UNK N   1      26.373  25.819  -3.013  0.00  0.00    -0.325 OA
HETATM   15  H   UNK N   1      25.471  25.521  -2.816  0.00  0.00     0.220 HD
ENDBRANCH  12  14
BRANCH  12  16
HETATM   16  O   UNK N   1      27.409  28.318  -3.706  0.00  0.00    -0.325 OA
HETATM   17  H   UNK N   1      28.047  29.001  -3.966  0.00  0.00     0.220 HD
ENDBRANCH  12  16
ENDBRANCH   9  12
ENDBRANCH   6   9
ENDBRANCH   2   3
ENDBRANCH   1   2
BRANCH   1  18
HETATM   18  C   UNK N   1      27.698  21.019  -9.486  0.00  0.00     0.005 C 
BRANCH  18  19
HETATM   19  C   UNK N   1      28.679  22.163  -9.303  0.00  0.00     0.038 C 
BRANCH  19  20
HETATM   20  C   UNK N   1      29.248  22.105  -7.933  0.00  0.00    -0.058 A 
HETATM   21  C   UNK N   1      29.620  20.879  -7.369  0.00  0.00     0.008 A 
HETATM   22  C   UNK N   1      30.072  20.828  -6.050  0.00  0.00     0.014 A 
HETATM   23  C   UNK N   1      30.146  21.998  -5.282  0.00  0.00     0.025 A 
HETATM   24  C   UNK N   1      29.787  23.225  -5.865  0.00  0.00     0.014 A 
HETATM   25  C   UNK N   1      29.342  23.278  -7.184  0.00  0.00     0.008 A 
BRANCH  23  26
HETATM   26  C   UNK N   1      30.579  21.902  -3.840  0.00  0.00     0.364 C 
HETATM   27  F   UNK N   1      30.094  20.718  -3.314  0.00  0.00    -0.187 F 
HETATM   28  F   UNK N   1      31.960  21.886  -3.780  0.00  0.00    -0.187 F 
BRANCH  26  29
HETATM   29  P   UNK N   1      29.946  23.306  -2.775  0.00  0.00     0.315 P 
HETATM   30  O   UNK N   1      30.228  23.031  -1.274  0.00  0.00    -0.649 OA
BRANCH  29  31
HETATM   31  O   UNK N   1      30.702  24.839  -3.077  0.00  0.00    -0.325 OA
HETATM   32  H   UNK N   1      31.264  24.964  -3.857  0.00  0.00     0.220 HD
ENDBRANCH  29  31
BRANCH  29  33
HETATM   33  O   UNK N   1      28.233  23.566  -2.849  0.00  0.00    -0.325 OA
HETATM   34  H   UNK N   1      27.592  22.904  -3.152  0.00  0.00     0.220 HD
ENDBRANCH  29  33
ENDBRANCH  26  29
ENDBRANCH  23  26
ENDBRANCH  19  20
ENDBRANCH  18  19
ENDBRANCH   1  18
TORSDOF 13
ENDMDL
MODEL 6
REMARK VINA RESULT:      -6.3      1.098      6.036
REMARK  13 active torsions:
REMARK  status: ('A' for Active; 'I' for Inactive)
REMARK    1  A    between atoms: C_1  and  C_2 
REMARK    2  A    between atoms: C_1  and  C_6 
REMARK    3  A    between atoms: C_2  and  C_3 
REMARK    4  A    between atoms: C_3  and  C_4 
REMARK    5  A    between atoms: C_4  and  C_13 
REMARK    6  A    between atoms: C_5  and  C_9 
REMARK    7  A    between atoms: C_5  and  P_21 
REMARK    8  A    between atoms: C_12  and  C_16 
REMARK    9  A    between atoms: C_12  and  P_27 
REMARK   10  A    between atoms: P_21  and  O_23 
REMARK   11  A    between atoms: P_21  and  O_24 
REMARK   12  A    between atoms: P_27  and  O_29 
REMARK   13  A    between atoms: P_27  and  O_30 
ROOT
HETATM    1  C   UNK N   1      29.229  28.012  -3.672  0.00  0.00     0.005 C 
ENDROOT
BRANCH   1   2
HETATM    2  C   UNK N   1      30.085  27.541  -4.845  0.00  0.00     0.038 C 
BRANCH   2   3
HETATM    3  C   UNK N   1      30.376  26.090  -4.680  0.00  0.00    -0.058 A 
HETATM    4  C   UNK N   1      30.481  25.528  -3.405  0.00  0.00     0.008 A 
HETATM    5  C   UNK N   1      30.604  24.141  -3.263  0.00  0.00     0.014 A 
HETATM    6  C   UNK N   1      30.594  23.316  -4.398  0.00  0.00     0.025 A 
HETATM    7  C   UNK N   1      30.496  23.891  -5.671  0.00  0.00     0.014 A 
HETATM    8  C   UNK N   1      30.393  25.274  -5.811  0.00  0.00     0.008 A 
BRANCH   6   9
HETATM    9  C   UNK N   1      30.633  21.820  -4.262  0.00  0.00     0.364 C 
HETATM   10  F   UNK N   1      29.722  21.386  -3.312  0.00  0.00    -0.187 F 
HETATM   11  F   UNK N   1      30.306  21.253  -5.480  0.00  0.00    -0.187 F 
BRANCH   9  12
HETATM   12  P   UNK N   1      32.336  21.249  -3.772  0.00  0.00     0.315 P 
HETATM   13  O   UNK N   1      32.557  21.463  -2.251  0.00  0.00    -0.649 OA
BRANCH  12  14
HETATM   14  O   UNK N   1      33.650  22.098  -4.523  0.00  0.00    -0.325 OA
HETATM   15  H   UNK N   1      33.711  22.566  -5.370  0.00  0.00     0.220 HD
ENDBRANCH  12  14
BRANCH  12  16
HETATM   16  O   UNK N   1      32.626  19.552  -4.003  0.00  0.00    -0.325 OA
HETATM   17  H   UNK N   1      32.928  19.020  -4.756  0.00  0.00     0.220 HD
ENDBRANCH  12  16
ENDBRANCH   9  12
ENDBRANCH   6   9
ENDBRANCH   2   3
ENDBRANCH   1   2
BRANCH   1  18
HETATM   18  C   UNK N   1      27.813  28.358  -4.140  0.00  0.00     0.005 C 
BRANCH  18  19
HETATM   19  C   UNK N   1      26.802  27.343  -3.637  0.00  0.00     0.038 C 
BRANCH  19  20
HETATM   20  C   UNK N   1      26.765  26.187  -4.567  0.00  0.00    -0.058 A 
HETATM   21  C   UNK N   1      26.880  24.880  -4.080  0.00  0.00     0.008 A 
HETATM   22  C   UNK N   1      26.931  23.807  -4.971  0.00  0.00     0.014 A 
HETATM   23  C   UNK N   1      26.878  24.033  -6.354  0.00  0.00     0.025 A 
HETATM   24  C   UNK N   1      26.744  25.348  -6.829  0.00  0.00     0.014 A 
HETATM   25  C   UNK N   1      26.687  26.419  -5.940  0.00  0.00     0.008 A 
BRANCH  23  26
HETATM   26  C   UNK N   1      26.998  22.859  -7.293  0.00  0.00     0.364 C 
HETATM   27  F   UNK N   1      27.687  23.266  -8.421  0.00  0.00    -0.187 F 
HETATM   28  F   UNK N   1      27.712  21.851  -6.672  0.00  0.00    -0.187 F 
BRANCH  26  29
HETATM   29  P   UNK N   1      25.346  22.172  -7.846  0.00  0.00     0.315 P 
HETATM   30  O   UNK N   1      24.478  21.770  -6.623  0.00  0.00    -0.649 OA
BRANCH  29  31
HETATM   31  O   UNK N   1      24.354  23.295  -8.723  0.00  0.00    -0.325 OA
HETATM   32  H   UNK N   1      24.753  24.055  -9.173  0.00  0.00     0.220 HD
ENDBRANCH  29  31
BRANCH  29  33
HETATM   33  O   UNK N   1      25.436  20.728  -8.800  0.00  0.00    -0.325 OA
HETATM   34  H   UNK N   1      25.716  20.702  -9.729  0.00  0.00     0.220 HD
ENDBRANCH  29  33
ENDBRANCH  26  29
ENDBRANCH  23  26
ENDBRANCH  19  20
ENDBRANCH  18  19
ENDBRANCH   1  18
TORSDOF 13
ENDMDL
MODEL 7
REMARK VINA RESULT:      -6.3     11.553     15.278
REMARK  13 active torsions:
REMARK  status: ('A' for Active; 'I' for Inactive)
REMARK    1  A    between atoms: C_1  and  C_2 
REMARK    2  A    between atoms: C_1  and  C_6 
REMARK    3  A    between atoms: C_2  and  C_3 
REMARK    4  A    between atoms: C_3  and  C_4 
REMARK    5  A    between atoms: C_4  and  C_13 
REMARK    6  A    between atoms: C_5  and  C_9 
REMARK    7  A    between atoms: C_5  and  P_21 
REMARK    8  A    between atoms: C_12  and  C_16 
REMARK    9  A    between atoms: C_12  and  P_27 
REMARK   10  A    between atoms: P_21  and  O_23 
REMARK   11  A    between atoms: P_21  and  O_24 
REMARK   12  A    between atoms: P_27  and  O_29 
REMARK   13  A    between atoms: P_27  and  O_30 
ROOT
HETATM    1  C   UNK N   1      27.674  19.687   6.125  0.00  0.00     0.005 C 
ENDROOT
BRANCH   1   2
HETATM    2  C   UNK N   1      27.777  18.176   5.936  0.00  0.00     0.038 C 
BRANCH   2   3
HETATM    3  C   UNK N   1      29.013  17.686   6.606  0.00  0.00    -0.058 A 
HETATM    4  C   UNK N   1      29.162  17.797   7.991  0.00  0.00     0.008 A 
HETATM    5  C   UNK N   1      30.257  17.199   8.623  0.00  0.00     0.014 A 
HETATM    6  C   UNK N   1      31.189  16.467   7.872  0.00  0.00     0.025 A 
HETATM    7  C   UNK N   1      31.034  16.369   6.483  0.00  0.00     0.014 A 
HETATM    8  C   UNK N   1      29.953  16.982   5.852  0.00  0.00     0.008 A 
BRANCH   6   9
HETATM    9  C   UNK N   1      32.320  15.742   8.545  0.00  0.00     0.364 C 
HETATM   10  F   UNK N   1      31.965  15.353   9.826  0.00  0.00    -0.187 F 
HETATM   11  F   UNK N   1      32.626  14.612   7.808  0.00  0.00    -0.187 F 
BRANCH   9  12
HETATM   12  P   UNK N   1      33.832  16.825   8.637  0.00  0.00     0.315 P 
HETATM   13  O   UNK N   1      35.010  16.167   7.868  0.00  0.00    -0.649 OA
BRANCH  12  14
HETATM   14  O   UNK N   1      34.457  17.096  10.232  0.00  0.00    -0.325 OA
HETATM   15  H   UNK N   1      34.045  17.466  11.028  0.00  0.00     0.220 HD
ENDBRANCH  12  14
BRANCH  12  16
HETATM   16  O   UNK N   1      33.657  18.380   7.884  0.00  0.00    -0.325 OA
HETATM   17  H   UNK N   1      34.147  19.214   7.950  0.00  0.00     0.220 HD
ENDBRANCH  12  16
ENDBRANCH   9  12
ENDBRANCH   6   9
ENDBRANCH   2   3
ENDBRANCH   1   2
BRANCH   1  18
HETATM   18  C   UNK N   1      27.328  20.376   4.802  0.00  0.00     0.005 C 
BRANCH  18  19
HETATM   19  C   UNK N   1      26.890  19.369   3.753  0.00  0.00     0.038 C 
BRANCH  19  20
HETATM   20  C   UNK N   1      25.417  19.448   3.584  0.00  0.00    -0.058 A 
HETATM   21  C   UNK N   1      24.844  20.470   2.818  0.00  0.00     0.008 A 
HETATM   22  C   UNK N   1      23.456  20.585   2.738  0.00  0.00     0.014 A 
HETATM   23  C   UNK N   1      22.631  19.687   3.430  0.00  0.00     0.025 A 
HETATM   24  C   UNK N   1      23.218  18.656   4.181  0.00  0.00     0.014 A 
HETATM   25  C   UNK N   1      24.604  18.536   4.256  0.00  0.00     0.008 A 
BRANCH  23  26
HETATM   26  C   UNK N   1      21.135  19.875   3.375  0.00  0.00     0.364 C 
HETATM   27  F   UNK N   1      20.616  19.646   4.636  0.00  0.00    -0.187 F 
HETATM   28  F   UNK N   1      20.854  21.177   3.005  0.00  0.00    -0.187 F 
BRANCH  26  29
HETATM   29  P   UNK N   1      20.280  18.713   2.181  0.00  0.00     0.315 P 
HETATM   30  O   UNK N   1      20.831  17.269   2.326  0.00  0.00    -0.649 OA
BRANCH  29  31
HETATM   31  O   UNK N   1      18.571  18.545   2.435  0.00  0.00    -0.325 OA
HETATM   32  H   UNK N   1      18.094  17.781   2.076  0.00  0.00     0.220 HD
ENDBRANCH  29  31
BRANCH  29  33
HETATM   33  O   UNK N   1      20.506  19.091   0.504  0.00  0.00    -0.325 OA
HETATM   34  H   UNK N   1      20.744  18.442  -0.177  0.00  0.00     0.220 HD
ENDBRANCH  29  33
ENDBRANCH  26  29
ENDBRANCH  23  26
ENDBRANCH  19  20
ENDBRANCH  18  19
ENDBRANCH   1  18
TORSDOF 13
ENDMDL
MODEL 8
REMARK VINA RESULT:      -6.2     14.185     16.002
REMARK  13 active torsions:
REMARK  status: ('A' for Active; 'I' for Inactive)
REMARK    1  A    between atoms: C_1  and  C_2 
REMARK    2  A    between atoms: C_1  and  C_6 
REMARK    3  A    between atoms: C_2  and  C_3 
REMARK    4  A    between atoms: C_3  and  C_4 
REMARK    5  A    between atoms: C_4  and  C_13 
REMARK    6  A    between atoms: C_5  and  C_9 
REMARK    7  A    between atoms: C_5  and  P_21 
REMARK    8  A    between atoms: C_12  and  C_16 
REMARK    9  A    between atoms: C_12  and  P_27 
REMARK   10  A    between atoms: P_21  and  O_23 
REMARK   11  A    between atoms: P_21  and  O_24 
REMARK   12  A    between atoms: P_27  and  O_29 
REMARK   13  A    between atoms: P_27  and  O_30 
ROOT
HETATM    1  C   UNK N   1      19.805  12.504   2.264  0.00  0.00     0.005 C 
ENDROOT
BRANCH   1   2
HETATM    2  C   UNK N   1      19.453  11.950   3.641  0.00  0.00     0.038 C 
BRANCH   2   3
HETATM    3  C   UNK N   1      19.551  13.047   4.644  0.00  0.00    -0.058 A 
HETATM    4  C   UNK N   1      20.402  12.927   5.746  0.00  0.00     0.008 A 
HETATM    5  C   UNK N   1      20.598  14.021   6.596  0.00  0.00     0.014 A 
HETATM    6  C   UNK N   1      19.964  15.243   6.326  0.00  0.00     0.025 A 
HETATM    7  C   UNK N   1      19.107  15.349   5.223  0.00  0.00     0.014 A 
HETATM    8  C   UNK N   1      18.898  14.253   4.389  0.00  0.00     0.008 A 
BRANCH   6   9
HETATM    9  C   UNK N   1      20.234  16.454   7.174  0.00  0.00     0.364 C 
HETATM   10  F   UNK N   1      21.387  16.285   7.923  0.00  0.00    -0.187 F 
HETATM   11  F   UNK N   1      20.399  17.549   6.347  0.00  0.00    -0.187 F 
BRANCH   9  12
HETATM   12  P   UNK N   1      18.806  16.782   8.324  0.00  0.00     0.315 P 
HETATM   13  O   UNK N   1      18.739  15.686   9.421  0.00  0.00    -0.649 OA
BRANCH  12  14
HETATM   14  O   UNK N   1      17.236  16.752   7.588  0.00  0.00    -0.325 OA
HETATM   15  H   UNK N   1      16.935  17.020   6.706  0.00  0.00     0.220 HD
ENDBRANCH  12  14
BRANCH  12  16
HETATM   16  O   UNK N   1      18.923  18.265   9.221  0.00  0.00    -0.325 OA
HETATM   17  H   UNK N   1      18.280  18.943   9.480  0.00  0.00     0.220 HD
ENDBRANCH  12  16
ENDBRANCH   9  12
ENDBRANCH   6   9
ENDBRANCH   2   3
ENDBRANCH   1   2
BRANCH   1  18
HETATM   18  C   UNK N   1      21.313  12.743   2.145  0.00  0.00     0.005 C 
BRANCH  18  19
HETATM   19  C   UNK N   1      21.627  13.771   1.073  0.00  0.00     0.038 C 
BRANCH  19  20
HETATM   20  C   UNK N   1      21.201  15.114   1.544  0.00  0.00    -0.058 A 
HETATM   21  C   UNK N   1      20.257  15.853   0.822  0.00  0.00     0.008 A 
HETATM   22  C   UNK N   1      19.930  17.148   1.227  0.00  0.00     0.014 A 
HETATM   23  C   UNK N   1      20.549  17.716   2.349  0.00  0.00     0.025 A 
HETATM   24  C   UNK N   1      21.481  16.957   3.075  0.00  0.00     0.014 A 
HETATM   25  C   UNK N   1      21.804  15.662   2.675  0.00  0.00     0.008 A 
BRANCH  23  26
HETATM   26  C   UNK N   1      20.221  19.139   2.724  0.00  0.00     0.364 C 
HETATM   27  F   UNK N   1      18.848  19.302   2.674  0.00  0.00    -0.187 F 
HETATM   28  F   UNK N   1      20.653  19.380   4.015  0.00  0.00    -0.187 F 
BRANCH  26  29
HETATM   29  P   UNK N   1      20.992  20.410   1.585  0.00  0.00     0.315 P 
HETATM   30  O   UNK N   1      22.542  20.324   1.631  0.00  0.00    -0.649 OA
BRANCH  29  31
HETATM   31  O   UNK N   1      20.604  20.204  -0.095  0.00  0.00    -0.325 OA
HETATM   32  H   UNK N   1      19.679  20.159  -0.383  0.00  0.00     0.220 HD
ENDBRANCH  29  31
BRANCH  29  33
HETATM   33  O   UNK N   1      20.642  22.060   1.985  0.00  0.00    -0.325 OA
HETATM   34  H   UNK N   1      19.945  22.338   2.600  0.00  0.00     0.220 HD
ENDBRANCH  29  33
ENDBRANCH  26  29
ENDBRANCH  23  26
ENDBRANCH  19  20
ENDBRANCH  18  19
ENDBRANCH   1  18
TORSDOF 13
ENDMDL
MODEL 9
REMARK VINA RESULT:      -6.1      3.984      6.446
REMARK  13 active torsions:
REMARK  status: ('A' for Active; 'I' for Inactive)
REMARK    1  A    between atoms: C_1  and  C_2 
REMARK    2  A    between atoms: C_1  and  C_6 
REMARK    3  A    between atoms: C_2  and  C_3 
REMARK    4  A    between atoms: C_3  and  C_4 
REMARK    5  A    between atoms: C_4  and  C_13 
REMARK    6  A    between atoms: C_5  and  C_9 
REMARK    7  A    between atoms: C_5  and  P_21 
REMARK    8  A    between atoms: C_12  and  C_16 
REMARK    9  A    between atoms: C_12  and  P_27 
REMARK   10  A    between atoms: P_21  and  O_23 
REMARK   11  A    between atoms: P_21  and  O_24 
REMARK   12  A    between atoms: P_27  and  O_29 
REMARK   13  A    between atoms: P_27  and  O_30 
ROOT
HETATM    1  C   UNK N   1      26.014  23.399  -8.748  0.00  0.00     0.005 C 
ENDROOT
BRANCH   1   2
HETATM    2  C   UNK N   1      25.747  22.830  -7.358  0.00  0.00     0.038 C 
BRANCH   2   3
HETATM    3  C   UNK N   1      26.866  23.215  -6.454  0.00  0.00    -0.058 A 
HETATM    4  C   UNK N   1      26.607  23.667  -5.157  0.00  0.00     0.008 A 
HETATM    5  C   UNK N   1      27.667  23.881  -4.270  0.00  0.00     0.014 A 
HETATM    6  C   UNK N   1      28.985  23.616  -4.673  0.00  0.00     0.025 A 
HETATM    7  C   UNK N   1      29.233  23.171  -5.978  0.00  0.00     0.014 A 
HETATM    8  C   UNK N   1      28.177  22.977  -6.866  0.00  0.00     0.008 A 
BRANCH   6   9
HETATM    9  C   UNK N   1      30.128  23.752  -3.707  0.00  0.00     0.364 C 
HETATM   10  F   UNK N   1      30.947  24.813  -4.056  0.00  0.00    -0.187 F 
HETATM   11  F   UNK N   1      29.617  23.984  -2.443  0.00  0.00    -0.187 F 
BRANCH   9  12
HETATM   12  P   UNK N   1      31.143  22.191  -3.665  0.00  0.00     0.315 P 
HETATM   13  O   UNK N   1      30.217  20.948  -3.732  0.00  0.00    -0.649 OA
BRANCH  12  14
HETATM   14  O   UNK N   1      32.082  21.953  -2.226  0.00  0.00    -0.325 OA
HETATM   15  H   UNK N   1      32.437  21.148  -1.817  0.00  0.00     0.220 HD
ENDBRANCH  12  14
BRANCH  12  16
HETATM   16  O   UNK N   1      32.216  21.988  -5.015  0.00  0.00    -0.325 OA
HETATM   17  H   UNK N   1      32.120  21.583  -5.892  0.00  0.00     0.220 HD
ENDBRANCH  12  16
ENDBRANCH   9  12
ENDBRANCH   6   9
ENDBRANCH   2   3
ENDBRANCH   1   2
BRANCH   1  18
HETATM   18  C   UNK N   1      25.214  24.686  -8.970  0.00  0.00     0.005 C 
BRANCH  18  19
HETATM   19  C   UNK N   1      26.126  25.850  -9.316  0.00  0.00     0.038 C 
BRANCH  19  20
HETATM   20  C   UNK N   1      26.652  26.448  -8.063  0.00  0.00    -0.058 A 
HETATM   21  C   UNK N   1      28.029  26.625  -7.885  0.00  0.00     0.008 A 
HETATM   22  C   UNK N   1      28.517  27.108  -6.670  0.00  0.00     0.014 A 
HETATM   23  C   UNK N   1      27.635  27.406  -5.621  0.00  0.00     0.025 A 
HETATM   24  C   UNK N   1      26.255  27.240  -5.818  0.00  0.00     0.014 A 
HETATM   25  C   UNK N   1      25.766  26.765  -7.034  0.00  0.00     0.008 A 
BRANCH  23  26
HETATM   26  C   UNK N   1      28.198  27.865  -4.300  0.00  0.00     0.364 C 
HETATM   27  F   UNK N   1      28.697  26.765  -3.627  0.00  0.00    -0.187 F 
HETATM   28  F   UNK N   1      29.231  28.755  -4.529  0.00  0.00    -0.187 F 
BRANCH  26  29
HETATM   29  P   UNK N   1      26.930  28.689  -3.194  0.00  0.00     0.315 P 
HETATM   30  O   UNK N   1      25.847  27.672  -2.743  0.00  0.00    -0.649 OA
BRANCH  29  31
HETATM   31  O   UNK N   1      27.568  29.320  -1.708  0.00  0.00    -0.325 OA
HETATM   32  H   UNK N   1      28.522  29.302  -1.537  0.00  0.00     0.220 HD
ENDBRANCH  29  31
BRANCH  29  33
HETATM   33  O   UNK N   1      26.030  29.969  -3.940  0.00  0.00    -0.325 OA
HETATM   34  H   UNK N   1      26.418  30.803  -4.249  0.00  0.00     0.220 HD
ENDBRANCH  29  33
ENDBRANCH  26  29
ENDBRANCH  23  26
ENDBRANCH  19  20
ENDBRANCH  18  19
ENDBRANCH   1  18
TORSDOF 13
ENDMDL
