MODEL 1
REMARK VINA RESULT:      -7.0      0.000      0.000
REMARK  9 active torsions:
REMARK  status: ('A' for Active; 'I' for Inactive)
REMARK    1  A    between atoms: C_3  and  C_4 
REMARK    2  A    between atoms: C_5  and  C_6 
REMARK    3  A    between atoms: C_6  and  O_7 
REMARK    4  A    between atoms: C_6  and  C_8 
REMARK    5  A    between atoms: C_8  and  N_9 
REMARK    6  A    between atoms: C_8  and  C_10 
REMARK    7  A    between atoms: C_10  and  O_11 
REMARK    8  A    between atoms: C_21  and  C_22 
REMARK    9  A    between atoms: C_23  and  O_24 
ROOT
HETATM    1  F   UNK N   1      25.951  21.238   2.696  0.00  0.00    -0.205 F 
HETATM    2  C   UNK N   1      26.162  20.117   3.433  0.00  0.00     0.136 A 
HETATM    3  C   UNK N   1      25.080  19.315   3.836  0.00  0.00     0.070 A 
HETATM    4  C   UNK N   1      25.327  18.176   4.583  0.00  0.00     0.028 A 
HETATM    5  C   UNK N   1      26.600  17.801   4.917  0.00  0.00     0.048 A 
HETATM    6  N   UNK N   1      26.596  16.582   5.632  0.00  0.00    -0.322 N 
HETATM    7  C   UNK N   1      25.300  16.199   5.758  0.00  0.00     0.257 A 
HETATM    8  O   UNK N   1      24.962  15.151   6.280  0.00  0.00    -0.267 OA
HETATM    9  C   UNK N   1      27.707  18.561   4.529  0.00  0.00     0.033 A 
HETATM   10  C   UNK N   1      27.477  19.739   3.785  0.00  0.00     0.046 A 
HETATM   11  C   UNK N   1      24.408  17.176   5.123  0.00  0.00     0.048 A 
HETATM   12  C   UNK N   1      23.069  17.208   4.976  0.00  0.00     0.050 C 
HETATM   13  H   UNK N   1      27.384  16.102   5.975  0.00  0.00     0.169 HD
ENDROOT
BRANCH   3  14
HETATM   14  C   UNK N   1      23.745  19.604   3.471  0.00  0.00    -0.060 C 
HETATM   15  C   UNK N   1      22.652  19.921   3.121  0.00  0.00    -0.067 C 
BRANCH  15  16
HETATM   16  C   UNK N   1      21.277  20.182   2.773  0.00  0.00     0.221 C 
BRANCH  16  17
HETATM   17  O   UNK N   1      21.100  21.562   2.868  0.00  0.00    -0.381 OA
HETATM   18  H   UNK N   1      20.855  22.484   2.688  0.00  0.00     0.211 HD
ENDBRANCH  16  17
BRANCH  16  19
HETATM   19  C   UNK N   1      21.054  19.693   1.337  0.00  0.00     0.143 C 
BRANCH  19  20
HETATM   20  N   UNK N   1      20.468  20.751   0.519  0.00  0.00    -0.421 N 
HETATM   21  H   UNK N   1      19.488  21.033   0.493  0.00  0.00     0.150 HD
HETATM   22  H   UNK N   1      21.106  21.264  -0.090  0.00  0.00     0.150 HD
ENDBRANCH  19  20
BRANCH  19  23
HETATM   23  C   UNK N   1      20.134  18.480   1.290  0.00  0.00     0.139 C 
HETATM   24  C   UNK N   1      20.404  17.520   2.437  0.00  0.00     0.041 C 
BRANCH  23  25
HETATM   25  O   UNK N   1      20.313  17.807   0.082  0.00  0.00    -0.394 OA
HETATM   26  H   UNK N   1      20.098  18.211  -0.774  0.00  0.00     0.210 HD
ENDBRANCH  23  25
ENDBRANCH  19  23
ENDBRANCH  16  19
ENDBRANCH  15  16
ENDBRANCH   3  14
BRANCH  12  27
HETATM   27  C   UNK N   1      22.051  16.297   5.522  0.00  0.00     0.066 A 
HETATM   28  C   UNK N   1      21.182  16.608   6.545  0.00  0.00     0.096 A 
HETATM   29  C   UNK N   1      20.445  15.487   6.824  0.00  0.00     0.056 A 
HETATM   30  C   UNK N   1      20.889  14.522   5.932  0.00  0.00     0.091 A 
HETATM   31  N   UNK N   1      21.871  15.022   5.146  0.00  0.00    -0.364 N 
HETATM   32  H   UNK N   1      22.358  14.542   4.439  0.00  0.00     0.165 HD
BRANCH  28  33
HETATM   33  O   UNK N   1      21.004  17.799   7.151  0.00  0.00    -0.354 OA
HETATM   34  C   UNK N   1      20.080  17.934   8.159  0.00  0.00     0.210 C 
ENDBRANCH  28  33
ENDBRANCH  12  27
TORSDOF 9
ENDMDL
MODEL 2
REMARK VINA RESULT:      -7.0     14.958     18.218
REMARK  9 active torsions:
REMARK  status: ('A' for Active; 'I' for Inactive)
REMARK    1  A    between atoms: C_3  and  C_4 
REMARK    2  A    between atoms: C_5  and  C_6 
REMARK    3  A    between atoms: C_6  and  O_7 
REMARK    4  A    between atoms: C_6  and  C_8 
REMARK    5  A    between atoms: C_8  and  N_9 
REMARK    6  A    between atoms: C_8  and  C_10 
REMARK    7  A    between atoms: C_10  and  O_11 
REMARK    8  A    between atoms: C_21  and  C_22 
REMARK    9  A    between atoms: C_23  and  O_24 
ROOT
HETATM    1  F   UNK N   1      35.243  14.872  17.946  0.00  0.00    -0.205 F 
HETATM    2  C   UNK N   1      35.287  13.524  18.106  0.00  0.00     0.136 A 
HETATM    3  C   UNK N   1      35.493  12.681  17.000  0.00  0.00     0.070 A 
HETATM    4  C   UNK N   1      35.537  11.312  17.195  0.00  0.00     0.028 A 
HETATM    5  C   UNK N   1      35.410  10.762  18.442  0.00  0.00     0.048 A 
HETATM    6  N   UNK N   1      35.541   9.356  18.390  0.00  0.00    -0.322 N 
HETATM    7  C   UNK N   1      35.741   9.023  17.089  0.00  0.00     0.257 A 
HETATM    8  O   UNK N   1      35.949   7.882  16.717  0.00  0.00    -0.267 OA
HETATM    9  C   UNK N   1      35.214  11.560  19.572  0.00  0.00     0.033 A 
HETATM   10  C   UNK N   1      35.144  12.960  19.393  0.00  0.00     0.046 A 
HETATM   11  C   UNK N   1      35.739  10.222  16.242  0.00  0.00     0.048 A 
HETATM   12  C   UNK N   1      35.920  10.387  14.918  0.00  0.00     0.050 C 
HETATM   13  H   UNK N   1      35.496   8.735  19.152  0.00  0.00     0.169 HD
ENDROOT
BRANCH   3  14
HETATM   14  C   UNK N   1      35.701  13.182  15.694  0.00  0.00    -0.060 C 
HETATM   15  C   UNK N   1      35.851  13.685  14.625  0.00  0.00    -0.067 C 
BRANCH  15  16
HETATM   16  C   UNK N   1      36.071  14.155  13.279  0.00  0.00     0.221 C 
BRANCH  16  17
HETATM   17  O   UNK N   1      37.181  13.463  12.795  0.00  0.00    -0.381 OA
HETATM   18  H   UNK N   1      38.077  13.225  12.508  0.00  0.00     0.211 HD
ENDBRANCH  16  17
BRANCH  16  19
HETATM   19  C   UNK N   1      34.816  13.833  12.459  0.00  0.00     0.143 C 
BRANCH  19  20
HETATM   20  N   UNK N   1      34.852  12.452  11.987  0.00  0.00    -0.421 N 
HETATM   21  H   UNK N   1      34.781  12.133  11.021  0.00  0.00     0.150 HD
HETATM   22  H   UNK N   1      34.959  11.728  12.699  0.00  0.00     0.150 HD
ENDBRANCH  19  20
BRANCH  19  23
HETATM   23  C   UNK N   1      34.680  14.753  11.252  0.00  0.00     0.139 C 
HETATM   24  C   UNK N   1      35.438  16.056  11.445  0.00  0.00     0.041 C 
BRANCH  23  25
HETATM   25  O   UNK N   1      33.332  15.037  11.035  0.00  0.00    -0.394 OA
HETATM   26  H   UNK N   1      32.793  14.543  10.398  0.00  0.00     0.210 HD
ENDBRANCH  23  25
ENDBRANCH  19  23
ENDBRANCH  16  19
ENDBRANCH  15  16
ENDBRANCH   3  14
BRANCH  12  27
HETATM   27  C   UNK N   1      36.070   9.370  13.865  0.00  0.00     0.066 A 
HETATM   28  C   UNK N   1      36.738   9.559  12.675  0.00  0.00     0.096 A 
HETATM   29  C   UNK N   1      36.595   8.419  11.928  0.00  0.00     0.056 A 
HETATM   30  C   UNK N   1      35.845   7.555  12.713  0.00  0.00     0.091 A 
HETATM   31  N   UNK N   1      35.525   8.144  13.889  0.00  0.00    -0.364 N 
HETATM   32  H   UNK N   1      34.995   7.750  14.618  0.00  0.00     0.165 HD
BRANCH  28  33
HETATM   33  O   UNK N   1      37.469  10.625  12.293  0.00  0.00    -0.354 OA
HETATM   34  C   UNK N   1      37.908  10.736  10.996  0.00  0.00     0.210 C 
ENDBRANCH  28  33
ENDBRANCH  12  27
TORSDOF 9
ENDMDL
MODEL 3
REMARK VINA RESULT:      -6.7      6.651     10.729
REMARK  9 active torsions:
REMARK  status: ('A' for Active; 'I' for Inactive)
REMARK    1  A    between atoms: C_3  and  C_4 
REMARK    2  A    between atoms: C_5  and  C_6 
REMARK    3  A    between atoms: C_6  and  O_7 
REMARK    4  A    between atoms: C_6  and  C_8 
REMARK    5  A    between atoms: C_8  and  N_9 
REMARK    6  A    between atoms: C_8  and  C_10 
REMARK    7  A    between atoms: C_10  and  O_11 
REMARK    8  A    between atoms: C_21  and  C_22 
REMARK    9  A    between atoms: C_23  and  O_24 
ROOT
HETATM    1  F   UNK N   1      29.133  18.792   9.366  0.00  0.00    -0.205 F 
HETATM    2  C   UNK N   1      28.938  18.618   8.034  0.00  0.00     0.136 A 
HETATM    3  C   UNK N   1      29.733  17.712   7.309  0.00  0.00     0.070 A 
HETATM    4  C   UNK N   1      29.510  17.553   5.954  0.00  0.00     0.028 A 
HETATM    5  C   UNK N   1      28.518  18.239   5.306  0.00  0.00     0.048 A 
HETATM    6  N   UNK N   1      28.453  17.869   3.944  0.00  0.00    -0.322 N 
HETATM    7  C   UNK N   1      29.428  16.948   3.736  0.00  0.00     0.257 A 
HETATM    8  O   UNK N   1      29.598  16.386   2.668  0.00  0.00    -0.267 OA
HETATM    9  C   UNK N   1      27.695  19.142   5.986  0.00  0.00     0.033 A 
HETATM   10  C   UNK N   1      27.920  19.336   7.367  0.00  0.00     0.046 A 
HETATM   11  C   UNK N   1      30.172  16.692   4.975  0.00  0.00     0.048 A 
HETATM   12  C   UNK N   1      31.190  15.857   5.256  0.00  0.00     0.050 C 
HETATM   13  H   UNK N   1      27.821  18.213   3.273  0.00  0.00     0.169 HD
ENDROOT
BRANCH   3  14
HETATM   14  C   UNK N   1      30.730  16.921   7.925  0.00  0.00    -0.060 C 
HETATM   15  C   UNK N   1      31.581  16.320   8.503  0.00  0.00    -0.067 C 
BRANCH  15  16
HETATM   16  C   UNK N   1      32.594  15.483   9.097  0.00  0.00     0.221 C 
BRANCH  16  17
HETATM   17  O   UNK N   1      32.475  14.230   8.496  0.00  0.00    -0.381 OA
HETATM   18  H   UNK N   1      32.497  13.276   8.321  0.00  0.00     0.211 HD
ENDBRANCH  16  17
BRANCH  16  19
HETATM   19  C   UNK N   1      33.960  16.114   8.799  0.00  0.00     0.143 C 
BRANCH  19  20
HETATM   20  N   UNK N   1      34.167  17.302   9.622  0.00  0.00    -0.421 N 
HETATM   21  H   UNK N   1      33.696  17.530  10.497  0.00  0.00     0.150 HD
HETATM   22  H   UNK N   1      34.855  17.977   9.286  0.00  0.00     0.150 HD
ENDBRANCH  19  20
BRANCH  19  23
HETATM   23  C   UNK N   1      34.090  16.511   7.334  0.00  0.00     0.139 C 
HETATM   24  C   UNK N   1      34.996  15.560   6.569  0.00  0.00     0.041 C 
BRANCH  23  25
HETATM   25  O   UNK N   1      34.608  17.802   7.248  0.00  0.00    -0.394 OA
HETATM   26  H   UNK N   1      34.780  18.346   8.033  0.00  0.00     0.210 HD
ENDBRANCH  23  25
ENDBRANCH  19  23
ENDBRANCH  16  19
ENDBRANCH  15  16
ENDBRANCH   3  14
BRANCH  12  27
HETATM   27  C   UNK N   1      31.966  14.998   4.349  0.00  0.00     0.066 A 
HETATM   28  C   UNK N   1      32.414  13.730   4.653  0.00  0.00     0.096 A 
HETATM   29  C   UNK N   1      33.160  13.283   3.594  0.00  0.00     0.056 A 
HETATM   30  C   UNK N   1      33.123  14.307   2.659  0.00  0.00     0.091 A 
HETATM   31  N   UNK N   1      32.398  15.350   3.128  0.00  0.00    -0.364 N 
HETATM   32  H   UNK N   1      32.224  16.200   2.665  0.00  0.00     0.165 HD
BRANCH  28  33
HETATM   33  O   UNK N   1      32.144  12.995   5.750  0.00  0.00    -0.354 OA
HETATM   34  C   UNK N   1      32.737  11.768   5.926  0.00  0.00     0.210 C 
ENDBRANCH  28  33
ENDBRANCH  12  27
TORSDOF 9
ENDMDL
MODEL 4
REMARK VINA RESULT:      -6.7      7.052     11.614
REMARK  9 active torsions:
REMARK  status: ('A' for Active; 'I' for Inactive)
REMARK    1  A    between atoms: C_3  and  C_4 
REMARK    2  A    between atoms: C_5  and  C_6 
REMARK    3  A    between atoms: C_6  and  O_7 
REMARK    4  A    between atoms: C_6  and  C_8 
REMARK    5  A    between atoms: C_8  and  N_9 
REMARK    6  A    between atoms: C_8  and  C_10 
REMARK    7  A    between atoms: C_10  and  O_11 
REMARK    8  A    between atoms: C_21  and  C_22 
REMARK    9  A    between atoms: C_23  and  O_24 
ROOT
HETATM    1  F   UNK N   1      30.122  18.777  10.094  0.00  0.00    -0.205 F 
HETATM    2  C   UNK N   1      29.697  18.437   8.849  0.00  0.00     0.136 A 
HETATM    3  C   UNK N   1      30.557  17.769   7.960  0.00  0.00     0.070 A 
HETATM    4  C   UNK N   1      30.095  17.432   6.700  0.00  0.00     0.028 A 
HETATM    5  C   UNK N   1      28.813  17.712   6.309  0.00  0.00     0.048 A 
HETATM    6  N   UNK N   1      28.564  17.224   5.007  0.00  0.00    -0.322 N 
HETATM    7  C   UNK N   1      29.712  16.644   4.573  0.00  0.00     0.257 A 
HETATM    8  O   UNK N   1      29.808  16.074   3.500  0.00  0.00    -0.267 OA
HETATM    9  C   UNK N   1      27.919  18.364   7.163  0.00  0.00     0.033 A 
HETATM   10  C   UNK N   1      28.377  18.737   8.446  0.00  0.00     0.046 A 
HETATM   11  C   UNK N   1      30.760  16.743   5.596  0.00  0.00     0.048 A 
HETATM   12  C   UNK N   1      32.031  16.299   5.626  0.00  0.00     0.050 C 
HETATM   13  H   UNK N   1      27.719  17.293   4.507  0.00  0.00     0.169 HD
ENDROOT
BRANCH   3  14
HETATM   14  C   UNK N   1      31.871  17.388   8.319  0.00  0.00    -0.060 C 
HETATM   15  C   UNK N   1      32.947  16.983   8.629  0.00  0.00    -0.067 C 
BRANCH  15  16
HETATM   16  C   UNK N   1      34.298  16.638   8.995  0.00  0.00     0.221 C 
BRANCH  16  17
HETATM   17  O   UNK N   1      34.560  17.289  10.201  0.00  0.00    -0.381 OA
HETATM   18  H   UNK N   1      34.555  17.921  10.938  0.00  0.00     0.211 HD
ENDBRANCH  16  17
BRANCH  16  19
HETATM   19  C   UNK N   1      34.366  15.115   9.162  0.00  0.00     0.143 C 
BRANCH  19  20
HETATM   20  N   UNK N   1      33.150  14.488   8.650  0.00  0.00    -0.421 N 
HETATM   21  H   UNK N   1      32.982  14.168   7.696  0.00  0.00     0.150 HD
HETATM   22  H   UNK N   1      32.389  14.356   9.316  0.00  0.00     0.150 HD
ENDBRANCH  19  20
BRANCH  19  23
HETATM   23  C   UNK N   1      34.538  14.715  10.622  0.00  0.00     0.139 C 
HETATM   24  C   UNK N   1      35.007  13.276  10.763  0.00  0.00     0.041 C 
BRANCH  23  25
HETATM   25  O   UNK N   1      33.324  14.865  11.291  0.00  0.00    -0.394 OA
HETATM   26  H   UNK N   1      33.235  15.407  12.091  0.00  0.00     0.210 HD
ENDBRANCH  23  25
ENDBRANCH  19  23
ENDBRANCH  16  19
ENDBRANCH  15  16
ENDBRANCH   3  14
BRANCH  12  27
HETATM   27  C   UNK N   1      32.817  15.653   4.563  0.00  0.00     0.066 A 
HETATM   28  C   UNK N   1      33.598  14.530   4.730  0.00  0.00     0.096 A 
HETATM   29  C   UNK N   1      34.230  14.278   3.541  0.00  0.00     0.056 A 
HETATM   30  C   UNK N   1      33.789  15.266   2.672  0.00  0.00     0.091 A 
HETATM   31  N   UNK N   1      32.933  16.102   3.304  0.00  0.00    -0.364 N 
HETATM   32  H   UNK N   1      32.484  16.887   2.915  0.00  0.00     0.165 HD
BRANCH  28  33
HETATM   33  O   UNK N   1      33.706  13.749   5.823  0.00  0.00    -0.354 OA
HETATM   34  C   UNK N   1      34.513  12.637   5.804  0.00  0.00     0.210 C 
ENDBRANCH  28  33
ENDBRANCH  12  27
TORSDOF 9
ENDMDL
MODEL 5
REMARK VINA RESULT:      -6.6      1.624      2.146
REMARK  9 active torsions:
REMARK  status: ('A' for Active; 'I' for Inactive)
REMARK    1  A    between atoms: C_3  and  C_4 
REMARK    2  A    between atoms: C_5  and  C_6 
REMARK    3  A    between atoms: C_6  and  O_7 
REMARK    4  A    between atoms: C_6  and  C_8 
REMARK    5  A    between atoms: C_8  and  N_9 
REMARK    6  A    between atoms: C_8  and  C_10 
REMARK    7  A    between atoms: C_10  and  O_11 
REMARK    8  A    between atoms: C_21  and  C_22 
REMARK    9  A    between atoms: C_23  and  O_24 
ROOT
HETATM    1  F   UNK N   1      25.254  21.002   2.694  0.00  0.00    -0.205 F 
HETATM    2  C   UNK N   1      25.644  19.887   3.365  0.00  0.00     0.136 A 
HETATM    3  C   UNK N   1      24.689  19.037   3.952  0.00  0.00     0.070 A 
HETATM    4  C   UNK N   1      25.116  17.907   4.626  0.00  0.00     0.028 A 
HETATM    5  C   UNK N   1      26.444  17.584   4.714  0.00  0.00     0.048 A 
HETATM    6  N   UNK N   1      26.622  16.363   5.401  0.00  0.00    -0.322 N 
HETATM    7  C   UNK N   1      25.389  15.925   5.760  0.00  0.00     0.257 A 
HETATM    8  O   UNK N   1      25.197  14.861   6.323  0.00  0.00    -0.267 OA
HETATM    9  C   UNK N   1      27.428  18.393   4.137  0.00  0.00     0.033 A 
HETATM   10  C   UNK N   1      27.016  19.563   3.463  0.00  0.00     0.046 A 
HETATM   11  C   UNK N   1      24.355  16.865   5.313  0.00  0.00     0.048 A 
HETATM   12  C   UNK N   1      23.012  16.842   5.416  0.00  0.00     0.050 C 
HETATM   13  H   UNK N   1      27.479  15.916   5.586  0.00  0.00     0.169 HD
ENDROOT
BRANCH   3  14
HETATM   14  C   UNK N   1      23.299  19.272   3.843  0.00  0.00    -0.060 C 
HETATM   15  C   UNK N   1      22.141  19.481   3.663  0.00  0.00    -0.067 C 
BRANCH  15  16
HETATM   16  C   UNK N   1      20.720  19.718   3.597  0.00  0.00     0.221 C 
BRANCH  16  17
HETATM   17  O   UNK N   1      20.556  21.001   3.074  0.00  0.00    -0.381 OA
HETATM   18  H   UNK N   1      20.189  21.862   2.820  0.00  0.00     0.211 HD
ENDBRANCH  16  17
BRANCH  16  19
HETATM   19  C   UNK N   1      20.109  18.660   2.669  0.00  0.00     0.143 C 
BRANCH  19  20
HETATM   20  N   UNK N   1      18.716  18.980   2.373  0.00  0.00    -0.421 N 
HETATM   21  H   UNK N   1      17.953  19.070   3.044  0.00  0.00     0.150 HD
HETATM   22  H   UNK N   1      18.480  19.130   1.392  0.00  0.00     0.150 HD
ENDBRANCH  19  20
BRANCH  19  23
HETATM   23  C   UNK N   1      20.165  17.268   3.287  0.00  0.00     0.139 C 
HETATM   24  C   UNK N   1      20.578  16.215   2.273  0.00  0.00     0.041 C 
BRANCH  23  25
HETATM   25  O   UNK N   1      18.911  16.939   3.801  0.00  0.00    -0.394 OA
HETATM   26  H   UNK N   1      18.390  16.194   3.462  0.00  0.00     0.210 HD
ENDBRANCH  23  25
ENDBRANCH  19  23
ENDBRANCH  16  19
ENDBRANCH  15  16
ENDBRANCH   3  14
BRANCH  12  27
HETATM   27  C   UNK N   1      22.152  15.885   6.130  0.00  0.00     0.066 A 
HETATM   28  C   UNK N   1      21.798  14.639   5.660  0.00  0.00     0.096 A 
HETATM   29  C   UNK N   1      20.931  14.081   6.562  0.00  0.00     0.056 A 
HETATM   30  C   UNK N   1      20.799  15.019   7.576  0.00  0.00     0.091 A 
HETATM   31  N   UNK N   1      21.541  16.117   7.302  0.00  0.00    -0.364 N 
HETATM   32  H   UNK N   1      21.617  16.927   7.855  0.00  0.00     0.165 HD
BRANCH  28  33
HETATM   33  O   UNK N   1      22.245  14.011   4.555  0.00  0.00    -0.354 OA
HETATM   34  C   UNK N   1      22.628  12.692   4.613  0.00  0.00     0.210 C 
ENDBRANCH  28  33
ENDBRANCH  12  27
TORSDOF 9
ENDMDL
MODEL 6
REMARK VINA RESULT:      -6.6     11.541     12.904
REMARK  9 active torsions:
REMARK  status: ('A' for Active; 'I' for Inactive)
REMARK    1  A    between atoms: C_3  and  C_4 
REMARK    2  A    between atoms: C_5  and  C_6 
REMARK    3  A    between atoms: C_6  and  O_7 
REMARK    4  A    between atoms: C_6  and  C_8 
REMARK    5  A    between atoms: C_8  and  N_9 
REMARK    6  A    between atoms: C_8  and  C_10 
REMARK    7  A    between atoms: C_10  and  O_11 
REMARK    8  A    between atoms: C_21  and  C_22 
REMARK    9  A    between atoms: C_23  and  O_24 
ROOT
HETATM    1  F   UNK N   1      30.566  23.229  -1.816  0.00  0.00    -0.205 F 
HETATM    2  C   UNK N   1      30.835  22.447  -2.893  0.00  0.00     0.136 A 
HETATM    3  C   UNK N   1      29.982  22.456  -4.011  0.00  0.00     0.070 A 
HETATM    4  C   UNK N   1      30.284  21.652  -5.096  0.00  0.00     0.028 A 
HETATM    5  C   UNK N   1      31.405  20.867  -5.115  0.00  0.00     0.048 A 
HETATM    6  N   UNK N   1      31.522  20.183  -6.345  0.00  0.00    -0.322 N 
HETATM    7  C   UNK N   1      30.451  20.536  -7.100  0.00  0.00     0.257 A 
HETATM    8  O   UNK N   1      30.288  20.157  -8.247  0.00  0.00    -0.267 OA
HETATM    9  C   UNK N   1      32.288  20.834  -4.031  0.00  0.00     0.033 A 
HETATM   10  C   UNK N   1      31.987  21.630  -2.904  0.00  0.00     0.046 A 
HETATM   11  C   UNK N   1      29.588  21.472  -6.369  0.00  0.00     0.048 A 
HETATM   12  C   UNK N   1      28.448  22.101  -6.713  0.00  0.00     0.050 C 
HETATM   13  H   UNK N   1      32.244  19.566  -6.606  0.00  0.00     0.169 HD
ENDROOT
BRANCH   3  14
HETATM   14  C   UNK N   1      28.844  23.292  -4.089  0.00  0.00    -0.060 C 
HETATM   15  C   UNK N   1      27.837  23.927  -4.126  0.00  0.00    -0.067 C 
BRANCH  15  16
HETATM   16  C   UNK N   1      26.702  24.811  -4.223  0.00  0.00     0.221 C 
BRANCH  16  17
HETATM   17  O   UNK N   1      26.509  25.349  -2.950  0.00  0.00    -0.381 OA
HETATM   18  H   UNK N   1      26.197  25.885  -2.204  0.00  0.00     0.211 HD
ENDBRANCH  16  17
BRANCH  16  19
HETATM   19  C   UNK N   1      27.044  25.905  -5.241  0.00  0.00     0.143 C 
BRANCH  19  20
HETATM   20  N   UNK N   1      27.336  27.165  -4.561  0.00  0.00    -0.421 N 
HETATM   21  H   UNK N   1      27.038  27.438  -3.625  0.00  0.00     0.150 HD
HETATM   22  H   UNK N   1      27.898  27.843  -5.077  0.00  0.00     0.150 HD
ENDBRANCH  19  20
BRANCH  19  23
HETATM   23  C   UNK N   1      25.904  26.139  -6.223  0.00  0.00     0.139 C 
HETATM   24  C   UNK N   1      24.864  27.096  -5.666  0.00  0.00     0.041 C 
BRANCH  23  25
HETATM   25  O   UNK N   1      25.291  24.922  -6.520  0.00  0.00    -0.394 OA
HETATM   26  H   UNK N   1      25.199  24.595  -7.429  0.00  0.00     0.210 HD
ENDBRANCH  23  25
ENDBRANCH  19  23
ENDBRANCH  16  19
ENDBRANCH  15  16
ENDBRANCH   3  14
BRANCH  12  27
HETATM   27  C   UNK N   1      27.635  21.952  -7.930  0.00  0.00     0.066 A 
HETATM   28  C   UNK N   1      26.260  21.855  -7.954  0.00  0.00     0.096 A 
HETATM   29  C   UNK N   1      25.876  21.649  -9.253  0.00  0.00     0.056 A 
HETATM   30  C   UNK N   1      27.052  21.645  -9.989  0.00  0.00     0.091 A 
HETATM   31  N   UNK N   1      28.119  21.824  -9.175  0.00  0.00    -0.364 N 
HETATM   32  H   UNK N   1      29.065  21.855  -9.444  0.00  0.00     0.165 HD
BRANCH  28  33
HETATM   33  O   UNK N   1      25.401  21.995  -6.925  0.00  0.00    -0.354 OA
HETATM   34  C   UNK N   1      24.320  21.154  -6.804  0.00  0.00     0.210 C 
ENDBRANCH  28  33
ENDBRANCH  12  27
TORSDOF 9
ENDMDL
MODEL 7
REMARK VINA RESULT:      -6.6      1.742      2.167
REMARK  9 active torsions:
REMARK  status: ('A' for Active; 'I' for Inactive)
REMARK    1  A    between atoms: C_3  and  C_4 
REMARK    2  A    between atoms: C_5  and  C_6 
REMARK    3  A    between atoms: C_6  and  O_7 
REMARK    4  A    between atoms: C_6  and  C_8 
REMARK    5  A    between atoms: C_8  and  N_9 
REMARK    6  A    between atoms: C_8  and  C_10 
REMARK    7  A    between atoms: C_10  and  O_11 
REMARK    8  A    between atoms: C_21  and  C_22 
REMARK    9  A    between atoms: C_23  and  O_24 
ROOT
HETATM    1  F   UNK N   1      24.388  20.935   2.535  0.00  0.00    -0.205 F 
HETATM    2  C   UNK N   1      25.210  20.146   3.274  0.00  0.00     0.136 A 
HETATM    3  C   UNK N   1      24.715  18.984   3.893  0.00  0.00     0.070 A 
HETATM    4  C   UNK N   1      25.576  18.197   4.636  0.00  0.00     0.028 A 
HETATM    5  C   UNK N   1      26.903  18.510   4.763  0.00  0.00     0.048 A 
HETATM    6  N   UNK N   1      27.583  17.531   5.521  0.00  0.00    -0.322 N 
HETATM    7  C   UNK N   1      26.664  16.600   5.885  0.00  0.00     0.257 A 
HETATM    8  O   UNK N   1      26.947  15.589   6.504  0.00  0.00    -0.267 OA
HETATM    9  C   UNK N   1      27.442  19.648   4.157  0.00  0.00     0.033 A 
HETATM   10  C   UNK N   1      26.576  20.478   3.412  0.00  0.00     0.046 A 
HETATM   11  C   UNK N   1      25.336  16.955   5.370  0.00  0.00     0.048 A 
HETATM   12  C   UNK N   1      24.144  16.335   5.453  0.00  0.00     0.050 C 
HETATM   13  H   UNK N   1      28.541  17.525   5.745  0.00  0.00     0.169 HD
ENDROOT
BRANCH   3  14
HETATM   14  C   UNK N   1      23.373  18.563   3.749  0.00  0.00    -0.060 C 
HETATM   15  C   UNK N   1      22.221  18.266   3.693  0.00  0.00    -0.067 C 
BRANCH  15  16
HETATM   16  C   UNK N   1      20.865  17.806   3.518  0.00  0.00     0.221 C 
BRANCH  16  17
HETATM   17  O   UNK N   1      20.369  17.540   4.794  0.00  0.00    -0.381 OA
HETATM   18  H   UNK N   1      20.130  17.104   5.628  0.00  0.00     0.211 HD
ENDBRANCH  16  17
BRANCH  16  19
HETATM   19  C   UNK N   1      20.071  18.927   2.838  0.00  0.00     0.143 C 
BRANCH  19  20
HETATM   20  N   UNK N   1      18.782  18.430   2.366  0.00  0.00    -0.421 N 
HETATM   21  H   UNK N   1      18.549  17.467   2.125  0.00  0.00     0.150 HD
HETATM   22  H   UNK N   1      18.035  19.118   2.268  0.00  0.00     0.150 HD
ENDBRANCH  19  20
BRANCH  19  23
HETATM   23  C   UNK N   1      20.826  19.514   1.652  0.00  0.00     0.139 C 
HETATM   24  C   UNK N   1      20.646  21.020   1.555  0.00  0.00     0.041 C 
BRANCH  23  25
HETATM   25  O   UNK N   1      20.370  18.923   0.474  0.00  0.00    -0.394 OA
HETATM   26  H   UNK N   1      20.975  18.567  -0.196  0.00  0.00     0.210 HD
ENDBRANCH  23  25
ENDBRANCH  19  23
ENDBRANCH  16  19
ENDBRANCH  15  16
ENDBRANCH   3  14
BRANCH  12  27
HETATM   27  C   UNK N   1      23.776  15.125   6.206  0.00  0.00     0.066 A 
HETATM   28  C   UNK N   1      22.664  15.006   7.012  0.00  0.00     0.096 A 
HETATM   29  C   UNK N   1      22.704  13.769   7.601  0.00  0.00     0.056 A 
HETATM   30  C   UNK N   1      23.851  13.163   7.109  0.00  0.00     0.091 A 
HETATM   31  N   UNK N   1      24.501  13.998   6.265  0.00  0.00    -0.364 N 
HETATM   32  H   UNK N   1      25.342  13.814   5.788  0.00  0.00     0.165 HD
BRANCH  28  33
HETATM   33  O   UNK N   1      21.658  15.888   7.176  0.00  0.00    -0.354 OA
HETATM   34  C   UNK N   1      20.498  15.509   7.806  0.00  0.00     0.210 C 
ENDBRANCH  28  33
ENDBRANCH  12  27
TORSDOF 9
ENDMDL
MODEL 8
REMARK VINA RESULT:      -6.5      3.908      7.709
REMARK  9 active torsions:
REMARK  status: ('A' for Active; 'I' for Inactive)
REMARK    1  A    between atoms: C_3  and  C_4 
REMARK    2  A    between atoms: C_5  and  C_6 
REMARK    3  A    between atoms: C_6  and  O_7 
REMARK    4  A    between atoms: C_6  and  C_8 
REMARK    5  A    between atoms: C_8  and  N_9 
REMARK    6  A    between atoms: C_8  and  C_10 
REMARK    7  A    between atoms: C_10  and  O_11 
REMARK    8  A    between atoms: C_21  and  C_22 
REMARK    9  A    between atoms: C_23  and  O_24 
ROOT
HETATM    1  F   UNK N   1      24.844  11.559  10.221  0.00  0.00    -0.205 F 
HETATM    2  C   UNK N   1      23.642  12.190  10.178  0.00  0.00     0.136 A 
HETATM    3  C   UNK N   1      23.376  13.150   9.185  0.00  0.00     0.070 A 
HETATM    4  C   UNK N   1      22.141  13.774   9.164  0.00  0.00     0.028 A 
HETATM    5  C   UNK N   1      21.165  13.460  10.071  0.00  0.00     0.048 A 
HETATM    6  N   UNK N   1      19.982  14.187   9.812  0.00  0.00    -0.322 N 
HETATM    7  C   UNK N   1      20.228  14.977   8.737  0.00  0.00     0.257 A 
HETATM    8  O   UNK N   1      19.383  15.691   8.225  0.00  0.00    -0.267 OA
HETATM    9  C   UNK N   1      21.380  12.504  11.068  0.00  0.00     0.033 A 
HETATM   10  C   UNK N   1      22.641  11.871  11.122  0.00  0.00     0.046 A 
HETATM   11  C   UNK N   1      21.603  14.788   8.259  0.00  0.00     0.048 A 
HETATM   12  C   UNK N   1      22.279  15.326   7.226  0.00  0.00     0.050 C 
HETATM   13  H   UNK N   1      19.139  14.133  10.317  0.00  0.00     0.169 HD
ENDROOT
BRANCH   3  14
HETATM   14  C   UNK N   1      24.312  13.475   8.176  0.00  0.00    -0.060 C 
HETATM   15  C   UNK N   1      25.159  13.698   7.370  0.00  0.00    -0.067 C 
BRANCH  15  16
HETATM   16  C   UNK N   1      26.084  14.058   6.323  0.00  0.00     0.221 C 
BRANCH  16  17
HETATM   17  O   UNK N   1      25.385  13.943   5.121  0.00  0.00    -0.381 OA
HETATM   18  H   UNK N   1      24.860  14.135   4.328  0.00  0.00     0.211 HD
ENDBRANCH  16  17
BRANCH  16  19
HETATM   19  C   UNK N   1      26.532  15.503   6.568  0.00  0.00     0.143 C 
BRANCH  19  20
HETATM   20  N   UNK N   1      25.534  16.442   6.062  0.00  0.00    -0.421 N 
HETATM   21  H   UNK N   1      25.707  17.275   5.500  0.00  0.00     0.150 HD
HETATM   22  H   UNK N   1      24.560  16.244   6.296  0.00  0.00     0.150 HD
ENDBRANCH  19  20
BRANCH  19  23
HETATM   23  C   UNK N   1      27.864  15.804   5.892  0.00  0.00     0.139 C 
HETATM   24  C   UNK N   1      27.729  16.878   4.827  0.00  0.00     0.041 C 
BRANCH  23  25
HETATM   25  O   UNK N   1      28.359  14.639   5.306  0.00  0.00    -0.394 OA
HETATM   26  H   UNK N   1      27.810  13.850   5.174  0.00  0.00     0.210 HD
ENDBRANCH  23  25
ENDBRANCH  19  23
ENDBRANCH  16  19
ENDBRANCH  15  16
ENDBRANCH   3  14
BRANCH  12  27
HETATM   27  C   UNK N   1      21.863  16.387   6.295  0.00  0.00     0.066 A 
HETATM   28  C   UNK N   1      22.258  16.481   4.978  0.00  0.00     0.096 A 
HETATM   29  C   UNK N   1      21.732  17.636   4.463  0.00  0.00     0.056 A 
HETATM   30  C   UNK N   1      21.008  18.206   5.501  0.00  0.00     0.091 A 
HETATM   31  N   UNK N   1      21.097  17.442   6.614  0.00  0.00    -0.364 N 
HETATM   32  H   UNK N   1      20.682  17.625   7.487  0.00  0.00     0.165 HD
BRANCH  28  33
HETATM   33  O   UNK N   1      22.976  15.593   4.261  0.00  0.00    -0.354 OA
HETATM   34  C   UNK N   1      22.573  15.233   2.998  0.00  0.00     0.210 C 
ENDBRANCH  28  33
ENDBRANCH  12  27
TORSDOF 9
ENDMDL
MODEL 9
REMARK VINA RESULT:      -6.3     11.263     13.536
REMARK  9 active torsions:
REMARK  status: ('A' for Active; 'I' for Inactive)
REMARK    1  A    between atoms: C_3  and  C_4 
REMARK    2  A    between atoms: C_5  and  C_6 
REMARK    3  A    between atoms: C_6  and  O_7 
REMARK    4  A    between atoms: C_6  and  C_8 
REMARK    5  A    between atoms: C_8  and  N_9 
REMARK    6  A    between atoms: C_8  and  C_10 
REMARK    7  A    between atoms: C_10  and  O_11 
REMARK    8  A    between atoms: C_21  and  C_22 
REMARK    9  A    between atoms: C_23  and  O_24 
ROOT
HETATM    1  F   UNK N   1      24.422  27.299  -5.118  0.00  0.00    -0.205 F 
HETATM    2  C   UNK N   1      25.660  27.587  -4.640  0.00  0.00     0.136 A 
HETATM    3  C   UNK N   1      26.699  26.644  -4.737  0.00  0.00     0.070 A 
HETATM    4  C   UNK N   1      27.951  26.967  -4.245  0.00  0.00     0.028 A 
HETATM    5  C   UNK N   1      28.208  28.191  -3.689  0.00  0.00     0.048 A 
HETATM    6  N   UNK N   1      29.564  28.300  -3.311  0.00  0.00    -0.322 N 
HETATM    7  C   UNK N   1      30.160  27.122  -3.624  0.00  0.00     0.257 A 
HETATM    8  O   UNK N   1      31.352  26.916  -3.474  0.00  0.00    -0.267 OA
HETATM    9  C   UNK N   1      27.210  29.164  -3.581  0.00  0.00     0.033 A 
HETATM   10  C   UNK N   1      25.918  28.847  -4.057  0.00  0.00     0.046 A 
HETATM   11  C   UNK N   1      29.191  26.194  -4.220  0.00  0.00     0.048 A 
HETATM   12  C   UNK N   1      29.322  24.943  -4.700  0.00  0.00     0.050 C 
HETATM   13  H   UNK N   1      29.996  29.083  -2.899  0.00  0.00     0.169 HD
ENDROOT
BRANCH   3  14
HETATM   14  C   UNK N   1      26.524  25.387  -5.360  0.00  0.00    -0.060 C 
HETATM   15  C   UNK N   1      26.288  24.341  -5.880  0.00  0.00    -0.067 C 
BRANCH  15  16
HETATM   16  C   UNK N   1      26.154  23.052  -6.512  0.00  0.00     0.221 C 
BRANCH  16  17
HETATM   17  O   UNK N   1      24.916  22.545  -6.118  0.00  0.00    -0.381 OA
HETATM   18  H   UNK N   1      24.035  22.441  -5.724  0.00  0.00     0.211 HD
ENDBRANCH  16  17
BRANCH  16  19
HETATM   19  C   UNK N   1      26.208  23.265  -8.030  0.00  0.00     0.143 C 
BRANCH  19  20
HETATM   20  N   UNK N   1      25.219  24.256  -8.444  0.00  0.00    -0.421 N 
HETATM   21  H   UNK N   1      24.232  24.091  -8.640  0.00  0.00     0.150 HD
HETATM   22  H   UNK N   1      25.550  25.216  -8.550  0.00  0.00     0.150 HD
ENDBRANCH  19  20
BRANCH  19  23
HETATM   23  C   UNK N   1      25.946  21.972  -8.791  0.00  0.00     0.139 C 
HETATM   24  C   UNK N   1      26.499  22.025 -10.205  0.00  0.00     0.041 C 
BRANCH  23  25
HETATM   25  O   UNK N   1      24.572  21.738  -8.847  0.00  0.00    -0.394 OA
HETATM   26  H   UNK N   1      24.131  21.092  -8.273  0.00  0.00     0.210 HD
ENDBRANCH  23  25
ENDBRANCH  19  23
ENDBRANCH  16  19
ENDBRANCH  15  16
ENDBRANCH   3  14
BRANCH  12  27
HETATM   27  C   UNK N   1      30.495  24.054  -4.673  0.00  0.00     0.066 A 
HETATM   28  C   UNK N   1      31.059  23.527  -3.531  0.00  0.00     0.096 A 
HETATM   29  C   UNK N   1      32.171  22.818  -3.901  0.00  0.00     0.056 A 
HETATM   30  C   UNK N   1      32.236  22.928  -5.282  0.00  0.00     0.091 A 
HETATM   31  N   UNK N   1      31.214  23.687  -5.744  0.00  0.00    -0.364 N 
HETATM   32  H   UNK N   1      31.035  23.923  -6.682  0.00  0.00     0.165 HD
BRANCH  28  33
HETATM   33  O   UNK N   1      30.602  23.610  -2.265  0.00  0.00    -0.354 OA
HETATM   34  C   UNK N   1      29.495  22.894  -1.879  0.00  0.00     0.210 C 
ENDBRANCH  28  33
ENDBRANCH  12  27
TORSDOF 9
ENDMDL
