MODEL 1
REMARK VINA RESULT:      -7.3      0.000      0.000
REMARK  7 active torsions:
REMARK  status: ('A' for Active; 'I' for Inactive)
REMARK    1  A    between atoms: C_10  and  N_2 
REMARK    2  A    between atoms: C_6  and  C_7 
REMARK       I    between atoms: C_7  and  N_9 
REMARK    3  A    between atoms: C_10  and  C_11 
REMARK    4  A    between atoms: C_10  and  C_13 
REMARK    5  A    between atoms: C_11  and  O_12 
REMARK    6  A    between atoms: C_13  and  C_14 
REMARK    7  A    between atoms: C_14  and  C_15 
ROOT
HETATM    1  C   UNK N   1      26.767  24.396  -5.735  0.00  0.00     0.114 C 
ENDROOT
BRANCH   1   2
HETATM    2  N   UNK N   1      27.525  24.049  -4.523  0.00  0.00    -0.344 N 
HETATM    3  C   UNK N   1      28.818  23.686  -4.464  0.00  0.00     0.127 A 
HETATM    4  C   UNK N   1      29.122  23.483  -3.139  0.00  0.00     0.117 A 
HETATM    5  N   UNK N   1      28.033  23.712  -2.381  0.00  0.00    -0.347 N 
HETATM    6  C   UNK N   1      27.065  24.064  -3.253  0.00  0.00     0.183 A 
ATOM      7  HN  UNK N   1      27.957  23.636  -1.367  1.00  0.00     0.167 HD
BRANCH   4   8
HETATM    8  C   UNK N   1      30.440  23.099  -2.618  0.00  0.00     0.267 C 
HETATM    9  O   UNK N   1      30.605  22.953  -1.417  0.00  0.00    -0.266 OA
HETATM   10  N   UNK N   1      31.477  22.925  -3.461  0.00  0.00    -0.365 N 
HETATM   11  H   UNK N   1      31.374  23.049  -4.432  0.00  0.00     0.159 HD
HETATM   12  H   UNK N   1      32.354  22.667  -3.098  0.00  0.00     0.159 HD
ENDBRANCH   4   8
ENDBRANCH   1   2
BRANCH   1  13
HETATM   13  C   UNK N   1      26.524  23.148  -6.592  0.00  0.00     0.189 C 
BRANCH  13  14
HETATM   14  O   UNK N   1      25.201  22.716  -6.492  0.00  0.00    -0.399 OA
HETATM   15  H   UNK N   1      24.999  21.865  -6.071  0.00  0.00     0.209 HD
ENDBRANCH  13  14
ENDBRANCH   1  13
BRANCH   1  16
HETATM   16  C   UNK N   1      25.414  25.013  -5.370  0.00  0.00     0.032 C 
BRANCH  16  17
HETATM   17  C   UNK N   1      25.199  26.365  -6.044  0.00  0.00     0.041 C 
BRANCH  17  18
HETATM   18  C   UNK N   1      25.991  27.565  -5.564  0.00  0.00    -0.047 A 
HETATM   19  C   UNK N   1      25.569  28.114  -4.347  0.00  0.00     0.008 A 
HETATM   20  C   UNK N   1      26.192  29.236  -3.803  0.00  0.00     0.001 A 
HETATM   21  C   UNK N   1      27.252  29.841  -4.472  0.00  0.00     0.012 A 
HETATM   22  C   UNK N   1      27.702  29.323  -5.685  0.00  0.00    -0.025 A 
HETATM   23  C   UNK N   1      27.082  28.175  -6.249  0.00  0.00    -0.020 A 
HETATM   24  C   UNK N   1      28.765  29.947  -6.344  0.00  0.00     0.012 A 
HETATM   25  C   UNK N   1      27.568  27.690  -7.472  0.00  0.00     0.013 A 
HETATM   26  C   UNK N   1      28.634  28.315  -8.122  0.00  0.00     0.001 A 
HETATM   27  C   UNK N   1      29.230  29.445  -7.561  0.00  0.00     0.001 A 
ENDBRANCH  17  18
ENDBRANCH  16  17
ENDBRANCH   1  16
TORSDOF 7
ENDMDL
MODEL 2
REMARK VINA RESULT:      -6.9     19.851     24.692
REMARK  7 active torsions:
REMARK  status: ('A' for Active; 'I' for Inactive)
REMARK    1  A    between atoms: C_10  and  N_2 
REMARK    2  A    between atoms: C_6  and  C_7 
REMARK       I    between atoms: C_7  and  N_9 
REMARK    3  A    between atoms: C_10  and  C_11 
REMARK    4  A    between atoms: C_10  and  C_13 
REMARK    5  A    between atoms: C_11  and  O_12 
REMARK    6  A    between atoms: C_13  and  C_14 
REMARK    7  A    between atoms: C_14  and  C_15 
ROOT
HETATM    1  C   UNK N   1      35.810  13.371  11.884  0.00  0.00     0.114 C 
ENDROOT
BRANCH   1   2
HETATM    2  N   UNK N   1      35.431  14.651  11.265  0.00  0.00    -0.344 N 
HETATM    3  C   UNK N   1      34.726  14.814  10.132  0.00  0.00     0.127 A 
HETATM    4  C   UNK N   1      34.577  16.166   9.938  0.00  0.00     0.117 A 
HETATM    5  N   UNK N   1      35.182  16.839  10.935  0.00  0.00    -0.347 N 
HETATM    6  C   UNK N   1      35.696  15.886  11.742  0.00  0.00     0.183 A 
ATOM      7  HN  UNK N   1      35.240  17.850  11.055  1.00  0.00     0.167 HD
BRANCH   4   8
HETATM    8  C   UNK N   1      33.846  16.791   8.829  0.00  0.00     0.267 C 
HETATM    9  O   UNK N   1      34.439  17.123   7.814  0.00  0.00    -0.266 OA
HETATM   10  N   UNK N   1      32.521  17.017   8.933  0.00  0.00    -0.365 N 
HETATM   11  H   UNK N   1      32.022  16.771   9.744  0.00  0.00     0.159 HD
HETATM   12  H   UNK N   1      32.044  17.436   8.181  0.00  0.00     0.159 HD
ENDBRANCH   4   8
ENDBRANCH   1   2
BRANCH   1  13
HETATM   13  C   UNK N   1      36.938  12.704  11.089  0.00  0.00     0.189 C 
BRANCH  13  14
HETATM   14  O   UNK N   1      38.186  13.196  11.473  0.00  0.00    -0.399 OA
HETATM   15  H   UNK N   1      38.935  13.153  10.858  0.00  0.00     0.209 HD
ENDBRANCH  13  14
ENDBRANCH   1  13
BRANCH   1  16
HETATM   16  C   UNK N   1      36.283  13.586  13.325  0.00  0.00     0.032 C 
BRANCH  16  17
HETATM   17  C   UNK N   1      35.157  13.381  14.335  0.00  0.00     0.041 C 
BRANCH  17  18
HETATM   18  C   UNK N   1      35.216  12.196  15.278  0.00  0.00    -0.047 A 
HETATM   19  C   UNK N   1      35.229  10.939  14.661  0.00  0.00     0.008 A 
HETATM   20  C   UNK N   1      35.256   9.764  15.410  0.00  0.00     0.001 A 
HETATM   21  C   UNK N   1      35.263   9.821  16.801  0.00  0.00     0.012 A 
HETATM   22  C   UNK N   1      35.251  11.054  17.452  0.00  0.00    -0.025 A 
HETATM   23  C   UNK N   1      35.232  12.261  16.702  0.00  0.00    -0.020 A 
HETATM   24  C   UNK N   1      35.253  11.091  18.849  0.00  0.00     0.012 A 
HETATM   25  C   UNK N   1      35.221  13.478  17.399  0.00  0.00     0.013 A 
HETATM   26  C   UNK N   1      35.229  13.507  18.795  0.00  0.00     0.001 A 
HETATM   27  C   UNK N   1      35.242  12.315  19.520  0.00  0.00     0.001 A 
ENDBRANCH  17  18
ENDBRANCH  16  17
ENDBRANCH   1  16
TORSDOF 7
ENDMDL
MODEL 3
REMARK VINA RESULT:      -6.8     14.184     17.406
REMARK  7 active torsions:
REMARK  status: ('A' for Active; 'I' for Inactive)
REMARK    1  A    between atoms: C_10  and  N_2 
REMARK    2  A    between atoms: C_6  and  C_7 
REMARK       I    between atoms: C_7  and  N_9 
REMARK    3  A    between atoms: C_10  and  C_11 
REMARK    4  A    between atoms: C_10  and  C_13 
REMARK    5  A    between atoms: C_11  and  O_12 
REMARK    6  A    between atoms: C_13  and  C_14 
REMARK    7  A    between atoms: C_14  and  C_15 
ROOT
HETATM    1  C   UNK N   1      33.903  17.135   9.140  0.00  0.00     0.114 C 
ENDROOT
BRANCH   1   2
HETATM    2  N   UNK N   1      34.985  16.380   9.791  0.00  0.00    -0.344 N 
HETATM    3  C   UNK N   1      35.654  15.334   9.275  0.00  0.00     0.127 A 
HETATM    4  C   UNK N   1      36.594  14.956  10.204  0.00  0.00     0.117 A 
HETATM    5  N   UNK N   1      36.512  15.753  11.286  0.00  0.00    -0.347 N 
HETATM    6  C   UNK N   1      35.520  16.624  11.007  0.00  0.00     0.183 A 
ATOM      7  HN  UNK N   1      37.078  15.707  12.134  1.00  0.00     0.167 HD
BRANCH   4   8
HETATM    8  C   UNK N   1      37.563  13.866  10.038  0.00  0.00     0.267 C 
HETATM    9  O   UNK N   1      37.833  13.451   8.921  0.00  0.00    -0.266 OA
HETATM   10  N   UNK N   1      38.144  13.306  11.117  0.00  0.00    -0.365 N 
HETATM   11  H   UNK N   1      37.935  13.613  12.028  0.00  0.00     0.159 HD
HETATM   12  H   UNK N   1      38.793  12.577  10.991  0.00  0.00     0.159 HD
ENDBRANCH   4   8
ENDBRANCH   1   2
BRANCH   1  13
HETATM   13  C   UNK N   1      34.449  17.944   7.958  0.00  0.00     0.189 C 
BRANCH  13  14
HETATM   14  O   UNK N   1      35.091  19.104   8.393  0.00  0.00    -0.399 OA
HETATM   15  H   UNK N   1      34.705  19.973   8.201  0.00  0.00     0.209 HD
ENDBRANCH  13  14
ENDBRANCH   1  13
BRANCH   1  16
HETATM   16  C   UNK N   1      32.814  16.189   8.629  0.00  0.00     0.032 C 
BRANCH  16  17
HETATM   17  C   UNK N   1      32.065  16.768   7.432  0.00  0.00     0.041 C 
BRANCH  17  18
HETATM   18  C   UNK N   1      30.725  17.440   7.651  0.00  0.00    -0.047 A 
HETATM   19  C   UNK N   1      30.465  17.843   8.967  0.00  0.00     0.008 A 
HETATM   20  C   UNK N   1      29.259  18.450   9.315  0.00  0.00     0.001 A 
HETATM   21  C   UNK N   1      28.279  18.663   8.349  0.00  0.00     0.012 A 
HETATM   22  C   UNK N   1      28.502  18.278   7.028  0.00  0.00    -0.025 A 
HETATM   23  C   UNK N   1      29.729  17.664   6.657  0.00  0.00    -0.020 A 
HETATM   24  C   UNK N   1      27.504  18.495   6.074  0.00  0.00     0.012 A 
HETATM   25  C   UNK N   1      29.908  17.293   5.316  0.00  0.00     0.013 A 
HETATM   26  C   UNK N   1      28.909  17.518   4.367  0.00  0.00     0.001 A 
HETATM   27  C   UNK N   1      27.706  18.116   4.746  0.00  0.00     0.001 A 
ENDBRANCH  17  18
ENDBRANCH  16  17
ENDBRANCH   1  16
TORSDOF 7
ENDMDL
MODEL 4
REMARK VINA RESULT:      -6.8     13.998     17.307
REMARK  7 active torsions:
REMARK  status: ('A' for Active; 'I' for Inactive)
REMARK    1  A    between atoms: C_10  and  N_2 
REMARK    2  A    between atoms: C_6  and  C_7 
REMARK       I    between atoms: C_7  and  N_9 
REMARK    3  A    between atoms: C_10  and  C_11 
REMARK    4  A    between atoms: C_10  and  C_13 
REMARK    5  A    between atoms: C_11  and  O_12 
REMARK    6  A    between atoms: C_13  and  C_14 
REMARK    7  A    between atoms: C_14  and  C_15 
ROOT
HETATM    1  C   UNK N   1      20.139  16.740   4.869  0.00  0.00     0.114 C 
ENDROOT
BRANCH   1   2
HETATM    2  N   UNK N   1      20.239  17.535   3.635  0.00  0.00    -0.344 N 
HETATM    3  C   UNK N   1      20.638  18.815   3.536  0.00  0.00     0.127 A 
HETATM    4  C   UNK N   1      20.609  19.146   2.203  0.00  0.00     0.117 A 
HETATM    5  N   UNK N   1      20.195  18.090   1.478  0.00  0.00    -0.347 N 
HETATM    6  C   UNK N   1      19.978  17.109   2.379  0.00  0.00     0.183 A 
ATOM      7  HN  UNK N   1      20.071  18.042   0.467  1.00  0.00     0.167 HD
BRANCH   4   8
HETATM    8  C   UNK N   1      20.995  20.447   1.642  0.00  0.00     0.267 C 
HETATM    9  O   UNK N   1      21.819  21.142   2.216  0.00  0.00    -0.266 OA
HETATM   10  N   UNK N   1      20.428  20.888   0.501  0.00  0.00    -0.365 N 
HETATM   11  H   UNK N   1      19.753  20.353   0.025  0.00  0.00     0.159 HD
HETATM   12  H   UNK N   1      20.697  21.761   0.136  0.00  0.00     0.159 HD
ENDBRANCH   4   8
ENDBRANCH   1   2
BRANCH   1  13
HETATM   13  C   UNK N   1      19.020  15.700   4.748  0.00  0.00     0.189 C 
BRANCH  13  14
HETATM   14  O   UNK N   1      18.023  15.917   5.700  0.00  0.00    -0.399 OA
HETATM   15  H   UNK N   1      17.888  15.277   6.416  0.00  0.00     0.209 HD
ENDBRANCH  13  14
ENDBRANCH   1  13
BRANCH   1  16
HETATM   16  C   UNK N   1      21.457  16.016   5.155  0.00  0.00     0.032 C 
BRANCH  16  17
HETATM   17  C   UNK N   1      21.968  16.288   6.567  0.00  0.00     0.041 C 
BRANCH  17  18
HETATM   18  C   UNK N   1      21.669  15.289   7.667  0.00  0.00    -0.047 A 
HETATM   19  C   UNK N   1      20.479  15.511   8.371  0.00  0.00     0.008 A 
HETATM   20  C   UNK N   1      20.095  14.683   9.426  0.00  0.00     0.001 A 
HETATM   21  C   UNK N   1      20.902  13.614   9.805  0.00  0.00     0.012 A 
HETATM   22  C   UNK N   1      22.093  13.360   9.127  0.00  0.00    -0.025 A 
HETATM   23  C   UNK N   1      22.494  14.190   8.045  0.00  0.00    -0.020 A 
HETATM   24  C   UNK N   1      22.892  12.285   9.526  0.00  0.00     0.012 A 
HETATM   25  C   UNK N   1      23.701  13.897   7.393  0.00  0.00     0.013 A 
HETATM   26  C   UNK N   1      24.491  12.817   7.794  0.00  0.00     0.001 A 
HETATM   27  C   UNK N   1      24.089  12.014   8.861  0.00  0.00     0.001 A 
ENDBRANCH  17  18
ENDBRANCH  16  17
ENDBRANCH   1  16
TORSDOF 7
ENDMDL
MODEL 5
REMARK VINA RESULT:      -6.8      1.199      2.551
REMARK  7 active torsions:
REMARK  status: ('A' for Active; 'I' for Inactive)
REMARK    1  A    between atoms: C_10  and  N_2 
REMARK    2  A    between atoms: C_6  and  C_7 
REMARK       I    between atoms: C_7  and  N_9 
REMARK    3  A    between atoms: C_10  and  C_11 
REMARK    4  A    between atoms: C_10  and  C_13 
REMARK    5  A    between atoms: C_11  and  O_12 
REMARK    6  A    between atoms: C_13  and  C_14 
REMARK    7  A    between atoms: C_14  and  C_15 
ROOT
HETATM    1  C   UNK N   1      27.585  23.795  -6.540  0.00  0.00     0.114 C 
ENDROOT
BRANCH   1   2
HETATM    2  N   UNK N   1      28.066  23.706  -5.153  0.00  0.00    -0.344 N 
HETATM    3  C   UNK N   1      29.245  23.205  -4.745  0.00  0.00     0.127 A 
HETATM    4  C   UNK N   1      29.295  23.344  -3.379  0.00  0.00     0.117 A 
HETATM    5  N   UNK N   1      28.161  23.923  -2.938  0.00  0.00    -0.347 N 
HETATM    6  C   UNK N   1      27.423  24.140  -4.047  0.00  0.00     0.183 A 
ATOM      7  HN  UNK N   1      27.914  24.146  -1.974  1.00  0.00     0.167 HD
BRANCH   4   8
HETATM    8  C   UNK N   1      30.421  22.950  -2.524  0.00  0.00     0.267 C 
HETATM    9  O   UNK N   1      30.334  23.053  -1.310  0.00  0.00    -0.266 OA
HETATM   10  N   UNK N   1      31.562  22.492  -3.076  0.00  0.00    -0.365 N 
HETATM   11  H   UNK N   1      31.663  22.412  -4.051  0.00  0.00     0.159 HD
HETATM   12  H   UNK N   1      32.309  22.230  -2.491  0.00  0.00     0.159 HD
ENDBRANCH   4   8
ENDBRANCH   1   2
BRANCH   1  13
HETATM   13  C   UNK N   1      27.803  22.466  -7.270  0.00  0.00     0.189 C 
BRANCH  13  14
HETATM   14  O   UNK N   1      28.436  22.662  -8.498  0.00  0.00    -0.399 OA
HETATM   15  H   UNK N   1      29.239  22.163  -8.715  0.00  0.00     0.209 HD
ENDBRANCH  13  14
ENDBRANCH   1  13
BRANCH   1  16
HETATM   16  C   UNK N   1      26.093  24.137  -6.574  0.00  0.00     0.032 C 
BRANCH  16  17
HETATM   17  C   UNK N   1      25.801  25.350  -7.453  0.00  0.00     0.041 C 
BRANCH  17  18
HETATM   18  C   UNK N   1      26.614  26.614  -7.263  0.00  0.00    -0.047 A 
HETATM   19  C   UNK N   1      27.549  26.884  -8.270  0.00  0.00     0.008 A 
HETATM   20  C   UNK N   1      28.381  28.000  -8.207  0.00  0.00     0.001 A 
HETATM   21  C   UNK N   1      28.301  28.873  -7.125  0.00  0.00     0.012 A 
HETATM   22  C   UNK N   1      27.382  28.639  -6.104  0.00  0.00    -0.025 A 
HETATM   23  C   UNK N   1      26.521  27.509  -6.157  0.00  0.00    -0.020 A 
HETATM   24  C   UNK N   1      27.320  29.524  -5.023  0.00  0.00     0.012 A 
HETATM   25  C   UNK N   1      25.613  27.315  -5.106  0.00  0.00     0.013 A 
HETATM   26  C   UNK N   1      25.552  28.206  -4.033  0.00  0.00     0.001 A 
HETATM   27  C   UNK N   1      26.407  29.307  -3.989  0.00  0.00     0.001 A 
ENDBRANCH  17  18
ENDBRANCH  16  17
ENDBRANCH   1  16
TORSDOF 7
ENDMDL
MODEL 6
REMARK VINA RESULT:      -6.7     14.888     18.326
REMARK  7 active torsions:
REMARK  status: ('A' for Active; 'I' for Inactive)
REMARK    1  A    between atoms: C_10  and  N_2 
REMARK    2  A    between atoms: C_6  and  C_7 
REMARK       I    between atoms: C_7  and  N_9 
REMARK    3  A    between atoms: C_10  and  C_11 
REMARK    4  A    between atoms: C_10  and  C_13 
REMARK    5  A    between atoms: C_11  and  O_12 
REMARK    6  A    between atoms: C_13  and  C_14 
REMARK    7  A    between atoms: C_14  and  C_15 
ROOT
HETATM    1  C   UNK N   1      35.260  15.706   8.929  0.00  0.00     0.114 C 
ENDROOT
BRANCH   1   2
HETATM    2  N   UNK N   1      35.849  15.090  10.129  0.00  0.00    -0.344 N 
HETATM    3  C   UNK N   1      35.392  15.194  11.388  0.00  0.00     0.127 A 
HETATM    4  C   UNK N   1      36.222  14.442  12.184  0.00  0.00     0.117 A 
HETATM    5  N   UNK N   1      37.186  13.878  11.433  0.00  0.00    -0.347 N 
HETATM    6  C   UNK N   1      36.934  14.287  10.172  0.00  0.00     0.183 A 
ATOM      7  HN  UNK N   1      37.945  13.273  11.749  1.00  0.00     0.167 HD
BRANCH   4   8
HETATM    8  C   UNK N   1      36.071  14.254  13.633  0.00  0.00     0.267 C 
HETATM    9  O   UNK N   1      35.130  13.612  14.073  0.00  0.00    -0.266 OA
HETATM   10  N   UNK N   1      36.960  14.805  14.483  0.00  0.00    -0.365 N 
HETATM   11  H   UNK N   1      37.720  15.338  14.155  0.00  0.00     0.159 HD
HETATM   12  H   UNK N   1      36.847  14.671  15.451  0.00  0.00     0.159 HD
ENDBRANCH   4   8
ENDBRANCH   1   2
BRANCH   1  13
HETATM   13  C   UNK N   1      34.407  14.686   8.167  0.00  0.00     0.189 C 
BRANCH  13  14
HETATM   14  O   UNK N   1      33.250  14.364   8.877  0.00  0.00    -0.399 OA
HETATM   15  H   UNK N   1      33.267  14.339   9.846  0.00  0.00     0.209 HD
ENDBRANCH  13  14
ENDBRANCH   1  13
BRANCH   1  16
HETATM   16  C   UNK N   1      34.380  16.899   9.309  0.00  0.00     0.032 C 
BRANCH  16  17
HETATM   17  C   UNK N   1      33.993  17.738   8.094  0.00  0.00     0.041 C 
BRANCH  17  18
HETATM   18  C   UNK N   1      32.610  17.580   7.495  0.00  0.00    -0.047 A 
HETATM   19  C   UNK N   1      31.553  17.612   8.413  0.00  0.00     0.008 A 
HETATM   20  C   UNK N   1      30.230  17.452   8.001  0.00  0.00     0.001 A 
HETATM   21  C   UNK N   1      29.936  17.249   6.656  0.00  0.00     0.012 A 
HETATM   22  C   UNK N   1      30.962  17.212   5.712  0.00  0.00    -0.025 A 
HETATM   23  C   UNK N   1      32.314  17.381   6.115  0.00  0.00    -0.020 A 
HETATM   24  C   UNK N   1      30.647  17.001   4.367  0.00  0.00     0.012 A 
HETATM   25  C   UNK N   1      33.312  17.335   5.131  0.00  0.00     0.013 A 
HETATM   26  C   UNK N   1      32.990  17.130   3.788  0.00  0.00     0.001 A 
HETATM   27  C   UNK N   1      31.659  16.960   3.406  0.00  0.00     0.001 A 
ENDBRANCH  17  18
ENDBRANCH  16  17
ENDBRANCH   1  16
TORSDOF 7
ENDMDL
MODEL 7
REMARK VINA RESULT:      -6.6     20.889     25.580
REMARK  7 active torsions:
REMARK  status: ('A' for Active; 'I' for Inactive)
REMARK    1  A    between atoms: C_10  and  N_2 
REMARK    2  A    between atoms: C_6  and  C_7 
REMARK       I    between atoms: C_7  and  N_9 
REMARK    3  A    between atoms: C_10  and  C_11 
REMARK    4  A    between atoms: C_10  and  C_13 
REMARK    5  A    between atoms: C_11  and  O_12 
REMARK    6  A    between atoms: C_13  and  C_14 
REMARK    7  A    between atoms: C_14  and  C_15 
ROOT
HETATM    1  C   UNK N   1      34.935  12.495  12.624  0.00  0.00     0.114 C 
ENDROOT
BRANCH   1   2
HETATM    2  N   UNK N   1      35.380  13.674  11.864  0.00  0.00    -0.344 N 
HETATM    3  C   UNK N   1      34.600  14.652  11.375  0.00  0.00     0.127 A 
HETATM    4  C   UNK N   1      35.428  15.564  10.764  0.00  0.00     0.117 A 
HETATM    5  N   UNK N   1      36.707  15.159  10.868  0.00  0.00    -0.347 N 
HETATM    6  C   UNK N   1      36.654  13.997  11.553  0.00  0.00     0.183 A 
ATOM      7  HN  UNK N   1      37.538  15.629  10.506  1.00  0.00     0.167 HD
BRANCH   4   8
HETATM    8  C   UNK N   1      34.992  16.808  10.117  0.00  0.00     0.267 C 
HETATM    9  O   UNK N   1      35.687  17.810  10.186  0.00  0.00    -0.266 OA
HETATM   10  N   UNK N   1      33.816  16.854   9.460  0.00  0.00    -0.365 N 
HETATM   11  H   UNK N   1      33.232  16.064   9.400  0.00  0.00     0.159 HD
HETATM   12  H   UNK N   1      33.538  17.694   9.030  0.00  0.00     0.159 HD
ENDBRANCH   4   8
ENDBRANCH   1   2
BRANCH   1  13
HETATM   13  C   UNK N   1      35.284  11.207  11.868  0.00  0.00     0.189 C 
BRANCH  13  14
HETATM   14  O   UNK N   1      34.371  10.959  10.844  0.00  0.00    -0.399 OA
HETATM   15  H   UNK N   1      34.466  10.169  10.290  0.00  0.00     0.209 HD
ENDBRANCH  13  14
ENDBRANCH   1  13
BRANCH   1  16
HETATM   16  C   UNK N   1      35.602  12.454  14.001  0.00  0.00     0.032 C 
BRANCH  16  17
HETATM   17  C   UNK N   1      34.727  11.762  15.043  0.00  0.00     0.041 C 
BRANCH  17  18
HETATM   18  C   UNK N   1      34.939  12.072  16.511  0.00  0.00    -0.047 A 
HETATM   19  C   UNK N   1      35.025  13.433  16.830  0.00  0.00     0.008 A 
HETATM   20  C   UNK N   1      35.246  13.858  18.140  0.00  0.00     0.001 A 
HETATM   21  C   UNK N   1      35.391  12.926  19.162  0.00  0.00     0.012 A 
HETATM   22  C   UNK N   1      35.310  11.562  18.885  0.00  0.00    -0.025 A 
HETATM   23  C   UNK N   1      35.078  11.113  17.556  0.00  0.00    -0.020 A 
HETATM   24  C   UNK N   1      35.464  10.641  19.925  0.00  0.00     0.012 A 
HETATM   25  C   UNK N   1      35.004   9.732  17.324  0.00  0.00     0.013 A 
HETATM   26  C   UNK N   1      35.153   8.818  18.369  0.00  0.00     0.001 A 
HETATM   27  C   UNK N   1      35.386   9.271  19.668  0.00  0.00     0.001 A 
ENDBRANCH  17  18
ENDBRANCH  16  17
ENDBRANCH   1  16
TORSDOF 7
ENDMDL
MODEL 8
REMARK VINA RESULT:      -6.6     10.979     13.783
REMARK  7 active torsions:
REMARK  status: ('A' for Active; 'I' for Inactive)
REMARK    1  A    between atoms: C_10  and  N_2 
REMARK    2  A    between atoms: C_6  and  C_7 
REMARK       I    between atoms: C_7  and  N_9 
REMARK    3  A    between atoms: C_10  and  C_11 
REMARK    4  A    between atoms: C_10  and  C_13 
REMARK    5  A    between atoms: C_11  and  O_12 
REMARK    6  A    between atoms: C_13  and  C_14 
REMARK    7  A    between atoms: C_14  and  C_15 
ROOT
HETATM    1  C   UNK N   1      22.309  18.469   4.991  0.00  0.00     0.114 C 
ENDROOT
BRANCH   1   2
HETATM    2  N   UNK N   1      21.496  18.917   3.849  0.00  0.00    -0.344 N 
HETATM    3  C   UNK N   1      21.780  19.931   3.013  0.00  0.00     0.127 A 
HETATM    4  C   UNK N   1      20.773  19.980   2.080  0.00  0.00     0.117 A 
HETATM    5  N   UNK N   1      19.871  19.012   2.330  0.00  0.00    -0.347 N 
HETATM    6  C   UNK N   1      20.339  18.368   3.419  0.00  0.00     0.183 A 
ATOM      7  HN  UNK N   1      19.017  18.811   1.809  1.00  0.00     0.167 HD
BRANCH   4   8
HETATM    8  C   UNK N   1      20.698  20.926   0.959  0.00  0.00     0.267 C 
HETATM    9  O   UNK N   1      21.418  20.779  -0.017  0.00  0.00    -0.266 OA
HETATM   10  N   UNK N   1      19.848  21.971   1.011  0.00  0.00    -0.365 N 
HETATM   11  H   UNK N   1      19.266  22.120   1.790  0.00  0.00     0.159 HD
HETATM   12  H   UNK N   1      19.808  22.596   0.252  0.00  0.00     0.159 HD
ENDBRANCH   4   8
ENDBRANCH   1   2
BRANCH   1  13
HETATM   13  C   UNK N   1      21.416  17.860   6.078  0.00  0.00     0.189 C 
BRANCH  13  14
HETATM   14  O   UNK N   1      20.991  18.831   6.985  0.00  0.00    -0.399 OA
HETATM   15  H   UNK N   1      21.215  18.748   7.925  0.00  0.00     0.209 HD
ENDBRANCH  13  14
ENDBRANCH   1  13
BRANCH   1  16
HETATM   16  C   UNK N   1      23.332  17.419   4.549  0.00  0.00     0.032 C 
BRANCH  16  17
HETATM   17  C   UNK N   1      24.525  18.046   3.833  0.00  0.00     0.041 C 
BRANCH  17  18
HETATM   18  C   UNK N   1      25.606  18.724   4.650  0.00  0.00    -0.047 A 
HETATM   19  C   UNK N   1      25.569  20.124   4.648  0.00  0.00     0.008 A 
HETATM   20  C   UNK N   1      26.520  20.876   5.337  0.00  0.00     0.001 A 
HETATM   21  C   UNK N   1      27.538  20.239   6.042  0.00  0.00     0.012 A 
HETATM   22  C   UNK N   1      27.607  18.847   6.069  0.00  0.00    -0.025 A 
HETATM   23  C   UNK N   1      26.641  18.067   5.378  0.00  0.00    -0.020 A 
HETATM   24  C   UNK N   1      28.639  18.226   6.778  0.00  0.00     0.012 A 
HETATM   25  C   UNK N   1      26.750  16.670   5.433  0.00  0.00     0.013 A 
HETATM   26  C   UNK N   1      27.781  16.057   6.148  0.00  0.00     0.001 A 
HETATM   27  C   UNK N   1      28.727  16.833   6.817  0.00  0.00     0.001 A 
ENDBRANCH  17  18
ENDBRANCH  16  17
ENDBRANCH   1  16
TORSDOF 7
ENDMDL
MODEL 9
REMARK VINA RESULT:      -6.5     19.920     24.781
REMARK  7 active torsions:
REMARK  status: ('A' for Active; 'I' for Inactive)
REMARK    1  A    between atoms: C_10  and  N_2 
REMARK    2  A    between atoms: C_6  and  C_7 
REMARK       I    between atoms: C_7  and  N_9 
REMARK    3  A    between atoms: C_10  and  C_11 
REMARK    4  A    between atoms: C_10  and  C_13 
REMARK    5  A    between atoms: C_11  and  O_12 
REMARK    6  A    between atoms: C_13  and  C_14 
REMARK    7  A    between atoms: C_14  and  C_15 
ROOT
HETATM    1  C   UNK N   1      35.605  13.640  11.842  0.00  0.00     0.114 C 
ENDROOT
BRANCH   1   2
HETATM    2  N   UNK N   1      35.334  14.930  11.188  0.00  0.00    -0.344 N 
HETATM    3  C   UNK N   1      34.671  15.118  10.034  0.00  0.00     0.127 A 
HETATM    4  C   UNK N   1      34.624  16.474   9.811  0.00  0.00     0.117 A 
HETATM    5  N   UNK N   1      35.250  17.123  10.811  0.00  0.00    -0.347 N 
HETATM    6  C   UNK N   1      35.674  16.153  11.648  0.00  0.00     0.183 A 
ATOM      7  HN  UNK N   1      35.378  18.130  10.912  1.00  0.00     0.167 HD
BRANCH   4   8
HETATM    8  C   UNK N   1      33.967  17.125   8.671  0.00  0.00     0.267 C 
HETATM    9  O   UNK N   1      34.618  17.436   7.685  0.00  0.00    -0.266 OA
HETATM   10  N   UNK N   1      32.649  17.401   8.716  0.00  0.00    -0.365 N 
HETATM   11  H   UNK N   1      32.105  17.173   9.503  0.00  0.00     0.159 HD
HETATM   12  H   UNK N   1      32.222  17.837   7.944  0.00  0.00     0.159 HD
ENDBRANCH   4   8
ENDBRANCH   1   2
BRANCH   1  13
HETATM   13  C   UNK N   1      36.739  12.901  11.122  0.00  0.00     0.189 C 
BRANCH  13  14
HETATM   14  O   UNK N   1      37.958  13.559  11.292  0.00  0.00    -0.399 OA
HETATM   15  H   UNK N   1      37.975  14.471  11.621  0.00  0.00     0.209 HD
ENDBRANCH  13  14
ENDBRANCH   1  13
BRANCH   1  16
HETATM   16  C   UNK N   1      36.004  13.847  13.306  0.00  0.00     0.032 C 
BRANCH  16  17
HETATM   17  C   UNK N   1      36.382  12.537  13.990  0.00  0.00     0.041 C 
BRANCH  17  18
HETATM   18  C   UNK N   1      36.004  12.324  15.442  0.00  0.00    -0.047 A 
HETATM   19  C   UNK N   1      35.342  13.397  16.052  0.00  0.00     0.008 A 
HETATM   20  C   UNK N   1      34.960  13.345  17.392  0.00  0.00     0.001 A 
HETATM   21  C   UNK N   1      35.240  12.216  18.156  0.00  0.00     0.012 A 
HETATM   22  C   UNK N   1      35.896  11.128  17.584  0.00  0.00    -0.025 A 
HETATM   23  C   UNK N   1      36.285  11.162  16.217  0.00  0.00    -0.020 A 
HETATM   24  C   UNK N   1      36.173  10.005  18.369  0.00  0.00     0.012 A 
HETATM   25  C   UNK N   1      36.943  10.043  15.685  0.00  0.00     0.013 A 
HETATM   26  C   UNK N   1      37.211   8.923  16.474  0.00  0.00     0.001 A 
HETATM   27  C   UNK N   1      36.830   8.904  17.815  0.00  0.00     0.001 A 
ENDBRANCH  17  18
ENDBRANCH  16  17
ENDBRANCH   1  16
TORSDOF 7
ENDMDL
