MODEL 1
REMARK VINA RESULT:      -6.4      0.000      0.000
REMARK  7 active torsions:
REMARK  status: ('A' for Active; 'I' for Inactive)
REMARK    1  A    between atoms: C_10  and  N_2 
REMARK    2  A    between atoms: C_6  and  C_7 
REMARK       I    between atoms: C_7  and  N_9 
REMARK    3  A    between atoms: C_10  and  C_11 
REMARK    4  A    between atoms: C_10  and  C_13 
REMARK    5  A    between atoms: C_11  and  O_12 
REMARK    6  A    between atoms: C_13  and  C_14 
REMARK    7  A    between atoms: C_14  and  C_15 
ROOT
HETATM    1  C   UNK N   1      33.974  15.231   9.391  0.00  0.00     0.118 C 
ENDROOT
BRANCH   1   2
HETATM    2  N   UNK N   1      34.858  15.080  10.562  0.00  0.00    -0.343 N 
HETATM    3  C   UNK N   1      34.677  14.200  11.564  0.00  0.00     0.127 A 
HETATM    4  C   UNK N   1      35.670  14.423  12.488  0.00  0.00     0.117 A 
HETATM    5  N   UNK N   1      36.459  15.434  12.074  0.00  0.00    -0.347 N 
HETATM    6  C   UNK N   1      35.941  15.821  10.890  0.00  0.00     0.183 A 
ATOM      7  HN  UNK N   1      37.273  15.823  12.551  1.00  0.00     0.167 HD
BRANCH   4   8
HETATM    8  C   UNK N   1      35.853  13.691  13.752  0.00  0.00     0.267 C 
HETATM    9  O   UNK N   1      34.885  13.380  14.426  0.00  0.00    -0.266 OA
HETATM   10  N   UNK N   1      37.092  13.358  14.169  0.00  0.00    -0.365 N 
HETATM   11  H   UNK N   1      37.883  13.722  13.711  0.00  0.00     0.159 HD
HETATM   12  H   UNK N   1      37.205  12.749  14.935  0.00  0.00     0.159 HD
ENDBRANCH   4   8
ENDBRANCH   1   2
BRANCH   1  13
HETATM   13  C   UNK N   1      33.570  13.864   8.790  0.00  0.00     0.137 C 
HETATM   14  C   UNK N   1      33.648  13.898   7.271  0.00  0.00     0.041 C 
BRANCH  13  15
HETATM   15  O   UNK N   1      32.256  13.547   9.145  0.00  0.00    -0.394 OA
HETATM   16  H   UNK N   1      31.518  13.858   8.599  0.00  0.00     0.210 HD
ENDBRANCH  13  15
ENDBRANCH   1  13
BRANCH   1  17
HETATM   17  C   UNK N   1      34.578  16.156   8.320  0.00  0.00     0.033 C 
BRANCH  17  18
HETATM   18  C   UNK N   1      33.862  17.492   8.156  0.00  0.00     0.042 C 
BRANCH  18  19
HETATM   19  C   UNK N   1      33.017  17.426   6.926  0.00  0.00    -0.035 A 
HETATM   20  C   UNK N   1      33.618  17.552   5.667  0.00  0.00     0.009 A 
HETATM   21  C   UNK N   1      32.849  17.452   4.506  0.00  0.00     0.002 A 
HETATM   22  C   UNK N   1      31.477  17.212   4.598  0.00  0.00     0.026 A 
HETATM   23  C   UNK N   1      30.865  17.084   5.848  0.00  0.00     0.056 A 
HETATM   24  C   UNK N   1      31.632  17.198   7.022  0.00  0.00     0.062 A 
HETATM   25 Cl   UNK N   1      29.140  16.761   5.917  0.00  0.00    -0.083 Cl
HETATM   26 Cl   UNK N   1      30.868  17.030   8.604  0.00  0.00    -0.082 Cl
ENDBRANCH  18  19
ENDBRANCH  17  18
ENDBRANCH   1  17
TORSDOF 7
ENDMDL
MODEL 2
REMARK VINA RESULT:      -6.4      4.521      8.613
REMARK  7 active torsions:
REMARK  status: ('A' for Active; 'I' for Inactive)
REMARK    1  A    between atoms: C_10  and  N_2 
REMARK    2  A    between atoms: C_6  and  C_7 
REMARK       I    between atoms: C_7  and  N_9 
REMARK    3  A    between atoms: C_10  and  C_11 
REMARK    4  A    between atoms: C_10  and  C_13 
REMARK    5  A    between atoms: C_11  and  O_12 
REMARK    6  A    between atoms: C_13  and  C_14 
REMARK    7  A    between atoms: C_14  and  C_15 
ROOT
HETATM    1  C   UNK N   1      36.324  14.418  11.732  0.00  0.00     0.118 C 
ENDROOT
BRANCH   1   2
HETATM    2  N   UNK N   1      35.401  15.207  10.895  0.00  0.00    -0.343 N 
HETATM    3  C   UNK N   1      35.747  16.271  10.147  0.00  0.00     0.127 A 
HETATM    4  C   UNK N   1      34.596  16.764   9.579  0.00  0.00     0.117 A 
HETATM    5  N   UNK N   1      33.541  16.022   9.971  0.00  0.00    -0.347 N 
HETATM    6  C   UNK N   1      34.060  15.073  10.779  0.00  0.00     0.183 A 
ATOM      7  HN  UNK N   1      32.562  16.150   9.715  1.00  0.00     0.167 HD
BRANCH   4   8
HETATM    8  C   UNK N   1      34.504  17.932   8.688  0.00  0.00     0.267 C 
HETATM    9  O   UNK N   1      35.304  18.847   8.793  0.00  0.00    -0.266 OA
HETATM   10  N   UNK N   1      33.537  17.994   7.750  0.00  0.00    -0.365 N 
HETATM   11  H   UNK N   1      32.807  17.334   7.747  0.00  0.00     0.159 HD
HETATM   12  H   UNK N   1      33.562  18.702   7.065  0.00  0.00     0.159 HD
ENDBRANCH   4   8
ENDBRANCH   1   2
BRANCH   1  13
HETATM   13  C   UNK N   1      37.054  13.324  10.917  0.00  0.00     0.137 C 
HETATM   14  C   UNK N   1      36.338  11.988  11.044  0.00  0.00     0.041 C 
BRANCH  13  15
HETATM   15  O   UNK N   1      38.359  13.159  11.386  0.00  0.00    -0.394 OA
HETATM   16  H   UNK N   1      38.515  12.743  12.248  0.00  0.00     0.210 HD
ENDBRANCH  13  15
ENDBRANCH   1  13
BRANCH   1  17
HETATM   17  C   UNK N   1      35.627  13.822  12.967  0.00  0.00     0.033 C 
BRANCH  17  18
HETATM   18  C   UNK N   1      36.404  13.970  14.270  0.00  0.00     0.042 C 
BRANCH  18  19
HETATM   19  C   UNK N   1      36.551  12.618  14.888  0.00  0.00    -0.035 A 
HETATM   20  C   UNK N   1      37.518  11.734  14.392  0.00  0.00     0.009 A 
HETATM   21  C   UNK N   1      37.697  10.483  14.984  0.00  0.00     0.002 A 
HETATM   22  C   UNK N   1      36.917  10.113  16.082  0.00  0.00     0.026 A 
HETATM   23  C   UNK N   1      35.950  10.986  16.586  0.00  0.00     0.056 A 
HETATM   24  C   UNK N   1      35.755  12.244  15.985  0.00  0.00     0.062 A 
HETATM   25 Cl   UNK N   1      35.008  10.490  17.983  0.00  0.00    -0.083 Cl
HETATM   26 Cl   UNK N   1      34.540  13.355  16.621  0.00  0.00    -0.082 Cl
ENDBRANCH  18  19
ENDBRANCH  17  18
ENDBRANCH   1  17
TORSDOF 7
ENDMDL
MODEL 3
REMARK VINA RESULT:      -6.2     15.406     18.726
REMARK  7 active torsions:
REMARK  status: ('A' for Active; 'I' for Inactive)
REMARK    1  A    between atoms: C_10  and  N_2 
REMARK    2  A    between atoms: C_6  and  C_7 
REMARK       I    between atoms: C_7  and  N_9 
REMARK    3  A    between atoms: C_10  and  C_11 
REMARK    4  A    between atoms: C_10  and  C_13 
REMARK    5  A    between atoms: C_11  and  O_12 
REMARK    6  A    between atoms: C_13  and  C_14 
REMARK    7  A    between atoms: C_14  and  C_15 
ROOT
HETATM    1  C   UNK N   1      26.550  24.154  -6.065  0.00  0.00     0.118 C 
ENDROOT
BRANCH   1   2
HETATM    2  N   UNK N   1      27.275  24.038  -4.786  0.00  0.00    -0.343 N 
HETATM    3  C   UNK N   1      28.581  23.741  -4.656  0.00  0.00     0.127 A 
HETATM    4  C   UNK N   1      28.851  23.661  -3.310  0.00  0.00     0.117 A 
HETATM    5  N   UNK N   1      27.727  23.899  -2.606  0.00  0.00    -0.347 N 
HETATM    6  C   UNK N   1      26.773  24.128  -3.532  0.00  0.00     0.183 A 
ATOM      7  HN  UNK N   1      27.619  23.906  -1.591  1.00  0.00     0.167 HD
BRANCH   4   8
HETATM    8  C   UNK N   1      30.158  23.348  -2.709  0.00  0.00     0.267 C 
HETATM    9  O   UNK N   1      30.237  23.069  -1.525  0.00  0.00    -0.266 OA
HETATM   10  N   UNK N   1      31.273  23.366  -3.467  0.00  0.00    -0.365 N 
HETATM   11  H   UNK N   1      31.244  23.723  -4.384  0.00  0.00     0.159 HD
HETATM   12  H   UNK N   1      32.121  23.020  -3.102  0.00  0.00     0.159 HD
ENDBRANCH   4   8
ENDBRANCH   1   2
BRANCH   1  13
HETATM   13  C   UNK N   1      26.287  22.773  -6.710  0.00  0.00     0.137 C 
HETATM   14  C   UNK N   1      26.769  22.751  -8.153  0.00  0.00     0.041 C 
BRANCH  13  15
HETATM   15  O   UNK N   1      24.919  22.490  -6.710  0.00  0.00    -0.394 OA
HETATM   16  H   UNK N   1      24.575  21.760  -7.247  0.00  0.00     0.210 HD
ENDBRANCH  13  15
ENDBRANCH   1  13
BRANCH   1  17
HETATM   17  C   UNK N   1      27.253  25.106  -7.048  0.00  0.00     0.033 C 
BRANCH  17  18
HETATM   18  C   UNK N   1      26.428  26.320  -7.459  0.00  0.00     0.042 C 
BRANCH  18  19
HETATM   19  C   UNK N   1      27.037  27.535  -6.840  0.00  0.00    -0.035 A 
HETATM   20  C   UNK N   1      28.110  28.170  -7.478  0.00  0.00     0.009 A 
HETATM   21  C   UNK N   1      28.665  29.331  -6.935  0.00  0.00     0.002 A 
HETATM   22  C   UNK N   1      28.141  29.869  -5.757  0.00  0.00     0.026 A 
HETATM   23  C   UNK N   1      27.071  29.245  -5.111  0.00  0.00     0.056 A 
HETATM   24  C   UNK N   1      26.516  28.067  -5.646  0.00  0.00     0.062 A 
HETATM   25 Cl   UNK N   1      26.429  29.968  -3.645  0.00  0.00    -0.083 Cl
HETATM   26 Cl   UNK N   1      25.159  27.277  -4.840  0.00  0.00    -0.082 Cl
ENDBRANCH  18  19
ENDBRANCH  17  18
ENDBRANCH   1  17
TORSDOF 7
ENDMDL
MODEL 4
REMARK VINA RESULT:      -6.2      4.348      7.670
REMARK  7 active torsions:
REMARK  status: ('A' for Active; 'I' for Inactive)
REMARK    1  A    between atoms: C_10  and  N_2 
REMARK    2  A    between atoms: C_6  and  C_7 
REMARK       I    between atoms: C_7  and  N_9 
REMARK    3  A    between atoms: C_10  and  C_11 
REMARK    4  A    between atoms: C_10  and  C_13 
REMARK    5  A    between atoms: C_11  and  O_12 
REMARK    6  A    between atoms: C_13  and  C_14 
REMARK    7  A    between atoms: C_14  and  C_15 
ROOT
HETATM    1  C   UNK N   1      35.542  13.561   9.818  0.00  0.00     0.118 C 
ENDROOT
BRANCH   1   2
HETATM    2  N   UNK N   1      35.241  15.004   9.853  0.00  0.00    -0.343 N 
HETATM    3  C   UNK N   1      34.994  15.773   8.775  0.00  0.00     0.127 A 
HETATM    4  C   UNK N   1      34.829  17.063   9.222  0.00  0.00     0.117 A 
HETATM    5  N   UNK N   1      34.977  17.103  10.561  0.00  0.00    -0.347 N 
HETATM    6  C   UNK N   1      35.229  15.828  10.926  0.00  0.00     0.183 A 
ATOM      7  HN  UNK N   1      34.913  17.920  11.169  1.00  0.00     0.167 HD
BRANCH   4   8
HETATM    8  C   UNK N   1      34.550  18.238   8.381  0.00  0.00     0.267 C 
HETATM    9  O   UNK N   1      35.248  19.234   8.467  0.00  0.00    -0.266 OA
HETATM   10  N   UNK N   1      33.521  18.217   7.509  0.00  0.00    -0.365 N 
HETATM   11  H   UNK N   1      32.869  17.480   7.530  0.00  0.00     0.159 HD
HETATM   12  H   UNK N   1      33.421  18.943   6.850  0.00  0.00     0.159 HD
ENDBRANCH   4   8
ENDBRANCH   1   2
BRANCH   1  13
HETATM   13  C   UNK N   1      35.116  12.911   8.482  0.00  0.00     0.137 C 
HETATM   14  C   UNK N   1      34.045  11.854   8.712  0.00  0.00     0.041 C 
BRANCH  13  15
HETATM   15  O   UNK N   1      36.209  12.288   7.874  0.00  0.00    -0.394 OA
HETATM   16  H   UNK N   1      36.232  11.323   7.789  0.00  0.00     0.210 HD
ENDBRANCH  13  15
ENDBRANCH   1  13
BRANCH   1  17
HETATM   17  C   UNK N   1      34.942  12.812  11.021  0.00  0.00     0.033 C 
BRANCH  17  18
HETATM   18  C   UNK N   1      35.954  12.409  12.089  0.00  0.00     0.042 C 
BRANCH  18  19
HETATM   19  C   UNK N   1      35.212  12.103  13.349  0.00  0.00    -0.035 A 
HETATM   20  C   UNK N   1      34.324  11.021  13.382  0.00  0.00     0.009 A 
HETATM   21  C   UNK N   1      33.653  10.696  14.562  0.00  0.00     0.002 A 
HETATM   22  C   UNK N   1      33.877  11.445  15.720  0.00  0.00     0.026 A 
HETATM   23  C   UNK N   1      34.761  12.527  15.700  0.00  0.00     0.056 A 
HETATM   24  C   UNK N   1      35.429  12.868  14.509  0.00  0.00     0.062 A 
HETATM   25 Cl   UNK N   1      35.030  13.427  17.184  0.00  0.00    -0.083 Cl
HETATM   26 Cl   UNK N   1      36.552  14.229  14.479  0.00  0.00    -0.082 Cl
ENDBRANCH  18  19
ENDBRANCH  17  18
ENDBRANCH   1  17
TORSDOF 7
ENDMDL
MODEL 5
REMARK VINA RESULT:      -6.1      4.211      6.272
REMARK  7 active torsions:
REMARK  status: ('A' for Active; 'I' for Inactive)
REMARK    1  A    between atoms: C_10  and  N_2 
REMARK    2  A    between atoms: C_6  and  C_7 
REMARK       I    between atoms: C_7  and  N_9 
REMARK    3  A    between atoms: C_10  and  C_11 
REMARK    4  A    between atoms: C_10  and  C_13 
REMARK    5  A    between atoms: C_11  and  O_12 
REMARK    6  A    between atoms: C_13  and  C_14 
REMARK    7  A    between atoms: C_14  and  C_15 
ROOT
HETATM    1  C   UNK N   1      30.701  16.385   5.339  0.00  0.00     0.118 C 
ENDROOT
BRANCH   1   2
HETATM    2  N   UNK N   1      32.029  16.731   5.877  0.00  0.00    -0.343 N 
HETATM    3  C   UNK N   1      32.266  17.220   7.109  0.00  0.00     0.127 A 
HETATM    4  C   UNK N   1      33.614  17.475   7.196  0.00  0.00     0.117 A 
HETATM    5  N   UNK N   1      34.214  17.155   6.032  0.00  0.00    -0.347 N 
HETATM    6  C   UNK N   1      33.221  16.701   5.238  0.00  0.00     0.183 A 
ATOM      7  HN  UNK N   1      35.204  17.238   5.800  1.00  0.00     0.167 HD
BRANCH   4   8
HETATM    8  C   UNK N   1      34.314  18.027   8.367  0.00  0.00     0.267 C 
HETATM    9  O   UNK N   1      34.935  19.072   8.274  0.00  0.00    -0.266 OA
HETATM   10  N   UNK N   1      34.269  17.380   9.550  0.00  0.00    -0.365 N 
HETATM   11  H   UNK N   1      33.893  16.472   9.604  0.00  0.00     0.159 HD
HETATM   12  H   UNK N   1      34.614  17.817  10.363  0.00  0.00     0.159 HD
ENDBRANCH   4   8
ENDBRANCH   1   2
BRANCH   1  13
HETATM   13  C   UNK N   1      30.797  15.657   3.978  0.00  0.00     0.137 C 
HETATM   14  C   UNK N   1      29.983  16.384   2.918  0.00  0.00     0.041 C 
BRANCH  13  15
HETATM   15  O   UNK N   1      30.298  14.357   4.085  0.00  0.00    -0.394 OA
HETATM   16  H   UNK N   1      29.500  14.186   4.608  0.00  0.00     0.210 HD
ENDBRANCH  13  15
ENDBRANCH   1  13
BRANCH   1  17
HETATM   17  C   UNK N   1      29.769  17.607   5.255  0.00  0.00     0.033 C 
BRANCH  17  18
HETATM   18  C   UNK N   1      28.482  17.483   6.062  0.00  0.00     0.042 C 
BRANCH  18  19
HETATM   19  C   UNK N   1      27.693  18.739   5.888  0.00  0.00    -0.035 A 
HETATM   20  C   UNK N   1      27.865  19.793   6.795  0.00  0.00     0.009 A 
HETATM   21  C   UNK N   1      27.167  20.990   6.624  0.00  0.00     0.002 A 
HETATM   22  C   UNK N   1      26.302  21.143   5.538  0.00  0.00     0.026 A 
HETATM   23  C   UNK N   1      26.121  20.099   4.627  0.00  0.00     0.056 A 
HETATM   24  C   UNK N   1      26.812  18.885   4.802  0.00  0.00     0.062 A 
HETATM   25 Cl   UNK N   1      25.041  20.342   3.264  0.00  0.00    -0.083 Cl
HETATM   26 Cl   UNK N   1      26.595  17.565   3.651  0.00  0.00    -0.082 Cl
ENDBRANCH  18  19
ENDBRANCH  17  18
ENDBRANCH   1  17
TORSDOF 7
ENDMDL
MODEL 6
REMARK VINA RESULT:      -6.0      2.441      3.645
REMARK  7 active torsions:
REMARK  status: ('A' for Active; 'I' for Inactive)
REMARK    1  A    between atoms: C_10  and  N_2 
REMARK    2  A    between atoms: C_6  and  C_7 
REMARK       I    between atoms: C_7  and  N_9 
REMARK    3  A    between atoms: C_10  and  C_11 
REMARK    4  A    between atoms: C_10  and  C_13 
REMARK    5  A    between atoms: C_11  and  O_12 
REMARK    6  A    between atoms: C_13  and  C_14 
REMARK    7  A    between atoms: C_14  and  C_15 
ROOT
HETATM    1  C   UNK N   1      33.423  16.023   7.029  0.00  0.00     0.118 C 
ENDROOT
BRANCH   1   2
HETATM    2  N   UNK N   1      34.046  16.205   8.353  0.00  0.00    -0.343 N 
HETATM    3  C   UNK N   1      34.311  15.218   9.229  0.00  0.00     0.127 A 
HETATM    4  C   UNK N   1      34.824  15.804  10.362  0.00  0.00     0.117 A 
HETATM    5  N   UNK N   1      34.874  17.141  10.201  0.00  0.00    -0.347 N 
HETATM    6  C   UNK N   1      34.391  17.363   8.960  0.00  0.00     0.183 A 
ATOM      7  HN  UNK N   1      35.204  17.836  10.871  1.00  0.00     0.167 HD
BRANCH   4   8
HETATM    8  C   UNK N   1      35.246  15.098  11.583  0.00  0.00     0.267 C 
HETATM    9  O   UNK N   1      34.511  14.274  12.100  0.00  0.00    -0.266 OA
HETATM   10  N   UNK N   1      36.449  15.359  12.135  0.00  0.00    -0.365 N 
HETATM   11  H   UNK N   1      36.988  16.116  11.811  0.00  0.00     0.159 HD
HETATM   12  H   UNK N   1      36.789  14.789  12.863  0.00  0.00     0.159 HD
ENDBRANCH   4   8
ENDBRANCH   1   2
BRANCH   1  13
HETATM   13  C   UNK N   1      34.442  16.198   5.879  0.00  0.00     0.137 C 
HETATM   14  C   UNK N   1      33.869  15.683   4.567  0.00  0.00     0.041 C 
BRANCH  13  15
HETATM   15  O   UNK N   1      35.608  15.479   6.150  0.00  0.00    -0.394 OA
HETATM   16  H   UNK N   1      36.475  15.878   5.977  0.00  0.00     0.210 HD
ENDBRANCH  13  15
ENDBRANCH   1  13
BRANCH   1  17
HETATM   17  C   UNK N   1      32.196  16.931   6.832  0.00  0.00     0.033 C 
BRANCH  17  18
HETATM   18  C   UNK N   1      30.854  16.209   6.883  0.00  0.00     0.042 C 
BRANCH  18  19
HETATM   19  C   UNK N   1      29.818  17.173   7.361  0.00  0.00    -0.035 A 
HETATM   20  C   UNK N   1      29.638  17.365   8.737  0.00  0.00     0.009 A 
HETATM   21  C   UNK N   1      28.702  18.292   9.201  0.00  0.00     0.002 A 
HETATM   22  C   UNK N   1      27.951  19.040   8.291  0.00  0.00     0.026 A 
HETATM   23  C   UNK N   1      28.122  18.856   6.917  0.00  0.00     0.056 A 
HETATM   24  C   UNK N   1      29.053  17.913   6.442  0.00  0.00     0.062 A 
HETATM   25 Cl   UNK N   1      27.172  19.833   5.808  0.00  0.00    -0.083 Cl
HETATM   26 Cl   UNK N   1      29.279  17.682   4.708  0.00  0.00    -0.082 Cl
ENDBRANCH  18  19
ENDBRANCH  17  18
ENDBRANCH   1  17
TORSDOF 7
ENDMDL
MODEL 7
REMARK VINA RESULT:      -6.0      6.339      9.152
REMARK  7 active torsions:
REMARK  status: ('A' for Active; 'I' for Inactive)
REMARK    1  A    between atoms: C_10  and  N_2 
REMARK    2  A    between atoms: C_6  and  C_7 
REMARK       I    between atoms: C_7  and  N_9 
REMARK    3  A    between atoms: C_10  and  C_11 
REMARK    4  A    between atoms: C_10  and  C_13 
REMARK    5  A    between atoms: C_11  and  O_12 
REMARK    6  A    between atoms: C_13  and  C_14 
REMARK    7  A    between atoms: C_14  and  C_15 
ROOT
HETATM    1  C   UNK N   1      28.215  18.182   7.152  0.00  0.00     0.118 C 
ENDROOT
BRANCH   1   2
HETATM    2  N   UNK N   1      27.510  19.177   6.324  0.00  0.00    -0.343 N 
HETATM    3  C   UNK N   1      26.757  18.897   5.243  0.00  0.00     0.127 A 
HETATM    4  C   UNK N   1      26.336  20.094   4.716  0.00  0.00     0.117 A 
HETATM    5  N   UNK N   1      26.822  21.112   5.453  0.00  0.00    -0.347 N 
HETATM    6  C   UNK N   1      27.540  20.526   6.434  0.00  0.00     0.183 A 
ATOM      7  HN  UNK N   1      26.680  22.112   5.303  1.00  0.00     0.167 HD
BRANCH   4   8
HETATM    8  C   UNK N   1      25.494  20.262   3.520  0.00  0.00     0.267 C 
HETATM    9  O   UNK N   1      25.940  20.813   2.528  0.00  0.00    -0.266 OA
HETATM   10  N   UNK N   1      24.225  19.805   3.516  0.00  0.00    -0.365 N 
HETATM   11  H   UNK N   1      23.810  19.487   4.351  0.00  0.00     0.159 HD
HETATM   12  H   UNK N   1      23.712  19.788   2.676  0.00  0.00     0.159 HD
ENDBRANCH   4   8
ENDBRANCH   1   2
BRANCH   1  13
HETATM   13  C   UNK N   1      28.329  18.631   8.628  0.00  0.00     0.137 C 
HETATM   14  C   UNK N   1      29.729  18.373   9.164  0.00  0.00     0.041 C 
BRANCH  13  15
HETATM   15  O   UNK N   1      27.427  17.920   9.423  0.00  0.00    -0.394 OA
HETATM   16  H   UNK N   1      26.570  18.310   9.652  0.00  0.00     0.210 HD
ENDBRANCH  13  15
ENDBRANCH   1  13
BRANCH   1  17
HETATM   17  C   UNK N   1      29.592  17.812   6.573  0.00  0.00     0.033 C 
BRANCH  17  18
HETATM   18  C   UNK N   1      29.652  16.445   5.900  0.00  0.00     0.042 C 
BRANCH  18  19
HETATM   19  C   UNK N   1      30.890  16.384   5.066  0.00  0.00    -0.035 A 
HETATM   20  C   UNK N   1      30.861  16.873   3.753  0.00  0.00     0.009 A 
HETATM   21  C   UNK N   1      32.019  16.862   2.973  0.00  0.00     0.002 A 
HETATM   22  C   UNK N   1      33.214  16.374   3.505  0.00  0.00     0.026 A 
HETATM   23  C   UNK N   1      33.255  15.883   4.813  0.00  0.00     0.056 A 
HETATM   24  C   UNK N   1      32.088  15.878   5.600  0.00  0.00     0.062 A 
HETATM   25 Cl   UNK N   1      34.784  15.299   5.450  0.00  0.00    -0.083 Cl
HETATM   26 Cl   UNK N   1      32.134  15.268   7.255  0.00  0.00    -0.082 Cl
ENDBRANCH  18  19
ENDBRANCH  17  18
ENDBRANCH   1  17
TORSDOF 7
ENDMDL
MODEL 8
REMARK VINA RESULT:      -5.9      3.097      4.516
REMARK  7 active torsions:
REMARK  status: ('A' for Active; 'I' for Inactive)
REMARK    1  A    between atoms: C_10  and  N_2 
REMARK    2  A    between atoms: C_6  and  C_7 
REMARK       I    between atoms: C_7  and  N_9 
REMARK    3  A    between atoms: C_10  and  C_11 
REMARK    4  A    between atoms: C_10  and  C_13 
REMARK    5  A    between atoms: C_11  and  O_12 
REMARK    6  A    between atoms: C_13  and  C_14 
REMARK    7  A    between atoms: C_14  and  C_15 
ROOT
HETATM    1  C   UNK N   1      31.941  16.098   6.515  0.00  0.00     0.118 C 
ENDROOT
BRANCH   1   2
HETATM    2  N   UNK N   1      32.631  15.884   7.801  0.00  0.00    -0.343 N 
HETATM    3  C   UNK N   1      33.608  16.666   8.299  0.00  0.00     0.127 A 
HETATM    4  C   UNK N   1      34.031  16.092   9.475  0.00  0.00     0.117 A 
HETATM    5  N   UNK N   1      33.333  14.963   9.708  0.00  0.00    -0.347 N 
HETATM    6  C   UNK N   1      32.480  14.856   8.668  0.00  0.00     0.183 A 
ATOM      7  HN  UNK N   1      33.428  14.326  10.499  1.00  0.00     0.167 HD
BRANCH   4   8
HETATM    8  C   UNK N   1      35.094  16.608  10.353  0.00  0.00     0.267 C 
HETATM    9  O   UNK N   1      35.580  17.707  10.147  0.00  0.00    -0.266 OA
HETATM   10  N   UNK N   1      35.533  15.868  11.391  0.00  0.00    -0.365 N 
HETATM   11  H   UNK N   1      35.251  14.929  11.485  0.00  0.00     0.159 HD
HETATM   12  H   UNK N   1      36.138  16.268  12.059  0.00  0.00     0.159 HD
ENDBRANCH   4   8
ENDBRANCH   1   2
BRANCH   1  13
HETATM   13  C   UNK N   1      32.935  16.227   5.338  0.00  0.00     0.137 C 
HETATM   14  C   UNK N   1      32.661  17.490   4.535  0.00  0.00     0.041 C 
BRANCH  13  15
HETATM   15  O   UNK N   1      32.810  15.135   4.475  0.00  0.00    -0.394 OA
HETATM   16  H   UNK N   1      32.918  14.233   4.816  0.00  0.00     0.210 HD
ENDBRANCH  13  15
ENDBRANCH   1  13
BRANCH   1  17
HETATM   17  C   UNK N   1      30.975  17.294   6.565  0.00  0.00     0.033 C 
BRANCH  17  18
HETATM   18  C   UNK N   1      29.497  16.918   6.601  0.00  0.00     0.042 C 
BRANCH  18  19
HETATM   19  C   UNK N   1      28.708  18.053   6.037  0.00  0.00    -0.035 A 
HETATM   20  C   UNK N   1      28.579  18.181   4.648  0.00  0.00     0.009 A 
HETATM   21  C   UNK N   1      27.810  19.212   4.104  0.00  0.00     0.002 A 
HETATM   22  C   UNK N   1      27.157  20.113   4.947  0.00  0.00     0.026 A 
HETATM   23  C   UNK N   1      27.278  19.997   6.334  0.00  0.00     0.056 A 
HETATM   24  C   UNK N   1      28.063  18.968   6.889  0.00  0.00     0.062 A 
HETATM   25 Cl   UNK N   1      26.421  21.139   7.358  0.00  0.00    -0.083 Cl
HETATM   26 Cl   UNK N   1      28.214  18.810   8.640  0.00  0.00    -0.082 Cl
ENDBRANCH  18  19
ENDBRANCH  17  18
ENDBRANCH   1  17
TORSDOF 7
ENDMDL
MODEL 9
REMARK VINA RESULT:      -5.9      5.435      8.782
REMARK  7 active torsions:
REMARK  status: ('A' for Active; 'I' for Inactive)
REMARK    1  A    between atoms: C_10  and  N_2 
REMARK    2  A    between atoms: C_6  and  C_7 
REMARK       I    between atoms: C_7  and  N_9 
REMARK    3  A    between atoms: C_10  and  C_11 
REMARK    4  A    between atoms: C_10  and  C_13 
REMARK    5  A    between atoms: C_11  and  O_12 
REMARK    6  A    between atoms: C_13  and  C_14 
REMARK    7  A    between atoms: C_14  and  C_15 
ROOT
HETATM    1  C   UNK N   1      28.806  17.418   7.609  0.00  0.00     0.118 C 
ENDROOT
BRANCH   1   2
HETATM    2  N   UNK N   1      27.809  17.484   6.524  0.00  0.00    -0.343 N 
HETATM    3  C   UNK N   1      27.597  18.549   5.727  0.00  0.00     0.127 A 
HETATM    4  C   UNK N   1      26.547  18.237   4.898  0.00  0.00     0.117 A 
HETATM    5  N   UNK N   1      26.102  16.995   5.174  0.00  0.00    -0.347 N 
HETATM    6  C   UNK N   1      26.892  16.553   6.176  0.00  0.00     0.183 A 
ATOM      7  HN  UNK N   1      25.334  16.495   4.725  1.00  0.00     0.167 HD
BRANCH   4   8
HETATM    8  C   UNK N   1      25.969  19.116   3.868  0.00  0.00     0.267 C 
HETATM    9  O   UNK N   1      24.905  18.831   3.345  0.00  0.00    -0.266 OA
HETATM   10  N   UNK N   1      26.614  20.242   3.500  0.00  0.00    -0.365 N 
HETATM   11  H   UNK N   1      27.533  20.410   3.809  0.00  0.00     0.159 HD
HETATM   12  H   UNK N   1      26.163  20.899   2.921  0.00  0.00     0.159 HD
ENDBRANCH   4   8
ENDBRANCH   1   2
BRANCH   1  13
HETATM   13  C   UNK N   1      28.546  18.481   8.702  0.00  0.00     0.137 C 
HETATM   14  C   UNK N   1      29.705  18.539   9.685  0.00  0.00     0.041 C 
BRANCH  13  15
HETATM   15  O   UNK N   1      27.389  18.167   9.420  0.00  0.00    -0.394 OA
HETATM   16  H   UNK N   1      27.458  17.833  10.328  0.00  0.00     0.210 HD
ENDBRANCH  13  15
ENDBRANCH   1  13
BRANCH   1  17
HETATM   17  C   UNK N   1      30.249  17.499   7.082  0.00  0.00     0.033 C 
BRANCH  17  18
HETATM   18  C   UNK N   1      31.069  16.228   7.271  0.00  0.00     0.042 C 
BRANCH  18  19
HETATM   19  C   UNK N   1      32.391  16.602   7.856  0.00  0.00    -0.035 A 
HETATM   20  C   UNK N   1      32.909  17.883   7.625  0.00  0.00     0.009 A 
HETATM   21  C   UNK N   1      34.124  18.265   8.198  0.00  0.00     0.002 A 
HETATM   22  C   UNK N   1      34.821  17.371   9.014  0.00  0.00     0.026 A 
HETATM   23  C   UNK N   1      34.315  16.090   9.251  0.00  0.00     0.056 A 
HETATM   24  C   UNK N   1      33.098  15.695   8.665  0.00  0.00     0.062 A 
HETATM   25 Cl   UNK N   1      35.213  15.006  10.301  0.00  0.00    -0.083 Cl
HETATM   26 Cl   UNK N   1      32.448  14.082   8.967  0.00  0.00    -0.082 Cl
ENDBRANCH  18  19
ENDBRANCH  17  18
ENDBRANCH   1  17
TORSDOF 7
ENDMDL
