REMARK  4 active torsions:
REMARK  status: ('A' for Active; 'I' for Inactive)
REMARK    1  A    between atoms: C_10  and  C_11 
REMARK       I    between atoms: C_11  and  N_13 
REMARK    2  A    between atoms: N_13  and  C_14 
REMARK    3  A    between atoms: C_14  and  C_15 
REMARK    4  A    between atoms: C_15  and  S_16 
ROOT
HETATM    1  F   UNK N   1      -5.286  -1.501   0.232  0.00  0.00    -0.206 F 
HETATM    2  C   UNK N   1      -3.949  -1.288   0.189  0.00  0.00     0.117 A 
HETATM    3  C   UNK N   1      -3.454   0.018   0.016  0.00  0.00     0.056 A 
HETATM    4  C   UNK N   1      -3.057  -2.378   0.314  0.00  0.00     0.044 A 
HETATM    5  C   UNK N   1      -1.664  -2.169   0.275  0.00  0.00     0.033 A 
HETATM    6  C   UNK N   1      -1.211  -0.864   0.107  0.00  0.00     0.043 A 
HETATM    7  N   UNK N   1       0.064  -0.450   0.037  0.00  0.00    -0.351 N 
HETATM    8  C   UNK N   1      -2.074   0.188  -0.024  0.00  0.00    -0.004 A 
HETATM    9  C   UNK N   1      -1.329   1.328  -0.197  0.00  0.00     0.049 A 
HETATM   10  C   UNK N   1      -0.003   0.891  -0.151  0.00  0.00     0.102 A 
HETATM   11  H   UNK N   1       0.876  -1.003   0.108  0.00  0.00     0.166 HD
ENDROOT
BRANCH  10  12
HETATM   12  C   UNK N   1       1.166   1.792  -0.321  0.00  0.00     0.268 C 
HETATM   13  O   UNK N   1       0.967   2.953  -0.633  0.00  0.00    -0.266 OA
HETATM   14  N   UNK N   1       2.449   1.382  -0.134  0.00  0.00    -0.355 N 
HETATM   15  H   UNK N   1       3.166   2.034  -0.308  0.00  0.00     0.162 HD
BRANCH  14  16
HETATM   16  C   UNK N   1       2.835   0.063   0.298  0.00  0.00     0.133 C 
BRANCH  16  17
HETATM   17  C   UNK N   1       4.146  -0.339  -0.358  0.00  0.00     0.090 C 
BRANCH  17  18
HETATM   18  S   UNK N   1       5.471   0.837   0.061  0.00  0.00    -0.181 SA
HETATM   19  H   UNK N   1       6.727   0.418   0.374  0.00  0.00     0.101 HD
ENDBRANCH  17  18
ENDBRANCH  16  17
ENDBRANCH  14  16
ENDBRANCH  10  12
TORSDOF 4
