MODEL 1
REMARK VINA RESULT:      -5.8      0.000      0.000
REMARK  4 active torsions:
REMARK  status: ('A' for Active; 'I' for Inactive)
REMARK    1  A    between atoms: C_10  and  C_11 
REMARK       I    between atoms: C_11  and  N_13 
REMARK    2  A    between atoms: N_13  and  C_14 
REMARK    3  A    between atoms: C_14  and  C_15 
REMARK    4  A    between atoms: C_15  and  S_16 
ROOT
HETATM    1  F   UNK N   1      34.594  16.388   5.437  0.00  0.00    -0.206 F 
HETATM    2  C   UNK N   1      33.711  16.847   6.356  0.00  0.00     0.117 A 
HETATM    3  C   UNK N   1      32.340  16.562   6.211  0.00  0.00     0.056 A 
HETATM    4  C   UNK N   1      34.168  17.614   7.452  0.00  0.00     0.044 A 
HETATM    5  C   UNK N   1      33.260  18.095   8.416  0.00  0.00     0.033 A 
HETATM    6  C   UNK N   1      31.913  17.789   8.243  0.00  0.00     0.043 A 
HETATM    7  N   UNK N   1      30.891  18.151   9.035  0.00  0.00    -0.351 N 
HETATM    8  C   UNK N   1      31.470  17.056   7.178  0.00  0.00    -0.004 A 
HETATM    9  C   UNK N   1      30.105  16.948   7.276  0.00  0.00     0.049 A 
HETATM   10  C   UNK N   1      29.782  17.640   8.446  0.00  0.00     0.102 A 
HETATM   11  H   UNK N   1      30.937  18.676   9.867  0.00  0.00     0.166 HD
ENDROOT
BRANCH  10  12
HETATM   12  C   UNK N   1      28.392  17.809   8.943  0.00  0.00     0.268 C 
HETATM   13  O   UNK N   1      28.000  17.079   9.837  0.00  0.00    -0.266 OA
HETATM   14  N   UNK N   1      27.540  18.749   8.453  0.00  0.00    -0.355 N 
HETATM   15  H   UNK N   1      26.623  18.765   8.812  0.00  0.00     0.162 HD
BRANCH  14  16
HETATM   16  C   UNK N   1      27.881  19.721   7.447  0.00  0.00     0.133 C 
BRANCH  16  17
HETATM   17  C   UNK N   1      27.352  19.279   6.092  0.00  0.00     0.090 C 
BRANCH  17  18
HETATM   18  S   UNK N   1      26.420  20.621   5.288  0.00  0.00    -0.181 SA
HETATM   19  H   UNK N   1      25.175  20.977   5.704  0.00  0.00     0.101 HD
ENDBRANCH  17  18
ENDBRANCH  16  17
ENDBRANCH  14  16
ENDBRANCH  10  12
TORSDOF 4
ENDMDL
MODEL 2
REMARK VINA RESULT:      -5.7      3.353      5.595
REMARK  4 active torsions:
REMARK  status: ('A' for Active; 'I' for Inactive)
REMARK    1  A    between atoms: C_10  and  C_11 
REMARK       I    between atoms: C_11  and  N_13 
REMARK    2  A    between atoms: N_13  and  C_14 
REMARK    3  A    between atoms: C_14  and  C_15 
REMARK    4  A    between atoms: C_15  and  S_16 
ROOT
HETATM    1  F   UNK N   1      26.784  20.564   2.884  0.00  0.00    -0.206 F 
HETATM    2  C   UNK N   1      26.946  20.357   4.213  0.00  0.00     0.117 A 
HETATM    3  C   UNK N   1      27.637  19.217   4.664  0.00  0.00     0.056 A 
HETATM    4  C   UNK N   1      26.417  21.284   5.140  0.00  0.00     0.044 A 
HETATM    5  C   UNK N   1      26.582  21.082   6.525  0.00  0.00     0.033 A 
HETATM    6  C   UNK N   1      27.274  19.946   6.934  0.00  0.00     0.043 A 
HETATM    7  N   UNK N   1      27.536  19.565   8.194  0.00  0.00    -0.351 N 
HETATM    8  C   UNK N   1      27.777  19.046   6.037  0.00  0.00    -0.004 A 
HETATM    9  C   UNK N   1      28.379  18.034   6.744  0.00  0.00     0.049 A 
HETATM   10  C   UNK N   1      28.210  18.394   8.084  0.00  0.00     0.102 A 
HETATM   11  H   UNK N   1      27.290  20.037   9.024  0.00  0.00     0.166 HD
ENDROOT
BRANCH  10  12
HETATM   12  C   UNK N   1      28.687  17.569   9.223  0.00  0.00     0.268 C 
HETATM   13  O   UNK N   1      27.880  16.880   9.822  0.00  0.00    -0.266 OA
HETATM   14  N   UNK N   1      29.987  17.540   9.622  0.00  0.00    -0.355 N 
HETATM   15  H   UNK N   1      30.209  16.997  10.413  0.00  0.00     0.162 HD
BRANCH  14  16
HETATM   16  C   UNK N   1      31.061  18.247   8.973  0.00  0.00     0.133 C 
BRANCH  16  17
HETATM   17  C   UNK N   1      31.918  17.278   8.175  0.00  0.00     0.090 C 
BRANCH  17  18
HETATM   18  S   UNK N   1      33.563  17.984   7.844  0.00  0.00    -0.181 SA
HETATM   19  H   UNK N   1      34.133  18.892   8.681  0.00  0.00     0.101 HD
ENDBRANCH  17  18
ENDBRANCH  16  17
ENDBRANCH  14  16
ENDBRANCH  10  12
TORSDOF 4
ENDMDL
MODEL 3
REMARK VINA RESULT:      -5.5      9.003     10.375
REMARK  4 active torsions:
REMARK  status: ('A' for Active; 'I' for Inactive)
REMARK    1  A    between atoms: C_10  and  C_11 
REMARK       I    between atoms: C_11  and  N_13 
REMARK    2  A    between atoms: N_13  and  C_14 
REMARK    3  A    between atoms: C_14  and  C_15 
REMARK    4  A    between atoms: C_15  and  S_16 
ROOT
HETATM    1  F   UNK N   1      34.803  13.519  19.151  0.00  0.00    -0.206 F 
HETATM    2  C   UNK N   1      35.389  13.860  17.978  0.00  0.00     0.117 A 
HETATM    3  C   UNK N   1      35.090  13.134  16.810  0.00  0.00     0.056 A 
HETATM    4  C   UNK N   1      36.299  14.941  17.932  0.00  0.00     0.044 A 
HETATM    5  C   UNK N   1      36.912  15.308  16.717  0.00  0.00     0.033 A 
HETATM    6  C   UNK N   1      36.589  14.570  15.582  0.00  0.00     0.043 A 
HETATM    7  N   UNK N   1      37.060  14.748  14.338  0.00  0.00    -0.351 N 
HETATM    8  C   UNK N   1      35.716  13.519  15.629  0.00  0.00    -0.004 A 
HETATM    9  C   UNK N   1      35.626  12.987  14.367  0.00  0.00     0.049 A 
HETATM   10  C   UNK N   1      36.475  13.779  13.591  0.00  0.00     0.102 A 
HETATM   11  H   UNK N   1      37.695  15.436  14.032  0.00  0.00     0.166 HD
ENDROOT
BRANCH  10  12
HETATM   12  C   UNK N   1      36.715  13.552  12.142  0.00  0.00     0.268 C 
HETATM   13  O   UNK N   1      37.552  12.731  11.812  0.00  0.00    -0.266 OA
HETATM   14  N   UNK N   1      36.035  14.213  11.167  0.00  0.00    -0.355 N 
HETATM   15  H   UNK N   1      36.286  14.031  10.233  0.00  0.00     0.162 HD
BRANCH  14  16
HETATM   16  C   UNK N   1      34.976  15.161  11.403  0.00  0.00     0.133 C 
BRANCH  16  17
HETATM   17  C   UNK N   1      35.336  16.508  10.798  0.00  0.00     0.090 C 
BRANCH  17  18
HETATM   18  S   UNK N   1      34.494  16.753   9.203  0.00  0.00    -0.181 SA
HETATM   19  H   UNK N   1      34.019  15.705   8.477  0.00  0.00     0.101 HD
ENDBRANCH  17  18
ENDBRANCH  16  17
ENDBRANCH  14  16
ENDBRANCH  10  12
TORSDOF 4
ENDMDL
MODEL 4
REMARK VINA RESULT:      -5.4      9.231     10.148
REMARK  4 active torsions:
REMARK  status: ('A' for Active; 'I' for Inactive)
REMARK    1  A    between atoms: C_10  and  C_11 
REMARK       I    between atoms: C_11  and  N_13 
REMARK    2  A    between atoms: N_13  and  C_14 
REMARK    3  A    between atoms: C_14  and  C_15 
REMARK    4  A    between atoms: C_15  and  S_16 
ROOT
HETATM    1  F   UNK N   1      23.254  11.584  13.498  0.00  0.00    -0.206 F 
HETATM    2  C   UNK N   1      23.202  11.985  12.205  0.00  0.00     0.117 A 
HETATM    3  C   UNK N   1      21.969  12.351  11.635  0.00  0.00     0.056 A 
HETATM    4  C   UNK N   1      24.386  12.032  11.433  0.00  0.00     0.044 A 
HETATM    5  C   UNK N   1      24.347  12.451  10.088  0.00  0.00     0.033 A 
HETATM    6  C   UNK N   1      23.110  12.809   9.560  0.00  0.00     0.043 A 
HETATM    7  N   UNK N   1      22.852  13.227   8.311  0.00  0.00    -0.351 N 
HETATM    8  C   UNK N   1      21.964  12.754  10.303  0.00  0.00    -0.004 A 
HETATM    9  C   UNK N   1      20.920  13.142   9.501  0.00  0.00     0.049 A 
HETATM   10  C   UNK N   1      21.512  13.430   8.269  0.00  0.00     0.102 A 
HETATM   11  H   UNK N   1      23.498  13.359   7.579  0.00  0.00     0.166 HD
ENDROOT
BRANCH  10  12
HETATM   12  C   UNK N   1      20.748  13.870   7.073  0.00  0.00     0.268 C 
HETATM   13  O   UNK N   1      20.083  13.046   6.470  0.00  0.00    -0.266 OA
HETATM   14  N   UNK N   1      20.750  15.154   6.625  0.00  0.00    -0.355 N 
HETATM   15  H   UNK N   1      20.249  15.350   5.801  0.00  0.00     0.162 HD
BRANCH  14  16
HETATM   16  C   UNK N   1      21.433  16.247   7.269  0.00  0.00     0.133 C 
BRANCH  16  17
HETATM   17  C   UNK N   1      21.094  17.556   6.575  0.00  0.00     0.090 C 
BRANCH  17  18
HETATM   18  S   UNK N   1      22.375  18.001   5.361  0.00  0.00    -0.181 SA
HETATM   19  H   UNK N   1      22.574  17.271   4.230  0.00  0.00     0.101 HD
ENDBRANCH  17  18
ENDBRANCH  16  17
ENDBRANCH  14  16
ENDBRANCH  10  12
TORSDOF 4
ENDMDL
MODEL 5
REMARK VINA RESULT:      -5.3      9.254     10.272
REMARK  4 active torsions:
REMARK  status: ('A' for Active; 'I' for Inactive)
REMARK    1  A    between atoms: C_10  and  C_11 
REMARK       I    between atoms: C_11  and  N_13 
REMARK    2  A    between atoms: N_13  and  C_14 
REMARK    3  A    between atoms: C_14  and  C_15 
REMARK    4  A    between atoms: C_15  and  S_16 
ROOT
HETATM    1  F   UNK N   1      23.746  11.331  12.575  0.00  0.00    -0.206 F 
HETATM    2  C   UNK N   1      23.496  12.021  11.437  0.00  0.00     0.117 A 
HETATM    3  C   UNK N   1      22.194  12.483  11.171  0.00  0.00     0.056 A 
HETATM    4  C   UNK N   1      24.543  12.270  10.520  0.00  0.00     0.044 A 
HETATM    5  C   UNK N   1      24.297  12.990   9.334  0.00  0.00     0.033 A 
HETATM    6  C   UNK N   1      22.998  13.435   9.106  0.00  0.00     0.043 A 
HETATM    7  N   UNK N   1      22.551  14.127   8.046  0.00  0.00    -0.351 N 
HETATM    8  C   UNK N   1      21.984  13.185   9.988  0.00  0.00    -0.004 A 
HETATM    9  C   UNK N   1      20.832  13.727   9.474  0.00  0.00     0.049 A 
HETATM   10  C   UNK N   1      21.226  14.307   8.266  0.00  0.00     0.102 A 
HETATM   11  H   UNK N   1      23.076  14.439   7.272  0.00  0.00     0.166 HD
ENDROOT
BRANCH  10  12
HETATM   12  C   UNK N   1      20.289  14.997   7.342  0.00  0.00     0.268 C 
HETATM   13  O   UNK N   1      19.812  14.365   6.416  0.00  0.00    -0.266 OA
HETATM   14  N   UNK N   1      19.932  16.301   7.489  0.00  0.00    -0.355 N 
HETATM   15  H   UNK N   1      19.338  16.690   6.807  0.00  0.00     0.162 HD
BRANCH  14  16
HETATM   16  C   UNK N   1      20.361  17.153   8.568  0.00  0.00     0.133 C 
BRANCH  16  17
HETATM   17  C   UNK N   1      19.182  17.948   9.106  0.00  0.00     0.090 C 
BRANCH  17  18
HETATM   18  S   UNK N   1      17.681  16.920   9.178  0.00  0.00    -0.181 SA
HETATM   19  H   UNK N   1      17.715  15.586   8.911  0.00  0.00     0.101 HD
ENDBRANCH  17  18
ENDBRANCH  16  17
ENDBRANCH  14  16
ENDBRANCH  10  12
TORSDOF 4
ENDMDL
MODEL 6
REMARK VINA RESULT:      -5.2      4.448      6.169
REMARK  4 active torsions:
REMARK  status: ('A' for Active; 'I' for Inactive)
REMARK    1  A    between atoms: C_10  and  C_11 
REMARK       I    between atoms: C_11  and  N_13 
REMARK    2  A    between atoms: N_13  and  C_14 
REMARK    3  A    between atoms: C_14  and  C_15 
REMARK    4  A    between atoms: C_15  and  S_16 
ROOT
HETATM    1  F   UNK N   1      29.517  15.842   3.978  0.00  0.00    -0.206 F 
HETATM    2  C   UNK N   1      30.117  16.335   5.088  0.00  0.00     0.117 A 
HETATM    3  C   UNK N   1      31.510  16.534   5.101  0.00  0.00     0.056 A 
HETATM    4  C   UNK N   1      29.342  16.644   6.230  0.00  0.00     0.044 A 
HETATM    5  C   UNK N   1      29.953  17.161   7.390  0.00  0.00     0.033 A 
HETATM    6  C   UNK N   1      31.332  17.348   7.364  0.00  0.00     0.043 A 
HETATM    7  N   UNK N   1      32.106  17.819   8.355  0.00  0.00    -0.351 N 
HETATM    8  C   UNK N   1      32.082  17.040   6.264  0.00  0.00    -0.004 A 
HETATM    9  C   UNK N   1      33.395  17.311   6.556  0.00  0.00     0.049 A 
HETATM   10  C   UNK N   1      33.370  17.797   7.866  0.00  0.00     0.102 A 
HETATM   11  H   UNK N   1      31.816  18.119   9.248  0.00  0.00     0.166 HD
ENDROOT
BRANCH  10  12
HETATM   12  C   UNK N   1      34.587  18.200   8.617  0.00  0.00     0.268 C 
HETATM   13  O   UNK N   1      35.090  19.283   8.374  0.00  0.00    -0.266 OA
HETATM   14  N   UNK N   1      35.159  17.419   9.572  0.00  0.00    -0.355 N 
HETATM   15  H   UNK N   1      35.987  17.745   9.992  0.00  0.00     0.162 HD
BRANCH  14  16
HETATM   16  C   UNK N   1      34.641  16.149  10.013  0.00  0.00     0.133 C 
BRANCH  16  17
HETATM   17  C   UNK N   1      35.252  15.772  11.352  0.00  0.00     0.090 C 
BRANCH  17  18
HETATM   18  S   UNK N   1      36.203  14.225  11.222  0.00  0.00    -0.181 SA
HETATM   19  H   UNK N   1      36.582  13.717  10.018  0.00  0.00     0.101 HD
ENDBRANCH  17  18
ENDBRANCH  16  17
ENDBRANCH  14  16
ENDBRANCH  10  12
TORSDOF 4
ENDMDL
MODEL 7
REMARK VINA RESULT:      -5.2      4.679      5.647
REMARK  4 active torsions:
REMARK  status: ('A' for Active; 'I' for Inactive)
REMARK    1  A    between atoms: C_10  and  C_11 
REMARK       I    between atoms: C_11  and  N_13 
REMARK    2  A    between atoms: N_13  and  C_14 
REMARK    3  A    between atoms: C_14  and  C_15 
REMARK    4  A    between atoms: C_15  and  S_16 
ROOT
HETATM    1  F   UNK N   1      36.192  11.949  11.911  0.00  0.00    -0.206 F 
HETATM    2  C   UNK N   1      35.887  13.229  11.589  0.00  0.00     0.117 A 
HETATM    3  C   UNK N   1      35.351  13.523  10.321  0.00  0.00     0.056 A 
HETATM    4  C   UNK N   1      36.112  14.264  12.525  0.00  0.00     0.044 A 
HETATM    5  C   UNK N   1      35.795  15.599  12.204  0.00  0.00     0.033 A 
HETATM    6  C   UNK N   1      35.263  15.851  10.943  0.00  0.00     0.043 A 
HETATM    7  N   UNK N   1      34.901  17.041  10.438  0.00  0.00    -0.351 N 
HETATM    8  C   UNK N   1      35.055  14.852  10.035  0.00  0.00    -0.004 A 
HETATM    9  C   UNK N   1      34.549  15.417   8.891  0.00  0.00     0.049 A 
HETATM   10  C   UNK N   1      34.465  16.781   9.181  0.00  0.00     0.102 A 
HETATM   11  H   UNK N   1      34.942  17.918  10.886  0.00  0.00     0.166 HD
ENDROOT
BRANCH  10  12
HETATM   12  C   UNK N   1      33.988  17.800   8.211  0.00  0.00     0.268 C 
HETATM   13  O   UNK N   1      34.806  18.534   7.686  0.00  0.00    -0.266 OA
HETATM   14  N   UNK N   1      32.678  17.944   7.874  0.00  0.00    -0.355 N 
HETATM   15  H   UNK N   1      32.444  18.672   7.254  0.00  0.00     0.162 HD
BRANCH  14  16
HETATM   16  C   UNK N   1      31.609  17.110   8.360  0.00  0.00     0.133 C 
BRANCH  16  17
HETATM   17  C   UNK N   1      30.269  17.788   8.124  0.00  0.00     0.090 C 
BRANCH  17  18
HETATM   18  S   UNK N   1      29.608  18.483   9.671  0.00  0.00    -0.181 SA
HETATM   19  H   UNK N   1      29.485  17.731  10.798  0.00  0.00     0.101 HD
ENDBRANCH  17  18
ENDBRANCH  16  17
ENDBRANCH  14  16
ENDBRANCH  10  12
TORSDOF 4
ENDMDL
MODEL 8
REMARK VINA RESULT:      -5.0     10.700     11.916
REMARK  4 active torsions:
REMARK  status: ('A' for Active; 'I' for Inactive)
REMARK    1  A    between atoms: C_10  and  C_11 
REMARK       I    between atoms: C_11  and  N_13 
REMARK    2  A    between atoms: N_13  and  C_14 
REMARK    3  A    between atoms: C_14  and  C_15 
REMARK    4  A    between atoms: C_15  and  S_16 
ROOT
HETATM    1  F   UNK N   1      34.483   8.371  18.112  0.00  0.00    -0.206 F 
HETATM    2  C   UNK N   1      35.188   9.225  17.333  0.00  0.00     0.117 A 
HETATM    3  C   UNK N   1      34.963  10.611  17.431  0.00  0.00     0.056 A 
HETATM    4  C   UNK N   1      36.143   8.721  16.420  0.00  0.00     0.044 A 
HETATM    5  C   UNK N   1      36.886   9.599  15.606  0.00  0.00     0.033 A 
HETATM    6  C   UNK N   1      36.640  10.963  15.734  0.00  0.00     0.043 A 
HETATM    7  N   UNK N   1      37.228  11.961  15.056  0.00  0.00    -0.351 N 
HETATM    8  C   UNK N   1      35.709  11.449  16.609  0.00  0.00    -0.004 A 
HETATM    9  C   UNK N   1      35.684  12.816  16.485  0.00  0.00     0.049 A 
HETATM   10  C   UNK N   1      36.644  13.097  15.511  0.00  0.00     0.102 A 
HETATM   11  H   UNK N   1      37.934  11.885  14.373  0.00  0.00     0.166 HD
ENDROOT
BRANCH  10  12
HETATM   12  C   UNK N   1      36.947  14.469  15.027  0.00  0.00     0.268 C 
HETATM   13  O   UNK N   1      37.573  15.219  15.756  0.00  0.00    -0.266 OA
HETATM   14  N   UNK N   1      36.567  14.923  13.803  0.00  0.00    -0.355 N 
HETATM   15  H   UNK N   1      36.773  15.859  13.579  0.00  0.00     0.162 HD
BRANCH  14  16
HETATM   16  C   UNK N   1      35.882  14.134  12.811  0.00  0.00     0.133 C 
BRANCH  16  17
HETATM   17  C   UNK N   1      36.363  14.511  11.420  0.00  0.00     0.090 C 
BRANCH  17  18
HETATM   18  S   UNK N   1      35.606  16.072  10.869  0.00  0.00    -0.181 SA
HETATM   19  H   UNK N   1      34.664  16.712  11.615  0.00  0.00     0.101 HD
ENDBRANCH  17  18
ENDBRANCH  16  17
ENDBRANCH  14  16
ENDBRANCH  10  12
TORSDOF 4
ENDMDL
MODEL 9
REMARK VINA RESULT:      -5.0      8.498      9.995
REMARK  4 active torsions:
REMARK  status: ('A' for Active; 'I' for Inactive)
REMARK    1  A    between atoms: C_10  and  C_11 
REMARK       I    between atoms: C_11  and  N_13 
REMARK    2  A    between atoms: N_13  and  C_14 
REMARK    3  A    between atoms: C_14  and  C_15 
REMARK    4  A    between atoms: C_15  and  S_16 
ROOT
HETATM    1  F   UNK N   1      34.072  10.441  16.057  0.00  0.00    -0.206 F 
HETATM    2  C   UNK N   1      34.724  11.482  15.485  0.00  0.00     0.117 A 
HETATM    3  C   UNK N   1      34.466  11.816  14.143  0.00  0.00     0.056 A 
HETATM    4  C   UNK N   1      35.663  12.224  16.238  0.00  0.00     0.044 A 
HETATM    5  C   UNK N   1      36.346  13.311  15.656  0.00  0.00     0.033 A 
HETATM    6  C   UNK N   1      36.062  13.615  14.328  0.00  0.00     0.043 A 
HETATM    7  N   UNK N   1      36.600  14.598  13.587  0.00  0.00    -0.351 N 
HETATM    8  C   UNK N   1      35.161  12.891  13.598  0.00  0.00    -0.004 A 
HETATM    9  C   UNK N   1      35.121  13.418  12.331  0.00  0.00     0.049 A 
HETATM   10  C   UNK N   1      36.028  14.479  12.363  0.00  0.00     0.102 A 
HETATM   11  H   UNK N   1      37.267  15.263  13.873  0.00  0.00     0.166 HD
ENDROOT
BRANCH  10  12
HETATM   12  C   UNK N   1      36.335  15.335  11.188  0.00  0.00     0.268 C 
HETATM   13  O   UNK N   1      35.801  16.427  11.106  0.00  0.00    -0.266 OA
HETATM   14  N   UNK N   1      37.195  14.958  10.204  0.00  0.00    -0.355 N 
HETATM   15  H   UNK N   1      37.309  15.569   9.440  0.00  0.00     0.162 HD
BRANCH  14  16
HETATM   16  C   UNK N   1      37.948  13.730  10.197  0.00  0.00     0.133 C 
BRANCH  16  17
HETATM   17  C   UNK N   1      37.784  13.024   8.860  0.00  0.00     0.090 C 
BRANCH  17  18
HETATM   18  S   UNK N   1      36.044  12.576   8.569  0.00  0.00    -0.181 SA
HETATM   19  H   UNK N   1      35.495  12.606   7.324  0.00  0.00     0.101 HD
ENDBRANCH  17  18
ENDBRANCH  16  17
ENDBRANCH  14  16
ENDBRANCH  10  12
TORSDOF 4
ENDMDL
