MODEL 1
REMARK VINA RESULT:      -4.6      0.000      0.000
REMARK  8 active torsions:
REMARK  status: ('A' for Active; 'I' for Inactive)
REMARK    1  A    between atoms: N_1  and  C_2 
REMARK    2  A    between atoms: C_2  and  C_3 
REMARK    3  A    between atoms: C_3  and  C_4 
REMARK    4  A    between atoms: C_4  and  C_5 
REMARK    5  A    between atoms: C_5  and  C_6 
REMARK    6  A    between atoms: C_6  and  C_7 
REMARK    7  A    between atoms: C_7  and  C_8 
REMARK    8  A    between atoms: C_8  and  N_9 
REMARK       I    between atoms: N_9  and  C_10 
REMARK       I    between atoms: C_10  and  N_11 
REMARK       I    between atoms: C_10  and  N_12 
ROOT
HETATM    1  C   UNK N   1      18.776  16.649   8.920  0.00  0.00     0.117 C 
ENDROOT
BRANCH   1   2
HETATM    2  C   UNK N   1      19.840  15.980   8.076  0.00  0.00     0.019 C 
BRANCH   2   3
HETATM    3  C   UNK N   1      20.888  15.381   8.990  0.00  0.00     0.002 C 
BRANCH   3   4
HETATM    4  C   UNK N   1      20.316  14.171   9.696  0.00  0.00     0.000 C 
BRANCH   4   5
HETATM    5  C   UNK N   1      21.311  13.033   9.631  0.00  0.00     0.002 C 
BRANCH   5   6
HETATM    6  C   UNK N   1      21.388  12.358  10.984  0.00  0.00     0.019 C 
BRANCH   6   7
HETATM    7  C   UNK N   1      22.838  12.167  11.374  0.00  0.00     0.111 C 
BRANCH   7   8
HETATM    8  N   UNK N   1      23.682  12.945  10.484  0.00  0.00    -0.430 N 
HETATM    9  H   UNK N   1      23.599  12.831   9.474  0.00  0.00     0.149 HD
HETATM   10  H   UNK N   1      24.358  13.604  10.870  0.00  0.00     0.149 HD
ENDBRANCH   7   8
ENDBRANCH   6   7
ENDBRANCH   5   6
ENDBRANCH   4   5
ENDBRANCH   3   4
ENDBRANCH   2   3
ENDBRANCH   1   2
BRANCH   1  11
HETATM   11  N   UNK N   1      19.141  18.037   9.164  0.00  0.00    -0.387 N 
HETATM   12  C   UNK N   1      18.467  18.473  10.381  0.00  0.00     0.270 C 
HETATM   13  N   UNK N   1      18.948  19.796  10.744  0.00  0.00    -0.396 N 
HETATM   14  N   UNK N   1      17.030  18.530  10.172  0.00  0.00    -0.396 N 
HETATM   15  H   UNK N   1      18.327  20.497  11.147  0.00  0.00     0.153 HD
HETATM   16  H   UNK N   1      19.929  20.028  10.592  0.00  0.00     0.153 HD
HETATM   17  H   UNK N   1      16.518  17.992   9.474  0.00  0.00     0.153 HD
HETATM   18  H   UNK N   1      16.493  19.157  10.770  0.00  0.00     0.153 HD
HETATM   19  H   UNK N   1      19.759  18.604   8.585  0.00  0.00     0.157 HD
ENDBRANCH   1  11
TORSDOF 8
ENDMDL
MODEL 2
REMARK VINA RESULT:      -4.6      1.415      6.463
REMARK  8 active torsions:
REMARK  status: ('A' for Active; 'I' for Inactive)
REMARK    1  A    between atoms: N_1  and  C_2 
REMARK    2  A    between atoms: C_2  and  C_3 
REMARK    3  A    between atoms: C_3  and  C_4 
REMARK    4  A    between atoms: C_4  and  C_5 
REMARK    5  A    between atoms: C_5  and  C_6 
REMARK    6  A    between atoms: C_6  and  C_7 
REMARK    7  A    between atoms: C_7  and  C_8 
REMARK    8  A    between atoms: C_8  and  N_9 
REMARK       I    between atoms: N_9  and  C_10 
REMARK       I    between atoms: C_10  and  N_11 
REMARK       I    between atoms: C_10  and  N_12 
ROOT
HETATM    1  C   UNK N   1      21.496  12.561  10.681  0.00  0.00     0.117 C 
ENDROOT
BRANCH   1   2
HETATM    2  C   UNK N   1      20.554  13.561  10.045  0.00  0.00     0.019 C 
BRANCH   2   3
HETATM    3  C   UNK N   1      21.081  13.929   8.674  0.00  0.00     0.002 C 
BRANCH   3   4
HETATM    4  C   UNK N   1      21.000  15.428   8.483  0.00  0.00     0.000 C 
BRANCH   4   5
HETATM    5  C   UNK N   1      19.618  15.910   8.867  0.00  0.00     0.002 C 
BRANCH   5   6
HETATM    6  C   UNK N   1      19.584  17.423   8.816  0.00  0.00     0.019 C 
BRANCH   6   7
HETATM    7  C   UNK N   1      18.413  17.932   9.629  0.00  0.00     0.111 C 
BRANCH   7   8
HETATM    8  N   UNK N   1      17.174  17.581   8.960  0.00  0.00    -0.430 N 
HETATM    9  H   UNK N   1      17.044  17.812   7.974  0.00  0.00     0.149 HD
HETATM   10  H   UNK N   1      16.434  17.104   9.474  0.00  0.00     0.149 HD
ENDBRANCH   7   8
ENDBRANCH   6   7
ENDBRANCH   5   6
ENDBRANCH   4   5
ENDBRANCH   3   4
ENDBRANCH   2   3
ENDBRANCH   1   2
BRANCH   1  11
HETATM   11  N   UNK N   1      22.867  13.040  10.578  0.00  0.00    -0.387 N 
HETATM   12  C   UNK N   1      23.728  12.097  11.280  0.00  0.00     0.270 C 
HETATM   13  N   UNK N   1      25.117  12.454  11.046  0.00  0.00    -0.396 N 
HETATM   14  N   UNK N   1      23.461  12.134  12.708  0.00  0.00    -0.396 N 
HETATM   15  H   UNK N   1      25.823  12.354  11.774  0.00  0.00     0.153 HD
HETATM   16  H   UNK N   1      25.392  12.813  10.132  0.00  0.00     0.153 HD
HETATM   17  H   UNK N   1      22.584  12.433  13.132  0.00  0.00     0.153 HD
HETATM   18  H   UNK N   1      24.210  11.838  13.334  0.00  0.00     0.153 HD
HETATM   19  H   UNK N   1      23.171  13.886  10.097  0.00  0.00     0.157 HD
ENDBRANCH   1  11
TORSDOF 8
ENDMDL
MODEL 3
REMARK VINA RESULT:      -4.2     15.276     16.868
REMARK  8 active torsions:
REMARK  status: ('A' for Active; 'I' for Inactive)
REMARK    1  A    between atoms: N_1  and  C_2 
REMARK    2  A    between atoms: C_2  and  C_3 
REMARK    3  A    between atoms: C_3  and  C_4 
REMARK    4  A    between atoms: C_4  and  C_5 
REMARK    5  A    between atoms: C_5  and  C_6 
REMARK    6  A    between atoms: C_6  and  C_7 
REMARK    7  A    between atoms: C_7  and  C_8 
REMARK    8  A    between atoms: C_8  and  N_9 
REMARK       I    between atoms: N_9  and  C_10 
REMARK       I    between atoms: C_10  and  N_11 
REMARK       I    between atoms: C_10  and  N_12 
ROOT
HETATM    1  C   UNK N   1      36.825  13.592  15.363  0.00  0.00     0.117 C 
ENDROOT
BRANCH   1   2
HETATM    2  C   UNK N   1      35.405  13.413  15.855  0.00  0.00     0.019 C 
BRANCH   2   3
HETATM    3  C   UNK N   1      35.417  12.524  17.080  0.00  0.00     0.002 C 
BRANCH   3   4
HETATM    4  C   UNK N   1      35.937  11.153  16.710  0.00  0.00     0.000 C 
BRANCH   4   5
HETATM    5  C   UNK N   1      34.774  10.250  16.362  0.00  0.00     0.002 C 
BRANCH   5   6
HETATM    6  C   UNK N   1      34.799   9.950  14.879  0.00  0.00     0.019 C 
BRANCH   6   7
HETATM    7  C   UNK N   1      33.647  10.658  14.198  0.00  0.00     0.111 C 
BRANCH   7   8
HETATM    8  N   UNK N   1      33.901  10.728  12.770  0.00  0.00    -0.430 N 
HETATM    9  H   UNK N   1      33.119  10.775  12.116  0.00  0.00     0.149 HD
HETATM   10  H   UNK N   1      34.859  10.730  12.422  0.00  0.00     0.149 HD
ENDBRANCH   7   8
ENDBRANCH   6   7
ENDBRANCH   5   6
ENDBRANCH   4   5
ENDBRANCH   3   4
ENDBRANCH   2   3
ENDBRANCH   1   2
BRANCH   1  11
HETATM   11  N   UNK N   1      36.885  14.702  14.423  0.00  0.00    -0.387 N 
HETATM   12  C   UNK N   1      36.371  14.235  13.141  0.00  0.00     0.270 C 
HETATM   13  N   UNK N   1      36.256  15.365  12.234  0.00  0.00    -0.396 N 
HETATM   14  N   UNK N   1      37.270  13.251  12.563  0.00  0.00    -0.396 N 
HETATM   15  H   UNK N   1      36.458  15.272  11.239  0.00  0.00     0.153 HD
HETATM   16  H   UNK N   1      35.966  16.271  12.600  0.00  0.00     0.153 HD
HETATM   17  H   UNK N   1      37.919  12.669  13.092  0.00  0.00     0.153 HD
HETATM   18  H   UNK N   1      37.250  13.133  11.550  0.00  0.00     0.153 HD
HETATM   19  H   UNK N   1      37.226  15.641  14.625  0.00  0.00     0.157 HD
ENDBRANCH   1  11
TORSDOF 8
ENDMDL
MODEL 4
REMARK VINA RESULT:      -4.2     18.704     19.824
REMARK  8 active torsions:
REMARK  status: ('A' for Active; 'I' for Inactive)
REMARK    1  A    between atoms: N_1  and  C_2 
REMARK    2  A    between atoms: C_2  and  C_3 
REMARK    3  A    between atoms: C_3  and  C_4 
REMARK    4  A    between atoms: C_4  and  C_5 
REMARK    5  A    between atoms: C_5  and  C_6 
REMARK    6  A    between atoms: C_6  and  C_7 
REMARK    7  A    between atoms: C_7  and  C_8 
REMARK    8  A    between atoms: C_8  and  N_9 
REMARK       I    between atoms: N_9  and  C_10 
REMARK       I    between atoms: C_10  and  N_11 
REMARK       I    between atoms: C_10  and  N_12 
ROOT
HETATM    1  C   UNK N   1      27.747  29.911  -2.884  0.00  0.00     0.117 C 
ENDROOT
BRANCH   1   2
HETATM    2  C   UNK N   1      26.455  29.899  -3.672  0.00  0.00     0.019 C 
BRANCH   2   3
HETATM    3  C   UNK N   1      26.507  28.775  -4.685  0.00  0.00     0.002 C 
BRANCH   3   4
HETATM    4  C   UNK N   1      25.489  27.716  -4.324  0.00  0.00     0.000 C 
BRANCH   4   5
HETATM    5  C   UNK N   1      24.748  27.284  -5.570  0.00  0.00     0.002 C 
BRANCH   5   6
HETATM    6  C   UNK N   1      25.514  26.167  -6.247  0.00  0.00     0.019 C 
BRANCH   6   7
HETATM    7  C   UNK N   1      25.706  25.023  -5.275  0.00  0.00     0.111 C 
BRANCH   7   8
HETATM    8  N   UNK N   1      25.370  23.772  -5.931  0.00  0.00    -0.430 N 
HETATM    9  H   UNK N   1      24.520  23.272  -5.670  0.00  0.00     0.149 HD
HETATM   10  H   UNK N   1      25.984  23.394  -6.652  0.00  0.00     0.149 HD
ENDBRANCH   7   8
ENDBRANCH   6   7
ENDBRANCH   5   6
ENDBRANCH   4   5
ENDBRANCH   3   4
ENDBRANCH   2   3
ENDBRANCH   1   2
BRANCH   1  11
HETATM   11  N   UNK N   1      27.544  29.271  -1.593  0.00  0.00    -0.387 N 
HETATM   12  C   UNK N   1      28.251  30.052  -0.586  0.00  0.00     0.270 C 
HETATM   13  N   UNK N   1      27.924  29.537   0.733  0.00  0.00    -0.396 N 
HETATM   14  N   UNK N   1      29.687  29.958  -0.789  0.00  0.00    -0.396 N 
HETATM   15  H   UNK N   1      28.618  29.501   1.479  0.00  0.00     0.153 HD
HETATM   16  H   UNK N   1      26.977  29.204   0.918  0.00  0.00     0.153 HD
HETATM   17  H   UNK N   1      30.140  29.747  -1.678  0.00  0.00     0.153 HD
HETATM   18  H   UNK N   1      30.288  30.117   0.019  0.00  0.00     0.153 HD
HETATM   19  H   UNK N   1      27.001  28.425  -1.423  0.00  0.00     0.157 HD
ENDBRANCH   1  11
TORSDOF 8
ENDMDL
MODEL 5
REMARK VINA RESULT:      -4.2     13.951     14.981
REMARK  8 active torsions:
REMARK  status: ('A' for Active; 'I' for Inactive)
REMARK    1  A    between atoms: N_1  and  C_2 
REMARK    2  A    between atoms: C_2  and  C_3 
REMARK    3  A    between atoms: C_3  and  C_4 
REMARK    4  A    between atoms: C_4  and  C_5 
REMARK    5  A    between atoms: C_5  and  C_6 
REMARK    6  A    between atoms: C_6  and  C_7 
REMARK    7  A    between atoms: C_7  and  C_8 
REMARK    8  A    between atoms: C_8  and  N_9 
REMARK       I    between atoms: N_9  and  C_10 
REMARK       I    between atoms: C_10  and  N_11 
REMARK       I    between atoms: C_10  and  N_12 
ROOT
HETATM    1  C   UNK N   1      33.674  17.145   8.959  0.00  0.00     0.117 C 
ENDROOT
BRANCH   1   2
HETATM    2  C   UNK N   1      34.166  17.481   7.568  0.00  0.00     0.019 C 
BRANCH   2   3
HETATM    3  C   UNK N   1      32.994  17.446   6.610  0.00  0.00     0.002 C 
BRANCH   3   4
HETATM    4  C   UNK N   1      33.500  17.457   5.185  0.00  0.00     0.000 C 
BRANCH   4   5
HETATM    5  C   UNK N   1      32.327  17.560   4.235  0.00  0.00     0.002 C 
BRANCH   5   6
HETATM    6  C   UNK N   1      32.638  16.788   2.970  0.00  0.00     0.019 C 
BRANCH   6   7
HETATM    7  C   UNK N   1      33.468  15.569   3.312  0.00  0.00     0.111 C 
BRANCH   7   8
HETATM    8  N   UNK N   1      33.950  14.956   2.087  0.00  0.00    -0.430 N 
HETATM    9  H   UNK N   1      34.729  15.377   1.579  0.00  0.00     0.149 HD
HETATM   10  H   UNK N   1      33.511  14.106   1.735  0.00  0.00     0.149 HD
ENDBRANCH   7   8
ENDBRANCH   6   7
ENDBRANCH   5   6
ENDBRANCH   4   5
ENDBRANCH   3   4
ENDBRANCH   2   3
ENDBRANCH   1   2
BRANCH   1  11
HETATM   11  N   UNK N   1      34.773  17.248   9.909  0.00  0.00    -0.387 N 
HETATM   12  C   UNK N   1      35.153  15.899  10.308  0.00  0.00     0.270 C 
HETATM   13  N   UNK N   1      36.357  15.962  11.119  0.00  0.00    -0.396 N 
HETATM   14  N   UNK N   1      34.089  15.283  11.084  0.00  0.00    -0.396 N 
HETATM   15  H   UNK N   1      36.500  15.337  11.911  0.00  0.00     0.153 HD
HETATM   16  H   UNK N   1      37.077  16.648  10.889  0.00  0.00     0.153 HD
HETATM   17  H   UNK N   1      33.104  15.539  11.033  0.00  0.00     0.153 HD
HETATM   18  H   UNK N   1      34.350  14.536  11.728  0.00  0.00     0.153 HD
HETATM   19  H   UNK N   1      35.203  18.113  10.236  0.00  0.00     0.157 HD
ENDBRANCH   1  11
TORSDOF 8
ENDMDL
MODEL 6
REMARK VINA RESULT:      -4.1     10.007     12.530
REMARK  8 active torsions:
REMARK  status: ('A' for Active; 'I' for Inactive)
REMARK    1  A    between atoms: N_1  and  C_2 
REMARK    2  A    between atoms: C_2  and  C_3 
REMARK    3  A    between atoms: C_3  and  C_4 
REMARK    4  A    between atoms: C_4  and  C_5 
REMARK    5  A    between atoms: C_5  and  C_6 
REMARK    6  A    between atoms: C_6  and  C_7 
REMARK    7  A    between atoms: C_7  and  C_8 
REMARK    8  A    between atoms: C_8  and  N_9 
REMARK       I    between atoms: N_9  and  C_10 
REMARK       I    between atoms: C_10  and  N_11 
REMARK       I    between atoms: C_10  and  N_12 
ROOT
HETATM    1  C   UNK N   1      32.135  15.359   8.628  0.00  0.00     0.117 C 
ENDROOT
BRANCH   1   2
HETATM    2  C   UNK N   1      31.907  15.696   7.170  0.00  0.00     0.019 C 
BRANCH   2   3
HETATM    3  C   UNK N   1      31.474  17.143   7.061  0.00  0.00     0.002 C 
BRANCH   3   4
HETATM    4  C   UNK N   1      30.214  17.236   6.230  0.00  0.00     0.000 C 
BRANCH   4   5
HETATM    5  C   UNK N   1      29.005  17.120   7.133  0.00  0.00     0.002 C 
BRANCH   5   6
HETATM    6  C   UNK N   1      28.805  18.427   7.871  0.00  0.00     0.019 C 
BRANCH   6   7
HETATM    7  C   UNK N   1      28.643  18.153   9.351  0.00  0.00     0.111 C 
BRANCH   7   8
HETATM    8  N   UNK N   1      29.853  18.549  10.050  0.00  0.00    -0.430 N 
HETATM    9  H   UNK N   1      30.033  18.204  10.993  0.00  0.00     0.149 HD
HETATM   10  H   UNK N   1      30.521  19.173   9.598  0.00  0.00     0.149 HD
ENDBRANCH   7   8
ENDBRANCH   6   7
ENDBRANCH   5   6
ENDBRANCH   4   5
ENDBRANCH   3   4
ENDBRANCH   2   3
ENDBRANCH   1   2
BRANCH   1  11
HETATM   11  N   UNK N   1      32.837  16.453   9.283  0.00  0.00    -0.387 N 
HETATM   12  C   UNK N   1      34.049  15.913   9.888  0.00  0.00     0.270 C 
HETATM   13  N   UNK N   1      34.856  17.009  10.397  0.00  0.00    -0.396 N 
HETATM   14  N   UNK N   1      33.712  15.020  10.983  0.00  0.00    -0.396 N 
HETATM   15  H   UNK N   1      35.388  16.922  11.263  0.00  0.00     0.153 HD
HETATM   16  H   UNK N   1      34.892  17.885   9.877  0.00  0.00     0.153 HD
HETATM   17  H   UNK N   1      32.830  14.519  11.081  0.00  0.00     0.153 HD
HETATM   18  H   UNK N   1      34.414  14.884  11.711  0.00  0.00     0.153 HD
HETATM   19  H   UNK N   1      32.535  17.426   9.312  0.00  0.00     0.157 HD
ENDBRANCH   1  11
TORSDOF 8
ENDMDL
MODEL 7
REMARK VINA RESULT:      -4.1     10.116     11.038
REMARK  8 active torsions:
REMARK  status: ('A' for Active; 'I' for Inactive)
REMARK    1  A    between atoms: N_1  and  C_2 
REMARK    2  A    between atoms: C_2  and  C_3 
REMARK    3  A    between atoms: C_3  and  C_4 
REMARK    4  A    between atoms: C_4  and  C_5 
REMARK    5  A    between atoms: C_5  and  C_6 
REMARK    6  A    between atoms: C_6  and  C_7 
REMARK    7  A    between atoms: C_7  and  C_8 
REMARK    8  A    between atoms: C_8  and  N_9 
REMARK       I    between atoms: N_9  and  C_10 
REMARK       I    between atoms: C_10  and  N_11 
REMARK       I    between atoms: C_10  and  N_12 
ROOT
HETATM    1  C   UNK N   1      28.348  17.007   6.719  0.00  0.00     0.117 C 
ENDROOT
BRANCH   1   2
HETATM    2  C   UNK N   1      29.649  17.479   6.106  0.00  0.00     0.019 C 
BRANCH   2   3
HETATM    3  C   UNK N   1      30.757  16.533   6.515  0.00  0.00     0.002 C 
BRANCH   3   4
HETATM    4  C   UNK N   1      31.592  17.166   7.605  0.00  0.00     0.000 C 
BRANCH   4   5
HETATM    5  C   UNK N   1      32.955  17.524   7.053  0.00  0.00     0.002 C 
BRANCH   5   6
HETATM    6  C   UNK N   1      33.846  17.992   8.184  0.00  0.00     0.019 C 
BRANCH   6   7
HETATM    7  C   UNK N   1      34.138  16.832   9.112  0.00  0.00     0.111 C 
BRANCH   7   8
HETATM    8  N   UNK N   1      34.924  17.302  10.238  0.00  0.00    -0.430 N 
HETATM    9  H   UNK N   1      34.690  18.187  10.689  0.00  0.00     0.149 HD
HETATM   10  H   UNK N   1      35.710  16.749  10.578  0.00  0.00     0.149 HD
ENDBRANCH   7   8
ENDBRANCH   6   7
ENDBRANCH   5   6
ENDBRANCH   4   5
ENDBRANCH   3   4
ENDBRANCH   2   3
ENDBRANCH   1   2
BRANCH   1  11
HETATM   11  N   UNK N   1      27.354  18.069   6.645  0.00  0.00    -0.387 N 
HETATM   12  C   UNK N   1      27.784  19.150   7.523  0.00  0.00     0.270 C 
HETATM   13  N   UNK N   1      26.905  20.292   7.338  0.00  0.00    -0.396 N 
HETATM   14  N   UNK N   1      27.728  18.726   8.912  0.00  0.00    -0.396 N 
HETATM   15  H   UNK N   1      26.634  20.889   8.120  0.00  0.00     0.153 HD
HETATM   16  H   UNK N   1      26.551  20.503   6.405  0.00  0.00     0.153 HD
HETATM   17  H   UNK N   1      27.783  17.760   9.233  0.00  0.00     0.153 HD
HETATM   18  H   UNK N   1      27.626  19.453   9.621  0.00  0.00     0.153 HD
HETATM   19  H   UNK N   1      26.507  18.058   6.079  0.00  0.00     0.157 HD
ENDBRANCH   1  11
TORSDOF 8
ENDMDL
MODEL 8
REMARK VINA RESULT:      -4.1      3.375      6.318
REMARK  8 active torsions:
REMARK  status: ('A' for Active; 'I' for Inactive)
REMARK    1  A    between atoms: N_1  and  C_2 
REMARK    2  A    between atoms: C_2  and  C_3 
REMARK    3  A    between atoms: C_3  and  C_4 
REMARK    4  A    between atoms: C_4  and  C_5 
REMARK    5  A    between atoms: C_5  and  C_6 
REMARK    6  A    between atoms: C_6  and  C_7 
REMARK    7  A    between atoms: C_7  and  C_8 
REMARK    8  A    between atoms: C_8  and  N_9 
REMARK       I    between atoms: N_9  and  C_10 
REMARK       I    between atoms: C_10  and  N_11 
REMARK       I    between atoms: C_10  and  N_12 
ROOT
HETATM    1  C   UNK N   1      21.524  12.698   9.996  0.00  0.00     0.117 C 
ENDROOT
BRANCH   1   2
HETATM    2  C   UNK N   1      20.576  13.876   9.931  0.00  0.00     0.019 C 
BRANCH   2   3
HETATM    3  C   UNK N   1      21.110  14.882   8.934  0.00  0.00     0.002 C 
BRANCH   3   4
HETATM    4  C   UNK N   1      20.098  15.990   8.737  0.00  0.00     0.000 C 
BRANCH   4   5
HETATM    5  C   UNK N   1      20.583  16.927   7.653  0.00  0.00     0.002 C 
BRANCH   5   6
HETATM    6  C   UNK N   1      21.545  16.189   6.747  0.00  0.00     0.019 C 
BRANCH   6   7
HETATM    7  C   UNK N   1      21.817  17.020   5.511  0.00  0.00     0.111 C 
BRANCH   7   8
HETATM    8  N   UNK N   1      22.805  18.038   5.823  0.00  0.00    -0.430 N 
HETATM    9  H   UNK N   1      22.605  18.740   6.536  0.00  0.00     0.149 HD
HETATM   10  H   UNK N   1      23.697  18.051   5.330  0.00  0.00     0.149 HD
ENDBRANCH   7   8
ENDBRANCH   6   7
ENDBRANCH   5   6
ENDBRANCH   4   5
ENDBRANCH   3   4
ENDBRANCH   2   3
ENDBRANCH   1   2
BRANCH   1  11
HETATM   11  N   UNK N   1      22.842  13.148  10.422  0.00  0.00    -0.387 N 
HETATM   12  C   UNK N   1      23.509  12.031  11.079  0.00  0.00     0.270 C 
HETATM   13  N   UNK N   1      24.887  12.398  11.359  0.00  0.00    -0.396 N 
HETATM   14  N   UNK N   1      22.841  11.705  12.327  0.00  0.00    -0.396 N 
HETATM   15  H   UNK N   1      25.358  12.092  12.210  0.00  0.00     0.153 HD
HETATM   16  H   UNK N   1      25.396  12.973  10.688  0.00  0.00     0.153 HD
HETATM   17  H   UNK N   1      21.865  11.909  12.540  0.00  0.00     0.153 HD
HETATM   18  H   UNK N   1      23.391  11.237  13.047  0.00  0.00     0.153 HD
HETATM   19  H   UNK N   1      23.229  14.080  10.284  0.00  0.00     0.157 HD
ENDBRANCH   1  11
TORSDOF 8
ENDMDL
MODEL 9
REMARK VINA RESULT:      -4.0     16.538     18.144
REMARK  8 active torsions:
REMARK  status: ('A' for Active; 'I' for Inactive)
REMARK    1  A    between atoms: N_1  and  C_2 
REMARK    2  A    between atoms: C_2  and  C_3 
REMARK    3  A    between atoms: C_3  and  C_4 
REMARK    4  A    between atoms: C_4  and  C_5 
REMARK    5  A    between atoms: C_5  and  C_6 
REMARK    6  A    between atoms: C_6  and  C_7 
REMARK    7  A    between atoms: C_7  and  C_8 
REMARK    8  A    between atoms: C_8  and  N_9 
REMARK       I    between atoms: N_9  and  C_10 
REMARK       I    between atoms: C_10  and  N_11 
REMARK       I    between atoms: C_10  and  N_12 
ROOT
HETATM    1  C   UNK N   1      34.782  10.367  20.239  0.00  0.00     0.117 C 
ENDROOT
BRANCH   1   2
HETATM    2  C   UNK N   1      35.403  11.265  19.191  0.00  0.00     0.019 C 
BRANCH   2   3
HETATM    3  C   UNK N   1      35.221  12.709  19.610  0.00  0.00     0.002 C 
BRANCH   3   4
HETATM    4  C   UNK N   1      35.178  13.593  18.383  0.00  0.00     0.000 C 
BRANCH   4   5
HETATM    5  C   UNK N   1      35.102  12.731  17.143  0.00  0.00     0.002 C 
BRANCH   5   6
HETATM    6  C   UNK N   1      35.930  13.362  16.043  0.00  0.00     0.019 C 
BRANCH   6   7
HETATM    7  C   UNK N   1      35.622  12.686  14.724  0.00  0.00     0.111 C 
BRANCH   7   8
HETATM    8  N   UNK N   1      35.519  13.691  13.681  0.00  0.00    -0.430 N 
HETATM    9  H   UNK N   1      36.026  14.571  13.770  0.00  0.00     0.149 HD
HETATM   10  H   UNK N   1      34.941  13.516  12.860  0.00  0.00     0.149 HD
ENDBRANCH   7   8
ENDBRANCH   6   7
ENDBRANCH   5   6
ENDBRANCH   4   5
ENDBRANCH   3   4
ENDBRANCH   2   3
ENDBRANCH   1   2
BRANCH   1  11
HETATM   11  N   UNK N   1      34.161  11.176  21.277  0.00  0.00    -0.387 N 
HETATM   12  C   UNK N   1      33.360  10.295  22.118  0.00  0.00     0.270 C 
HETATM   13  N   UNK N   1      32.870  11.044  23.262  0.00  0.00    -0.396 N 
HETATM   14  N   UNK N   1      32.229   9.773  21.370  0.00  0.00    -0.396 N 
HETATM   15  H   UNK N   1      31.941  10.879  23.649  0.00  0.00     0.153 HD
HETATM   16  H   UNK N   1      33.468  11.752  23.689  0.00  0.00     0.153 HD
HETATM   17  H   UNK N   1      32.190   9.680  20.356  0.00  0.00     0.153 HD
HETATM   18  H   UNK N   1      31.411   9.476  21.902  0.00  0.00     0.153 HD
HETATM   19  H   UNK N   1      34.268  12.183  21.395  0.00  0.00     0.157 HD
ENDBRANCH   1  11
TORSDOF 8
ENDMDL
