MODEL 1
REMARK VINA RESULT:      -8.7      0.000      0.000
REMARK  2 active torsions:
REMARK  status: ('A' for Active; 'I' for Inactive)
REMARK    1  A    between atoms: C_2  and  C_10 
REMARK       I    between atoms: C_10  and  N_12 
REMARK    2  A    between atoms: N_15  and  C_18 
ROOT
HETATM    1  C   UNK N   1      20.104  15.141   8.593  0.00  0.00     0.253 C 
HETATM    2  O   UNK N   1      19.503  16.055   9.150  0.00  0.00    -0.267 OA
HETATM    3  N   UNK N   1      20.064  15.044   7.231  0.00  0.00    -0.345 N 
HETATM    4  C   UNK N   1      19.586  16.145   6.439  0.00  0.00     0.156 C 
HETATM    5  C   UNK N   1      20.782  16.674   5.622  0.00  0.00     0.293 C 
HETATM    6  N   UNK N   1      21.857  15.666   5.451  0.00  0.00     0.105 N 
HETATM    7  C   UNK N   1      21.284  14.331   5.242  0.00  0.00     0.293 C 
HETATM    8  C   UNK N   1      20.590  13.888   6.521  0.00  0.00     0.156 C 
ENDROOT
BRANCH   6   9
HETATM    9  C   UNK N   1      22.789  16.058   4.374  0.00  0.00     0.290 A 
HETATM   10  C   UNK N   1      22.499  17.453   3.823  0.00  0.00    -0.009 A 
HETATM   11  C   UNK N   1      21.326  17.907   3.214  0.00  0.00     0.010 A 
HETATM   12  C   UNK N   1      23.571  18.305   4.001  0.00  0.00    -0.017 A 
HETATM   13  C   UNK N   1      21.265  19.246   2.786  0.00  0.00     0.001 A 
HETATM   14  C   UNK N   1      22.366  20.106   2.970  0.00  0.00     0.001 A 
HETATM   15  C   UNK N   1      23.536  19.635   3.586  0.00  0.00     0.013 A 
HETATM   16  C   UNK N   1      24.626  17.583   4.650  0.00  0.00    -0.017 A 
HETATM   17  C   UNK N   1      24.205  16.291   4.871  0.00  0.00    -0.009 A 
HETATM   18  C   UNK N   1      25.895  18.016   5.029  0.00  0.00     0.013 A 
HETATM   19  C   UNK N   1      25.049  15.360   5.478  0.00  0.00     0.010 A 
HETATM   20  C   UNK N   1      26.331  15.767   5.872  0.00  0.00     0.001 A 
HETATM   21  C   UNK N   1      26.752  17.093   5.651  0.00  0.00     0.001 A 
ENDBRANCH   6   9
BRANCH   1  22
HETATM   22  C   UNK N   1      20.899  14.205   9.424  0.00  0.00     0.033 A 
HETATM   23  C   UNK N   1      22.293  14.093   9.244  0.00  0.00     0.030 A 
HETATM   24  C   UNK N   1      22.975  13.158  10.019  0.00  0.00    -0.007 A 
HETATM   25  C   UNK N   1      22.330  12.336  10.893  0.00  0.00     0.042 A 
HETATM   26  C   UNK N   1      24.315  12.869  10.085  0.00  0.00     0.030 A 
HETATM   27  C   UNK N   1      20.957  12.386  11.076  0.00  0.00     0.031 A 
HETATM   28  N   UNK N   1      23.193  11.524  11.516  0.00  0.00    -0.365 N 
HETATM   29  C   UNK N   1      20.243  13.335  10.337  0.00  0.00     0.019 A 
HETATM   30  C   UNK N   1      24.417  11.846  11.030  0.00  0.00     0.089 A 
HETATM   31  H   UNK N   1      22.982  10.836  12.188  0.00  0.00     0.165 HD
ENDBRANCH   1  22
TORSDOF 2
ENDMDL
MODEL 2
REMARK VINA RESULT:      -8.7      9.024     11.813
REMARK  2 active torsions:
REMARK  status: ('A' for Active; 'I' for Inactive)
REMARK    1  A    between atoms: C_2  and  C_10 
REMARK       I    between atoms: C_10  and  N_12 
REMARK    2  A    between atoms: N_15  and  C_18 
ROOT
HETATM    1  C   UNK N   1      34.312  12.977   9.582  0.00  0.00     0.253 C 
HETATM    2  O   UNK N   1      33.589  11.989   9.676  0.00  0.00    -0.267 OA
HETATM    3  N   UNK N   1      34.414  13.623   8.383  0.00  0.00    -0.345 N 
HETATM    4  C   UNK N   1      33.476  13.346   7.328  0.00  0.00     0.156 C 
HETATM    5  C   UNK N   1      32.649  14.629   7.104  0.00  0.00     0.293 C 
HETATM    6  N   UNK N   1      33.338  15.853   7.582  0.00  0.00     0.105 N 
HETATM    7  C   UNK N   1      34.776  15.778   7.299  0.00  0.00     0.293 C 
HETATM    8  C   UNK N   1      35.389  14.677   8.152  0.00  0.00     0.156 C 
ENDROOT
BRANCH   6   9
HETATM    9  C   UNK N   1      32.712  17.069   7.024  0.00  0.00     0.290 A 
HETATM   10  C   UNK N   1      32.419  16.949   5.530  0.00  0.00    -0.009 A 
HETATM   11  C   UNK N   1      33.330  16.729   4.494  0.00  0.00     0.010 A 
HETATM   12  C   UNK N   1      31.070  17.071   5.263  0.00  0.00    -0.017 A 
HETATM   13  C   UNK N   1      32.841  16.638   3.176  0.00  0.00     0.001 A 
HETATM   14  C   UNK N   1      31.462  16.767   2.916  0.00  0.00     0.001 A 
HETATM   15  C   UNK N   1      30.560  16.986   3.969  0.00  0.00     0.013 A 
HETATM   16  C   UNK N   1      30.376  17.283   6.501  0.00  0.00    -0.017 A 
HETATM   17  C   UNK N   1      31.296  17.290   7.526  0.00  0.00    -0.009 A 
HETATM   18  C   UNK N   1      29.015  17.466   6.735  0.00  0.00     0.013 A 
HETATM   19  C   UNK N   1      30.891  17.496   8.845  0.00  0.00     0.010 A 
HETATM   20  C   UNK N   1      29.527  17.681   9.112  0.00  0.00     0.001 A 
HETATM   21  C   UNK N   1      28.591  17.664   8.060  0.00  0.00     0.001 A 
ENDBRANCH   6   9
BRANCH   1  22
HETATM   22  C   UNK N   1      35.007  13.464  10.798  0.00  0.00     0.033 A 
HETATM   23  C   UNK N   1      35.447  12.558  11.785  0.00  0.00     0.030 A 
HETATM   24  C   UNK N   1      36.045  13.082  12.928  0.00  0.00    -0.007 A 
HETATM   25  C   UNK N   1      36.167  14.424  13.129  0.00  0.00     0.042 A 
HETATM   26  C   UNK N   1      36.597  12.446  14.011  0.00  0.00     0.030 A 
HETATM   27  C   UNK N   1      35.716  15.352  12.204  0.00  0.00     0.031 A 
HETATM   28  N   UNK N   1      36.767  14.683  14.297  0.00  0.00    -0.365 N 
HETATM   29  C   UNK N   1      35.138  14.860  11.028  0.00  0.00     0.019 A 
HETATM   30  C   UNK N   1      37.040  13.473  14.846  0.00  0.00     0.089 A 
HETATM   31  H   UNK N   1      36.970  15.568  14.678  0.00  0.00     0.165 HD
ENDBRANCH   1  22
TORSDOF 2
ENDMDL
MODEL 3
REMARK VINA RESULT:      -8.7     14.369     17.061
REMARK  2 active torsions:
REMARK  status: ('A' for Active; 'I' for Inactive)
REMARK    1  A    between atoms: C_2  and  C_10 
REMARK       I    between atoms: C_10  and  N_12 
REMARK    2  A    between atoms: N_15  and  C_18 
ROOT
HETATM    1  C   UNK N   1      27.791  24.101  -3.599  0.00  0.00     0.253 C 
HETATM    2  O   UNK N   1      27.098  24.011  -2.589  0.00  0.00    -0.267 OA
HETATM    3  N   UNK N   1      29.111  23.755  -3.541  0.00  0.00    -0.345 N 
HETATM    4  C   UNK N   1      29.618  23.018  -2.415  0.00  0.00     0.156 C 
HETATM    5  C   UNK N   1      30.044  21.629  -2.932  0.00  0.00     0.293 C 
HETATM    6  N   UNK N   1      30.323  21.614  -4.389  0.00  0.00     0.105 N 
HETATM    7  C   UNK N   1      30.996  22.851  -4.798  0.00  0.00     0.293 C 
HETATM    8  C   UNK N   1      30.028  24.014  -4.640  0.00  0.00     0.156 C 
ENDROOT
BRANCH   6   9
HETATM    9  C   UNK N   1      31.075  20.403  -4.775  0.00  0.00     0.290 A 
HETATM   10  C   UNK N   1      30.966  20.092  -6.267  0.00  0.00    -0.009 A 
HETATM   11  C   UNK N   1      29.809  19.823  -7.003  0.00  0.00     0.010 A 
HETATM   12  C   UNK N   1      32.200  20.113  -6.884  0.00  0.00    -0.017 A 
HETATM   13  C   UNK N   1      29.932  19.573  -8.383  0.00  0.00     0.001 A 
HETATM   14  C   UNK N   1      31.198  19.594  -9.002  0.00  0.00     0.001 A 
HETATM   15  C   UNK N   1      32.350  19.868  -8.248  0.00  0.00     0.013 A 
HETATM   16  C   UNK N   1      33.198  20.418  -5.901  0.00  0.00    -0.017 A 
HETATM   17  C   UNK N   1      32.580  20.584  -4.682  0.00  0.00    -0.009 A 
HETATM   18  C   UNK N   1      34.579  20.541  -6.046  0.00  0.00     0.013 A 
HETATM   19  C   UNK N   1      33.325  20.873  -3.538  0.00  0.00     0.010 A 
HETATM   20  C   UNK N   1      34.716  21.006  -3.654  0.00  0.00     0.001 A 
HETATM   21  C   UNK N   1      35.341  20.843  -4.905  0.00  0.00     0.001 A 
ENDBRANCH   6   9
BRANCH   1  22
HETATM   22  C   UNK N   1      27.147  24.534  -4.863  0.00  0.00     0.033 A 
HETATM   23  C   UNK N   1      26.768  23.587  -5.836  0.00  0.00     0.030 A 
HETATM   24  C   UNK N   1      26.217  24.061  -7.024  0.00  0.00    -0.007 A 
HETATM   25  C   UNK N   1      26.084  25.393  -7.278  0.00  0.00     0.042 A 
HETATM   26  C   UNK N   1      25.727  23.379  -8.109  0.00  0.00     0.030 A 
HETATM   27  C   UNK N   1      26.476  26.361  -6.366  0.00  0.00     0.031 A 
HETATM   28  N   UNK N   1      25.535  25.601  -8.481  0.00  0.00    -0.365 N 
HETATM   29  C   UNK N   1      27.005  25.920  -5.148  0.00  0.00     0.019 A 
HETATM   30  C   UNK N   1      25.308  24.370  -8.999  0.00  0.00     0.089 A 
HETATM   31  H   UNK N   1      25.338  26.469  -8.902  0.00  0.00     0.165 HD
ENDBRANCH   1  22
TORSDOF 2
ENDMDL
MODEL 4
REMARK VINA RESULT:      -8.7     12.545     16.973
REMARK  2 active torsions:
REMARK  status: ('A' for Active; 'I' for Inactive)
REMARK    1  A    between atoms: C_2  and  C_10 
REMARK       I    between atoms: C_10  and  N_12 
REMARK    2  A    between atoms: N_15  and  C_18 
ROOT
HETATM    1  C   UNK N   1      37.137  12.985  10.899  0.00  0.00     0.253 C 
HETATM    2  O   UNK N   1      38.358  13.110  10.934  0.00  0.00    -0.267 OA
HETATM    3  N   UNK N   1      36.576  11.782  11.223  0.00  0.00    -0.345 N 
HETATM    4  C   UNK N   1      37.360  10.770  11.878  0.00  0.00     0.156 C 
HETATM    5  C   UNK N   1      36.773  10.582  13.293  0.00  0.00     0.293 C 
HETATM    6  N   UNK N   1      35.362  11.028  13.398  0.00  0.00     0.105 N 
HETATM    7  C   UNK N   1      34.620  10.683  12.180  0.00  0.00     0.293 C 
HETATM    8  C   UNK N   1      35.162  11.508  11.023  0.00  0.00     0.156 C 
ENDROOT
BRANCH   6   9
HETATM    9  C   UNK N   1      34.726  10.498  14.621  0.00  0.00     0.290 A 
HETATM   10  C   UNK N   1      35.457   9.282  15.187  0.00  0.00    -0.009 A 
HETATM   11  C   UNK N   1      35.687   8.054  14.561  0.00  0.00     0.010 A 
HETATM   12  C   UNK N   1      35.924   9.516  16.465  0.00  0.00    -0.017 A 
HETATM   13  C   UNK N   1      36.400   7.064  15.264  0.00  0.00     0.001 A 
HETATM   14  C   UNK N   1      36.869   7.313  16.569  0.00  0.00     0.001 A 
HETATM   15  C   UNK N   1      36.632   8.554  17.182  0.00  0.00     0.013 A 
HETATM   16  C   UNK N   1      35.554  10.847  16.850  0.00  0.00    -0.017 A 
HETATM   17  C   UNK N   1      34.862  11.430  15.812  0.00  0.00    -0.009 A 
HETATM   18  C   UNK N   1      35.797  11.525  18.043  0.00  0.00     0.013 A 
HETATM   19  C   UNK N   1      34.366  12.730  15.927  0.00  0.00     0.010 A 
HETATM   20  C   UNK N   1      34.596  13.437  17.115  0.00  0.00     0.001 A 
HETATM   21  C   UNK N   1      35.312  12.838  18.169  0.00  0.00     0.001 A 
ENDBRANCH   6   9
BRANCH   1  22
HETATM   22  C   UNK N   1      36.313  14.169  10.557  0.00  0.00     0.033 A 
HETATM   23  C   UNK N   1      35.897  14.396   9.229  0.00  0.00     0.030 A 
HETATM   24  C   UNK N   1      35.171  15.554   8.965  0.00  0.00    -0.007 A 
HETATM   25  C   UNK N   1      34.901  16.475   9.932  0.00  0.00     0.042 A 
HETATM   26  C   UNK N   1      34.610  16.002   7.795  0.00  0.00     0.030 A 
HETATM   27  C   UNK N   1      35.320  16.312  11.243  0.00  0.00     0.031 A 
HETATM   28  N   UNK N   1      34.197  17.500   9.437  0.00  0.00    -0.365 N 
HETATM   29  C   UNK N   1      36.026  15.144  11.552  0.00  0.00     0.019 A 
HETATM   30  C   UNK N   1      34.009  17.218   8.124  0.00  0.00     0.089 A 
HETATM   31  H   UNK N   1      33.880  18.294   9.926  0.00  0.00     0.165 HD
ENDBRANCH   1  22
TORSDOF 2
ENDMDL
MODEL 5
REMARK VINA RESULT:      -8.7      6.508      8.202
REMARK  2 active torsions:
REMARK  status: ('A' for Active; 'I' for Inactive)
REMARK    1  A    between atoms: C_2  and  C_10 
REMARK       I    between atoms: C_10  and  N_12 
REMARK    2  A    between atoms: N_15  and  C_18 
ROOT
HETATM    1  C   UNK N   1      28.340  13.660   2.561  0.00  0.00     0.253 C 
HETATM    2  O   UNK N   1      29.160  13.206   1.768  0.00  0.00    -0.267 OA
HETATM    3  N   UNK N   1      28.752  14.051   3.803  0.00  0.00    -0.345 N 
HETATM    4  C   UNK N   1      30.154  14.214   4.084  0.00  0.00     0.156 C 
HETATM    5  C   UNK N   1      30.396  15.715   4.346  0.00  0.00     0.293 C 
HETATM    6  N   UNK N   1      29.167  16.435   4.760  0.00  0.00     0.105 N 
HETATM    7  C   UNK N   1      28.351  15.598   5.647  0.00  0.00     0.293 C 
HETATM    8  C   UNK N   1      27.813  14.418   4.851  0.00  0.00     0.156 C 
ENDROOT
BRANCH   6   9
HETATM    9  C   UNK N   1      29.493  17.746   5.358  0.00  0.00     0.290 A 
HETATM   10  C   UNK N   1      28.380  18.774   5.167  0.00  0.00    -0.009 A 
HETATM   11  C   UNK N   1      27.855  19.255   3.965  0.00  0.00     0.010 A 
HETATM   12  C   UNK N   1      27.882  19.218   6.377  0.00  0.00    -0.017 A 
HETATM   13  C   UNK N   1      26.813  20.201   4.016  0.00  0.00     0.001 A 
HETATM   14  C   UNK N   1      26.315  20.649   5.256  0.00  0.00     0.001 A 
HETATM   15  C   UNK N   1      26.852  20.153   6.455  0.00  0.00     0.013 A 
HETATM   16  C   UNK N   1      28.594  18.560   7.433  0.00  0.00    -0.017 A 
HETATM   17  C   UNK N   1      29.527  17.714   6.876  0.00  0.00    -0.009 A 
HETATM   18  C   UNK N   1      28.450  18.687   8.813  0.00  0.00     0.013 A 
HETATM   19  C   UNK N   1      30.376  16.956   7.685  0.00  0.00     0.010 A 
HETATM   20  C   UNK N   1      30.253  17.062   9.077  0.00  0.00     0.001 A 
HETATM   21  C   UNK N   1      29.291  17.923   9.640  0.00  0.00     0.001 A 
ENDBRANCH   6   9
BRANCH   1  22
HETATM   22  C   UNK N   1      26.934  13.817   2.115  0.00  0.00     0.033 A 
HETATM   23  C   UNK N   1      26.139  12.686   1.837  0.00  0.00     0.030 A 
HETATM   24  C   UNK N   1      24.845  12.901   1.370  0.00  0.00    -0.007 A 
HETATM   25  C   UNK N   1      24.360  14.152   1.136  0.00  0.00     0.042 A 
HETATM   26  C   UNK N   1      23.851  12.005   1.066  0.00  0.00     0.030 A 
HETATM   27  C   UNK N   1      25.117  15.291   1.361  0.00  0.00     0.031 A 
HETATM   28  N   UNK N   1      23.099  14.104   0.689  0.00  0.00    -0.365 N 
HETATM   29  C   UNK N   1      26.412  15.114   1.860  0.00  0.00     0.019 A 
HETATM   30  C   UNK N   1      22.775  12.788   0.645  0.00  0.00     0.089 A 
HETATM   31  H   UNK N   1      22.526  14.865   0.443  0.00  0.00     0.165 HD
ENDBRANCH   1  22
TORSDOF 2
ENDMDL
MODEL 6
REMARK VINA RESULT:      -8.7      3.711      7.632
REMARK  2 active torsions:
REMARK  status: ('A' for Active; 'I' for Inactive)
REMARK    1  A    between atoms: C_2  and  C_10 
REMARK       I    between atoms: C_10  and  N_12 
REMARK    2  A    between atoms: N_15  and  C_18 
ROOT
HETATM    1  C   UNK N   1      22.570  12.838   2.194  0.00  0.00     0.253 C 
HETATM    2  O   UNK N   1      23.561  12.750   1.474  0.00  0.00    -0.267 OA
HETATM    3  N   UNK N   1      22.636  12.394   3.485  0.00  0.00    -0.345 N 
HETATM    4  C   UNK N   1      23.910  12.105   4.088  0.00  0.00     0.156 C 
HETATM    5  C   UNK N   1      24.124  13.135   5.216  0.00  0.00     0.293 C 
HETATM    6  N   UNK N   1      22.856  13.726   5.709  0.00  0.00     0.105 N 
HETATM    7  C   UNK N   1      21.796  12.713   5.753  0.00  0.00     0.293 C 
HETATM    8  C   UNK N   1      21.457  12.293   4.330  0.00  0.00     0.156 C 
ENDROOT
BRANCH   6   9
HETATM    9  C   UNK N   1      23.052  14.401   7.009  0.00  0.00     0.290 A 
HETATM   10  C   UNK N   1      22.013  15.490   7.269  0.00  0.00    -0.009 A 
HETATM   11  C   UNK N   1      21.768  16.638   6.511  0.00  0.00     0.010 A 
HETATM   12  C   UNK N   1      21.266  15.223   8.399  0.00  0.00    -0.017 A 
HETATM   13  C   UNK N   1      20.746  17.513   6.926  0.00  0.00     0.001 A 
HETATM   14  C   UNK N   1      19.992  17.232   8.082  0.00  0.00     0.001 A 
HETATM   15  C   UNK N   1      20.250  16.073   8.832  0.00  0.00     0.013 A 
HETATM   16  C   UNK N   1      21.726  13.991   8.970  0.00  0.00    -0.017 A 
HETATM   17  C   UNK N   1      22.752  13.501   8.195  0.00  0.00    -0.009 A 
HETATM   18  C   UNK N   1      21.284  13.323  10.110  0.00  0.00     0.013 A 
HETATM   19  C   UNK N   1      23.398  12.312   8.536  0.00  0.00     0.010 A 
HETATM   20  C   UNK N   1      22.974  11.616   9.676  0.00  0.00     0.001 A 
HETATM   21  C   UNK N   1      21.918  12.119  10.460  0.00  0.00     0.001 A 
ENDBRANCH   6   9
BRANCH   1  22
HETATM   22  C   UNK N   1      21.350  13.478   1.645  0.00  0.00     0.033 A 
HETATM   23  C   UNK N   1      20.274  12.694   1.182  0.00  0.00     0.030 A 
HETATM   24  C   UNK N   1      19.180  13.354   0.629  0.00  0.00    -0.007 A 
HETATM   25  C   UNK N   1      19.149  14.708   0.487  0.00  0.00     0.042 A 
HETATM   26  C   UNK N   1      17.995  12.857   0.146  0.00  0.00     0.030 A 
HETATM   27  C   UNK N   1      20.198  15.517   0.895  0.00  0.00     0.031 A 
HETATM   28  N   UNK N   1      18.001  15.108  -0.072  0.00  0.00    -0.365 N 
HETATM   29  C   UNK N   1      21.302  14.890   1.484  0.00  0.00     0.019 A 
HETATM   30  C   UNK N   1      17.281  13.978  -0.282  0.00  0.00     0.089 A 
HETATM   31  H   UNK N   1      17.733  16.031  -0.286  0.00  0.00     0.165 HD
ENDBRANCH   1  22
TORSDOF 2
ENDMDL
MODEL 7
REMARK VINA RESULT:      -8.7      2.292      3.657
REMARK  2 active torsions:
REMARK  status: ('A' for Active; 'I' for Inactive)
REMARK    1  A    between atoms: C_2  and  C_10 
REMARK       I    between atoms: C_10  and  N_12 
REMARK    2  A    between atoms: N_15  and  C_18 
ROOT
HETATM    1  C   UNK N   1      20.644  14.281   7.817  0.00  0.00     0.253 C 
HETATM    2  O   UNK N   1      19.822  14.986   8.397  0.00  0.00    -0.267 OA
HETATM    3  N   UNK N   1      20.516  14.068   6.474  0.00  0.00    -0.345 N 
HETATM    4  C   UNK N   1      19.624  14.882   5.692  0.00  0.00     0.156 C 
HETATM    5  C   UNK N   1      20.493  15.711   4.724  0.00  0.00     0.293 C 
HETATM    6  N   UNK N   1      21.825  15.106   4.479  0.00  0.00     0.105 N 
HETATM    7  C   UNK N   1      21.721  13.645   4.395  0.00  0.00     0.293 C 
HETATM    8  C   UNK N   1      21.336  13.100   5.763  0.00  0.00     0.156 C 
ENDROOT
BRANCH   6   9
HETATM    9  C   UNK N   1      22.469  15.699   3.288  0.00  0.00     0.290 A 
HETATM   10  C   UNK N   1      23.951  15.995   3.507  0.00  0.00    -0.009 A 
HETATM   11  C   UNK N   1      24.524  16.844   4.457  0.00  0.00     0.010 A 
HETATM   12  C   UNK N   1      24.747  15.290   2.626  0.00  0.00    -0.017 A 
HETATM   13  C   UNK N   1      25.926  16.964   4.494  0.00  0.00     0.001 A 
HETATM   14  C   UNK N   1      26.729  16.242   3.589  0.00  0.00     0.001 A 
HETATM   15  C   UNK N   1      26.137  15.391   2.641  0.00  0.00     0.013 A 
HETATM   16  C   UNK N   1      23.903  14.503   1.776  0.00  0.00    -0.017 A 
HETATM   17  C   UNK N   1      22.591  14.722   2.132  0.00  0.00    -0.009 A 
HETATM   18  C   UNK N   1      24.247  13.639   0.738  0.00  0.00     0.013 A 
HETATM   19  C   UNK N   1      21.551  14.089   1.449  0.00  0.00     0.010 A 
HETATM   20  C   UNK N   1      21.867  13.213   0.402  0.00  0.00     0.001 A 
HETATM   21  C   UNK N   1      23.212  12.986   0.049  0.00  0.00     0.001 A 
ENDBRANCH   6   9
BRANCH   1  22
HETATM   22  C   UNK N   1      21.781  13.732   8.596  0.00  0.00     0.033 A 
HETATM   23  C   UNK N   1      21.569  13.156   9.865  0.00  0.00     0.030 A 
HETATM   24  C   UNK N   1      22.684  12.707  10.568  0.00  0.00    -0.007 A 
HETATM   25  C   UNK N   1      23.950  12.854  10.086  0.00  0.00     0.042 A 
HETATM   26  C   UNK N   1      22.771  12.076  11.784  0.00  0.00     0.030 A 
HETATM   27  C   UNK N   1      24.208  13.446   8.860  0.00  0.00     0.031 A 
HETATM   28  N   UNK N   1      24.851  12.351  10.939  0.00  0.00    -0.365 N 
HETATM   29  C   UNK N   1      23.109  13.881   8.111  0.00  0.00     0.019 A 
HETATM   30  C   UNK N   1      24.137  11.867  11.985  0.00  0.00     0.089 A 
HETATM   31  H   UNK N   1      25.829  12.336  10.829  0.00  0.00     0.165 HD
ENDBRANCH   1  22
TORSDOF 2
ENDMDL
MODEL 8
REMARK VINA RESULT:      -8.5      3.589      5.625
REMARK  2 active torsions:
REMARK  status: ('A' for Active; 'I' for Inactive)
REMARK    1  A    between atoms: C_2  and  C_10 
REMARK       I    between atoms: C_10  and  N_12 
REMARK    2  A    between atoms: N_15  and  C_18 
ROOT
HETATM    1  C   UNK N   1      21.317  16.864   6.015  0.00  0.00     0.253 C 
HETATM    2  O   UNK N   1      21.804  17.969   6.241  0.00  0.00    -0.267 OA
HETATM    3  N   UNK N   1      20.505  16.698   4.929  0.00  0.00    -0.345 N 
HETATM    4  C   UNK N   1      20.454  17.704   3.901  0.00  0.00     0.156 C 
HETATM    5  C   UNK N   1      21.046  17.079   2.621  0.00  0.00     0.293 C 
HETATM    6  N   UNK N   1      20.992  15.596   2.622  0.00  0.00     0.105 N 
HETATM    7  C   UNK N   1      19.741  15.126   3.227  0.00  0.00     0.293 C 
HETATM    8  C   UNK N   1      19.748  15.476   4.708  0.00  0.00     0.156 C 
ENDROOT
BRANCH   6   9
HETATM    9  C   UNK N   1      21.206  15.054   1.265  0.00  0.00     0.290 A 
HETATM   10  C   UNK N   1      22.429  14.142   1.181  0.00  0.00    -0.009 A 
HETATM   11  C   UNK N   1      23.760  14.468   1.453  0.00  0.00     0.010 A 
HETATM   12  C   UNK N   1      22.085  12.861   0.797  0.00  0.00    -0.017 A 
HETATM   13  C   UNK N   1      24.738  13.463   1.323  0.00  0.00     0.001 A 
HETATM   14  C   UNK N   1      24.376  12.160   0.927  0.00  0.00     0.001 A 
HETATM   15  C   UNK N   1      23.033  11.849   0.661  0.00  0.00     0.013 A 
HETATM   16  C   UNK N   1      20.666  12.811   0.592  0.00  0.00    -0.017 A 
HETATM   17  C   UNK N   1      20.139  14.057   0.849  0.00  0.00    -0.009 A 
HETATM   18  C   UNK N   1      19.864  11.743   0.196  0.00  0.00     0.013 A 
HETATM   19  C   UNK N   1      18.771  14.295   0.709  0.00  0.00     0.010 A 
HETATM   20  C   UNK N   1      17.939  13.239   0.315  0.00  0.00     0.001 A 
HETATM   21  C   UNK N   1      18.484  11.965   0.061  0.00  0.00     0.001 A 
ENDBRANCH   6   9
BRANCH   1  22
HETATM   22  C   UNK N   1      21.678  15.735   6.906  0.00  0.00     0.033 A 
HETATM   23  C   UNK N   1      20.872  15.413   8.017  0.00  0.00     0.030 A 
HETATM   24  C   UNK N   1      21.294  14.376   8.846  0.00  0.00    -0.007 A 
HETATM   25  C   UNK N   1      22.466  13.714   8.636  0.00  0.00     0.042 A 
HETATM   26  C   UNK N   1      20.697  13.827   9.953  0.00  0.00     0.030 A 
HETATM   27  C   UNK N   1      23.307  14.021   7.578  0.00  0.00     0.031 A 
HETATM   28  N   UNK N   1      22.656  12.767   9.562  0.00  0.00    -0.365 N 
HETATM   29  C   UNK N   1      22.900  15.037   6.706  0.00  0.00     0.019 A 
HETATM   30  C   UNK N   1      21.572  12.824  10.375  0.00  0.00     0.089 A 
HETATM   31  H   UNK N   1      23.423  12.154   9.637  0.00  0.00     0.165 HD
ENDBRANCH   1  22
TORSDOF 2
ENDMDL
MODEL 9
REMARK VINA RESULT:      -8.5     15.566     17.877
REMARK  2 active torsions:
REMARK  status: ('A' for Active; 'I' for Inactive)
REMARK    1  A    between atoms: C_2  and  C_10 
REMARK       I    between atoms: C_10  and  N_12 
REMARK    2  A    between atoms: N_15  and  C_18 
ROOT
HETATM    1  C   UNK N   1      25.927  26.076  -7.614  0.00  0.00     0.253 C 
HETATM    2  O   UNK N   1      25.595  26.488  -8.722  0.00  0.00    -0.267 OA
HETATM    3  N   UNK N   1      26.257  24.759  -7.459  0.00  0.00    -0.345 N 
HETATM    4  C   UNK N   1      26.504  23.933  -8.610  0.00  0.00     0.156 C 
HETATM    5  C   UNK N   1      27.995  23.540  -8.580  0.00  0.00     0.293 C 
HETATM    6  N   UNK N   1      28.589  23.630  -7.224  0.00  0.00     0.105 N 
HETATM    7  C   UNK N   1      27.631  23.177  -6.209  0.00  0.00     0.293 C 
HETATM    8  C   UNK N   1      26.475  24.165  -6.149  0.00  0.00     0.156 C 
ENDROOT
BRANCH   6   9
HETATM    9  C   UNK N   1      29.874  22.903  -7.156  0.00  0.00     0.290 A 
HETATM   10  C   UNK N   1      30.319  22.627  -5.721  0.00  0.00    -0.009 A 
HETATM   11  C   UNK N   1      30.590  23.557  -4.714  0.00  0.00     0.010 A 
HETATM   12  C   UNK N   1      30.430  21.273  -5.473  0.00  0.00    -0.017 A 
HETATM   13  C   UNK N   1      30.978  23.084  -3.447  0.00  0.00     0.001 A 
HETATM   14  C   UNK N   1      31.091  21.700  -3.206  0.00  0.00     0.001 A 
HETATM   15  C   UNK N   1      30.813  20.778  -4.228  0.00  0.00     0.013 A 
HETATM   16  C   UNK N   1      30.091  20.560  -6.669  0.00  0.00    -0.017 A 
HETATM   17  C   UNK N   1      29.772  21.471  -7.651  0.00  0.00    -0.009 A 
HETATM   18  C   UNK N   1      30.062  19.187  -6.905  0.00  0.00     0.013 A 
HETATM   19  C   UNK N   1      29.418  21.045  -8.932  0.00  0.00     0.010 A 
HETATM   20  C   UNK N   1      29.379  19.669  -9.199  0.00  0.00     0.001 A 
HETATM   21  C   UNK N   1      29.697  18.742  -8.187  0.00  0.00     0.001 A 
ENDBRANCH   6   9
BRANCH   1  22
HETATM   22  C   UNK N   1      26.010  27.044  -6.493  0.00  0.00     0.033 A 
HETATM   23  C   UNK N   1      27.063  27.980  -6.430  0.00  0.00     0.030 A 
HETATM   24  C   UNK N   1      27.114  28.825  -5.325  0.00  0.00    -0.007 A 
HETATM   25  C   UNK N   1      26.217  28.736  -4.305  0.00  0.00     0.042 A 
HETATM   26  C   UNK N   1      27.985  29.844  -5.028  0.00  0.00     0.030 A 
HETATM   27  C   UNK N   1      25.187  27.808  -4.306  0.00  0.00     0.031 A 
HETATM   28  N   UNK N   1      26.473  29.647  -3.358  0.00  0.00    -0.365 N 
HETATM   29  C   UNK N   1      25.086  26.962  -5.416  0.00  0.00     0.019 A 
HETATM   30  C   UNK N   1      27.556  30.337  -3.794  0.00  0.00     0.089 A 
HETATM   31  H   UNK N   1      25.977  29.788  -2.519  0.00  0.00     0.165 HD
ENDBRANCH   1  22
TORSDOF 2
ENDMDL
