REMARK  2 active torsions:
REMARK  status: ('A' for Active; 'I' for Inactive)
REMARK    1  A    between atoms: C_2  and  C_10 
REMARK       I    between atoms: C_10  and  N_12 
REMARK    2  A    between atoms: N_15  and  C_18 
ROOT
HETATM    1  C   UNK N   1      -1.104  -2.879   0.055  0.00  0.00     0.253 C 
HETATM    2  O   UNK N   1      -1.977  -3.556   0.591  0.00  0.00    -0.267 OA
HETATM    3  N   UNK N   1      -1.421  -1.647  -0.443  0.00  0.00    -0.345 N 
HETATM    4  C   UNK N   1      -2.667  -1.021  -0.090  0.00  0.00     0.156 C 
HETATM    5  C   UNK N   1      -2.329   0.228   0.750  0.00  0.00     0.293 C 
HETATM    6  N   UNK N   1      -0.950   0.724   0.520  0.00  0.00     0.105 N 
HETATM    7  C   UNK N   1      -0.586   0.600  -0.896  0.00  0.00     0.293 C 
HETATM    8  C   UNK N   1      -0.490  -0.876  -1.252  0.00  0.00     0.156 C 
ENDROOT
BRANCH   6   9
HETATM    9  C   UNK N   1      -0.787   2.101   1.030  0.00  0.00     0.290 A 
HETATM   10  C   UNK N   1       0.529   2.740   0.590  0.00  0.00    -0.009 A 
HETATM   11  C   UNK N   1       1.827   2.298   0.858  0.00  0.00     0.010 A 
HETATM   12  C   UNK N   1       0.317   3.875  -0.167  0.00  0.00    -0.017 A 
HETATM   13  C   UNK N   1       2.909   3.036   0.342  0.00  0.00     0.001 A 
HETATM   14  C   UNK N   1       2.681   4.195  -0.427  0.00  0.00     0.001 A 
HETATM   15  C   UNK N   1       1.370   4.624  -0.689  0.00  0.00     0.013 A 
HETATM   16  C   UNK N   1      -1.096   4.088  -0.286  0.00  0.00    -0.017 A 
HETATM   17  C   UNK N   1      -1.752   3.087   0.395  0.00  0.00    -0.009 A 
HETATM   18  C   UNK N   1      -1.788   5.101  -0.947  0.00  0.00     0.013 A 
HETATM   19  C   UNK N   1      -3.146   3.061   0.456  0.00  0.00     0.010 A 
HETATM   20  C   UNK N   1      -3.869   4.066  -0.201  0.00  0.00     0.001 A 
HETATM   21  C   UNK N   1      -3.192   5.082  -0.903  0.00  0.00     0.001 A 
ENDBRANCH   6   9
BRANCH   1  22
HETATM   22  C   UNK N   1       0.281  -3.408   0.020  0.00  0.00     0.033 A 
HETATM   23  C   UNK N   1       0.521  -4.796   0.082  0.00  0.00     0.030 A 
HETATM   24  C   UNK N   1       1.845  -5.226   0.099  0.00  0.00    -0.007 A 
HETATM   25  C   UNK N   1       2.889  -4.351   0.105  0.00  0.00     0.042 A 
HETATM   26  C   UNK N   1       2.365  -6.496   0.111  0.00  0.00     0.030 A 
HETATM   27  C   UNK N   1       2.701  -2.978   0.081  0.00  0.00     0.031 A 
HETATM   28  N   UNK N   1       4.060  -4.999   0.127  0.00  0.00    -0.365 N 
HETATM   29  C   UNK N   1       1.383  -2.510   0.032  0.00  0.00     0.019 A 
HETATM   30  C   UNK N   1       3.750  -6.319   0.127  0.00  0.00     0.089 A 
HETATM   31  H   UNK N   1       4.960  -4.600   0.140  0.00  0.00     0.165 HD
ENDBRANCH   1  22
TORSDOF 2
