MODEL 1
REMARK VINA RESULT:      -6.8      0.000      0.000
REMARK  4 active torsions:
REMARK  status: ('A' for Active; 'I' for Inactive)
REMARK    1  A    between atoms: N_3  and  C_4 
REMARK    2  A    between atoms: C_4  and  C_5 
REMARK    3  A    between atoms: C_8  and  N_11 
REMARK       I    between atoms: N_11  and  C_12 
REMARK       I    between atoms: C_12  and  N_14 
REMARK    4  A    between atoms: N_14  and  C_15 
ROOT
HETATM    1  C   UNK N   1      35.434  11.625  17.774  0.00  0.00     0.007 A 
HETATM    2  C   UNK N   1      36.108  11.006  16.708  0.00  0.00     0.017 A 
HETATM    3  C   UNK N   1      36.566  11.765  15.621  0.00  0.00     0.030 A 
HETATM    4  C   UNK N   1      36.354  13.150  15.590  0.00  0.00     0.036 A 
HETATM    5  C   UNK N   1      35.679  13.756  16.661  0.00  0.00     0.030 A 
HETATM    6  C   UNK N   1      35.224  13.006  17.739  0.00  0.00     0.017 A 
ENDROOT
BRANCH   4   7
HETATM    7  N   UNK N   1      36.827  13.913  14.475  0.00  0.00    -0.309 N 
HETATM    8  C   UNK N   1      36.106  14.152  13.343  0.00  0.00     0.325 C 
HETATM    9  O   UNK N   1      34.974  13.704  13.228  0.00  0.00    -0.247 OA
HETATM   10  N   UNK N   1      36.652  14.894  12.338  0.00  0.00    -0.309 N 
HETATM   11  H   UNK N   1      37.565  15.237  12.468  0.00  0.00     0.170 HD
HETATM   12  H   UNK N   1      37.735  14.291  14.530  0.00  0.00     0.170 HD
BRANCH  10  13
HETATM   13  C   UNK N   1      35.991  15.208  11.109  0.00  0.00     0.036 A 
HETATM   14  C   UNK N   1      35.359  16.449  10.968  0.00  0.00     0.031 A 
HETATM   15  C   UNK N   1      34.705  16.776   9.772  0.00  0.00     0.026 A 
HETATM   16  C   UNK N   1      34.682  15.863   8.711  0.00  0.00     0.034 A 
HETATM   17  C   UNK N   1      35.310  14.627   8.843  0.00  0.00     0.026 A 
HETATM   18 Cl   UNK N   1      33.869  16.264   7.214  0.00  0.00    -0.084 Cl
HETATM   19  C   UNK N   1      35.958  14.302  10.033  0.00  0.00     0.031 A 
ENDBRANCH  10  13
ENDBRANCH   4   7
BRANCH   1  20
HETATM   20  C   UNK N   1      34.945  10.837  18.926  0.00  0.00     0.102 C 
HETATM   21  N   UNK N   1      34.411   9.685  18.742  0.00  0.00    -0.385 N 
HETATM   22  H   UNK N   1      34.087   9.163  19.512  0.00  0.00     0.157 HD
ATOM     23  HN  UNK N   1      34.322   9.308  17.798  1.00  0.00     0.157 HD
BRANCH  20  24
HETATM   24  N   UNK N   1      35.062  11.345  20.238  0.00  0.00    -0.385 N 
HETATM   25  H   UNK N   1      34.325  11.226  20.880  0.00  0.00     0.157 HD
HETATM   26  H   UNK N   1      35.881  11.819  20.511  0.00  0.00     0.157 HD
ENDBRANCH  20  24
ENDBRANCH   1  20
TORSDOF 4
ENDMDL
MODEL 2
REMARK VINA RESULT:      -6.8      3.606      8.603
REMARK  4 active torsions:
REMARK  status: ('A' for Active; 'I' for Inactive)
REMARK    1  A    between atoms: N_3  and  C_4 
REMARK    2  A    between atoms: C_4  and  C_5 
REMARK    3  A    between atoms: C_8  and  N_11 
REMARK       I    between atoms: N_11  and  C_12 
REMARK       I    between atoms: C_12  and  N_14 
REMARK    4  A    between atoms: N_14  and  C_15 
ROOT
HETATM    1  C   UNK N   1      34.729  16.001   8.648  0.00  0.00     0.007 A 
HETATM    2  C   UNK N   1      35.395  14.768   8.749  0.00  0.00     0.017 A 
HETATM    3  C   UNK N   1      36.036  14.404   9.942  0.00  0.00     0.030 A 
HETATM    4  C   UNK N   1      36.018  15.269  11.044  0.00  0.00     0.036 A 
HETATM    5  C   UNK N   1      35.349  16.497  10.930  0.00  0.00     0.030 A 
HETATM    6  C   UNK N   1      34.712  16.861   9.749  0.00  0.00     0.017 A 
ENDROOT
BRANCH   4   7
HETATM    7  N   UNK N   1      36.676  14.885  12.256  0.00  0.00    -0.309 N 
HETATM    8  C   UNK N   1      36.115  14.108  13.226  0.00  0.00     0.325 C 
HETATM    9  O   UNK N   1      34.975  13.688  13.095  0.00  0.00    -0.247 OA
HETATM   10  N   UNK N   1      36.832  13.802  14.344  0.00  0.00    -0.309 N 
HETATM   11  H   UNK N   1      37.747  14.158  14.413  0.00  0.00     0.170 HD
HETATM   12  H   UNK N   1      37.597  15.204  12.398  0.00  0.00     0.170 HD
BRANCH  10  13
HETATM   13  C   UNK N   1      36.348  12.997  15.424  0.00  0.00     0.036 A 
HETATM   14  C   UNK N   1      36.631  11.626  15.438  0.00  0.00     0.031 A 
HETATM   15  C   UNK N   1      36.166  10.821  16.487  0.00  0.00     0.026 A 
HETATM   16  C   UNK N   1      35.416  11.384  17.526  0.00  0.00     0.034 A 
HETATM   17  C   UNK N   1      35.131  12.747  17.519  0.00  0.00     0.026 A 
HETATM   18 Cl   UNK N   1      34.832  10.385  18.840  0.00  0.00    -0.084 Cl
HETATM   19  C   UNK N   1      35.594  13.546  16.476  0.00  0.00     0.031 A 
ENDBRANCH  10  13
ENDBRANCH   4   7
BRANCH   1  20
HETATM   20  C   UNK N   1      34.048  16.398   7.396  0.00  0.00     0.102 C 
HETATM   21  N   UNK N   1      33.567  15.505   6.610  0.00  0.00    -0.385 N 
HETATM   22  H   UNK N   1      33.114  15.773   5.777  0.00  0.00     0.157 HD
ATOM     23  HN  UNK N   1      33.653  14.516   6.847  1.00  0.00     0.157 HD
BRANCH  20  24
HETATM   24  N   UNK N   1      33.921  17.762   7.055  0.00  0.00    -0.385 N 
HETATM   25  H   UNK N   1      33.367  18.028   6.286  0.00  0.00     0.157 HD
HETATM   26  H   UNK N   1      34.387  18.448   7.587  0.00  0.00     0.157 HD
ENDBRANCH  20  24
ENDBRANCH   1  20
TORSDOF 4
ENDMDL
MODEL 3
REMARK VINA RESULT:      -6.3     14.715     17.777
REMARK  4 active torsions:
REMARK  status: ('A' for Active; 'I' for Inactive)
REMARK    1  A    between atoms: N_3  and  C_4 
REMARK    2  A    between atoms: C_4  and  C_5 
REMARK    3  A    between atoms: C_8  and  N_11 
REMARK       I    between atoms: N_11  and  C_12 
REMARK       I    between atoms: C_12  and  N_14 
REMARK    4  A    between atoms: N_14  and  C_15 
ROOT
HETATM    1  C   UNK N   1      20.297  17.523   3.594  0.00  0.00     0.007 A 
HETATM    2  C   UNK N   1      19.432  16.583   4.179  0.00  0.00     0.017 A 
HETATM    3  C   UNK N   1      19.949  15.450   4.825  0.00  0.00     0.030 A 
HETATM    4  C   UNK N   1      21.334  15.247   4.891  0.00  0.00     0.036 A 
HETATM    5  C   UNK N   1      22.186  16.194   4.302  0.00  0.00     0.030 A 
HETATM    6  C   UNK N   1      21.678  17.317   3.662  0.00  0.00     0.017 A 
ENDROOT
BRANCH   4   7
HETATM    7  N   UNK N   1      21.848  14.086   5.553  0.00  0.00    -0.309 N 
HETATM    8  C   UNK N   1      22.015  13.979   6.902  0.00  0.00     0.325 C 
HETATM    9  O   UNK N   1      21.719  14.911   7.635  0.00  0.00    -0.247 OA
HETATM   10  N   UNK N   1      22.514  12.825   7.430  0.00  0.00    -0.309 N 
HETATM   11  H   UNK N   1      22.741  12.098   6.808  0.00  0.00     0.170 HD
HETATM   12  H   UNK N   1      22.098  13.314   4.996  0.00  0.00     0.170 HD
BRANCH  10  13
HETATM   13  C   UNK N   1      22.732  12.599   8.826  0.00  0.00     0.036 A 
HETATM   14  C   UNK N   1      21.630  12.478   9.682  0.00  0.00     0.031 A 
HETATM   15  C   UNK N   1      21.821  12.256  11.052  0.00  0.00     0.026 A 
HETATM   16  C   UNK N   1      23.116  12.155  11.574  0.00  0.00     0.034 A 
HETATM   17  C   UNK N   1      24.218  12.275  10.730  0.00  0.00     0.026 A 
HETATM   18 Cl   UNK N   1      23.364  11.879  13.284  0.00  0.00    -0.084 Cl
HETATM   19  C   UNK N   1      24.026  12.495   9.367  0.00  0.00     0.031 A 
ENDBRANCH  10  13
ENDBRANCH   4   7
BRANCH   1  20
HETATM   20  C   UNK N   1      19.766  18.722   2.910  0.00  0.00     0.102 C 
HETATM   21  N   UNK N   1      18.664  18.660   2.255  0.00  0.00    -0.385 N 
HETATM   22  H   UNK N   1      18.314  19.460   1.801  0.00  0.00     0.157 HD
ATOM     23  HN  UNK N   1      18.149  17.780   2.206  1.00  0.00     0.157 HD
BRANCH  20  24
HETATM   24  N   UNK N   1      20.468  19.947   2.970  0.00  0.00    -0.385 N 
HETATM   25  H   UNK N   1      20.024  20.782   2.697  0.00  0.00     0.157 HD
HETATM   26  H   UNK N   1      21.401  19.964   3.284  0.00  0.00     0.157 HD
ENDBRANCH  20  24
ENDBRANCH   1  20
TORSDOF 4
ENDMDL
MODEL 4
REMARK VINA RESULT:      -6.1      4.785      9.827
REMARK  4 active torsions:
REMARK  status: ('A' for Active; 'I' for Inactive)
REMARK    1  A    between atoms: N_3  and  C_4 
REMARK    2  A    between atoms: C_4  and  C_5 
REMARK    3  A    between atoms: C_8  and  N_11 
REMARK       I    between atoms: N_11  and  C_12 
REMARK       I    between atoms: C_12  and  N_14 
REMARK    4  A    between atoms: N_14  and  C_15 
ROOT
HETATM    1  C   UNK N   1      32.042  17.427   5.802  0.00  0.00     0.007 A 
HETATM    2  C   UNK N   1      33.440  17.565   5.827  0.00  0.00     0.017 A 
HETATM    3  C   UNK N   1      34.142  17.454   7.037  0.00  0.00     0.030 A 
HETATM    4  C   UNK N   1      33.452  17.205   8.231  0.00  0.00     0.036 A 
HETATM    5  C   UNK N   1      32.056  17.070   8.191  0.00  0.00     0.030 A 
HETATM    6  C   UNK N   1      31.358  17.179   6.995  0.00  0.00     0.017 A 
ENDROOT
BRANCH   4   7
HETATM    7  N   UNK N   1      34.181  17.095   9.458  0.00  0.00    -0.309 N 
HETATM    8  C   UNK N   1      34.702  15.932   9.944  0.00  0.00     0.325 C 
HETATM    9  O   UNK N   1      34.563  14.888   9.323  0.00  0.00    -0.247 OA
HETATM   10  N   UNK N   1      35.380  15.938  11.126  0.00  0.00    -0.309 N 
HETATM   11  H   UNK N   1      35.472  16.797  11.597  0.00  0.00     0.170 HD
HETATM   12  H   UNK N   1      34.314  17.914   9.988  0.00  0.00     0.170 HD
BRANCH  10  13
HETATM   13  C   UNK N   1      35.969  14.782  11.731  0.00  0.00     0.036 A 
HETATM   14  C   UNK N   1      35.696  14.497  13.074  0.00  0.00     0.031 A 
HETATM   15  C   UNK N   1      36.263  13.370  13.685  0.00  0.00     0.026 A 
HETATM   16  C   UNK N   1      37.104  12.523  12.955  0.00  0.00     0.034 A 
HETATM   17  C   UNK N   1      37.380  12.800  11.618  0.00  0.00     0.026 A 
HETATM   18 Cl   UNK N   1      37.815  11.113  13.710  0.00  0.00    -0.084 Cl
HETATM   19  C   UNK N   1      36.817  13.920  11.012  0.00  0.00     0.031 A 
ENDBRANCH  10  13
ENDBRANCH   4   7
BRANCH   1  20
HETATM   20  C   UNK N   1      31.289  17.541   4.534  0.00  0.00     0.102 C 
HETATM   21  N   UNK N   1      30.037  17.827   4.548  0.00  0.00    -0.385 N 
HETATM   22  H   UNK N   1      29.539  17.902   3.701  0.00  0.00     0.157 HD
ATOM     23  HN  UNK N   1      29.557  17.976   5.436  1.00  0.00     0.157 HD
BRANCH  20  24
HETATM   24  N   UNK N   1      31.939  17.337   3.297  0.00  0.00    -0.385 N 
HETATM   25  H   UNK N   1      32.351  16.465   3.095  0.00  0.00     0.157 HD
HETATM   26  H   UNK N   1      31.981  18.066   2.637  0.00  0.00     0.157 HD
ENDBRANCH  20  24
ENDBRANCH   1  20
TORSDOF 4
ENDMDL
MODEL 5
REMARK VINA RESULT:      -6.1     13.665     15.223
REMARK  4 active torsions:
REMARK  status: ('A' for Active; 'I' for Inactive)
REMARK    1  A    between atoms: N_3  and  C_4 
REMARK    2  A    between atoms: C_4  and  C_5 
REMARK    3  A    between atoms: C_8  and  N_11 
REMARK       I    between atoms: N_11  and  C_12 
REMARK       I    between atoms: C_12  and  N_14 
REMARK    4  A    between atoms: N_14  and  C_15 
ROOT
HETATM    1  C   UNK N   1      22.690  12.661  10.232  0.00  0.00     0.007 A 
HETATM    2  C   UNK N   1      23.906  13.023   9.629  0.00  0.00     0.017 A 
HETATM    3  C   UNK N   1      23.931  13.490   8.307  0.00  0.00     0.030 A 
HETATM    4  C   UNK N   1      22.740  13.600   7.576  0.00  0.00     0.036 A 
HETATM    5  C   UNK N   1      21.532  13.236   8.191  0.00  0.00     0.030 A 
HETATM    6  C   UNK N   1      21.505  12.772   9.501  0.00  0.00     0.017 A 
ENDROOT
BRANCH   4   7
HETATM    7  N   UNK N   1      22.779  14.079   6.227  0.00  0.00    -0.309 N 
HETATM    8  C   UNK N   1      22.439  15.344   5.848  0.00  0.00     0.325 C 
HETATM    9  O   UNK N   1      22.070  16.158   6.681  0.00  0.00    -0.247 OA
HETATM   10  N   UNK N   1      22.512  15.696   4.533  0.00  0.00    -0.309 N 
HETATM   11  H   UNK N   1      22.814  15.012   3.892  0.00  0.00     0.170 HD
HETATM   12  H   UNK N   1      23.071  13.452   5.527  0.00  0.00     0.170 HD
BRANCH  10  13
HETATM   13  C   UNK N   1      22.182  16.990   4.020  0.00  0.00     0.036 A 
HETATM   14  C   UNK N   1      20.910  17.208   3.477  0.00  0.00     0.031 A 
HETATM   15  C   UNK N   1      20.566  18.468   2.969  0.00  0.00     0.026 A 
HETATM   16  C   UNK N   1      21.493  19.516   3.002  0.00  0.00     0.034 A 
HETATM   17  C   UNK N   1      22.760  19.307   3.540  0.00  0.00     0.026 A 
HETATM   18 Cl   UNK N   1      21.072  21.093   2.369  0.00  0.00    -0.084 Cl
HETATM   19  C   UNK N   1      23.101  18.054   4.045  0.00  0.00     0.031 A 
ENDBRANCH  10  13
ENDBRANCH   4   7
BRANCH   1  20
HETATM   20  C   UNK N   1      22.649  12.167  11.626  0.00  0.00     0.102 C 
HETATM   21  N   UNK N   1      23.709  12.183  12.350  0.00  0.00    -0.385 N 
HETATM   22  H   UNK N   1      23.677  11.853  13.277  0.00  0.00     0.157 HD
ATOM     23  HN  UNK N   1      24.585  12.538  11.965  1.00  0.00     0.157 HD
BRANCH  20  24
HETATM   24  N   UNK N   1      21.444  11.674  12.173  0.00  0.00    -0.385 N 
HETATM   25  H   UNK N   1      21.458  10.893  12.772  0.00  0.00     0.157 HD
HETATM   26  H   UNK N   1      20.589  12.111  11.954  0.00  0.00     0.157 HD
ENDBRANCH  20  24
ENDBRANCH   1  20
TORSDOF 4
ENDMDL
MODEL 6
REMARK VINA RESULT:      -6.0      7.408     10.602
REMARK  4 active torsions:
REMARK  status: ('A' for Active; 'I' for Inactive)
REMARK    1  A    between atoms: N_3  and  C_4 
REMARK    2  A    between atoms: C_4  and  C_5 
REMARK    3  A    between atoms: C_8  and  N_11 
REMARK       I    between atoms: N_11  and  C_12 
REMARK       I    between atoms: C_12  and  N_14 
REMARK    4  A    between atoms: N_14  and  C_15 
ROOT
HETATM    1  C   UNK N   1      33.321  15.933   9.053  0.00  0.00     0.007 A 
HETATM    2  C   UNK N   1      33.347  17.277   8.646  0.00  0.00     0.017 A 
HETATM    3  C   UNK N   1      32.684  17.677   7.476  0.00  0.00     0.030 A 
HETATM    4  C   UNK N   1      31.989  16.738   6.703  0.00  0.00     0.036 A 
HETATM    5  C   UNK N   1      31.971  15.398   7.122  0.00  0.00     0.030 A 
HETATM    6  C   UNK N   1      32.626  14.998   8.280  0.00  0.00     0.017 A 
ENDROOT
BRANCH   4   7
HETATM    7  N   UNK N   1      31.317  17.160   5.512  0.00  0.00    -0.309 N 
HETATM    8  C   UNK N   1      30.012  17.555   5.462  0.00  0.00     0.325 C 
HETATM    9  O   UNK N   1      29.333  17.567   6.478  0.00  0.00    -0.247 OA
HETATM   10  N   UNK N   1      29.469  17.939   4.272  0.00  0.00    -0.309 N 
HETATM   11  H   UNK N   1      30.048  17.916   3.476  0.00  0.00     0.170 HD
HETATM   12  H   UNK N   1      31.831  17.164   4.673  0.00  0.00     0.170 HD
BRANCH  10  13
HETATM   13  C   UNK N   1      28.117  18.372   4.099  0.00  0.00     0.036 A 
HETATM   14  C   UNK N   1      27.816  19.736   4.194  0.00  0.00     0.031 A 
HETATM   15  C   UNK N   1      26.497  20.181   4.028  0.00  0.00     0.026 A 
HETATM   16  C   UNK N   1      25.473  19.263   3.766  0.00  0.00     0.034 A 
HETATM   17  C   UNK N   1      25.765  17.905   3.669  0.00  0.00     0.026 A 
HETATM   18 Cl   UNK N   1      23.824  19.811   3.557  0.00  0.00    -0.084 Cl
HETATM   19  C   UNK N   1      27.076  17.464   3.835  0.00  0.00     0.031 A 
ENDBRANCH  10  13
ENDBRANCH   4   7
BRANCH   1  20
HETATM   20  C   UNK N   1      34.015  15.496  10.283  0.00  0.00     0.102 C 
HETATM   21  N   UNK N   1      34.807  16.298  10.899  0.00  0.00    -0.385 N 
HETATM   22  H   UNK N   1      35.267  16.003  11.718  0.00  0.00     0.157 HD
ATOM     23  HN  UNK N   1      34.959  17.241  10.539  1.00  0.00     0.157 HD
BRANCH  20  24
HETATM   24  N   UNK N   1      33.814  14.194  10.792  0.00  0.00    -0.385 N 
HETATM   25  H   UNK N   1      34.202  13.940  11.661  0.00  0.00     0.157 HD
HETATM   26  H   UNK N   1      33.285  13.541  10.278  0.00  0.00     0.157 HD
ENDBRANCH  20  24
ENDBRANCH   1  20
TORSDOF 4
ENDMDL
MODEL 7
REMARK VINA RESULT:      -6.0      5.532      9.728
REMARK  4 active torsions:
REMARK  status: ('A' for Active; 'I' for Inactive)
REMARK    1  A    between atoms: N_3  and  C_4 
REMARK    2  A    between atoms: C_4  and  C_5 
REMARK    3  A    between atoms: C_8  and  N_11 
REMARK       I    between atoms: N_11  and  C_12 
REMARK       I    between atoms: C_12  and  N_14 
REMARK    4  A    between atoms: N_14  and  C_15 
ROOT
HETATM    1  C   UNK N   1      29.084  17.813   7.251  0.00  0.00     0.007 A 
HETATM    2  C   UNK N   1      30.093  17.180   6.506  0.00  0.00     0.017 A 
HETATM    3  C   UNK N   1      31.405  17.117   6.999  0.00  0.00     0.030 A 
HETATM    4  C   UNK N   1      31.720  17.685   8.240  0.00  0.00     0.036 A 
HETATM    5  C   UNK N   1      30.702  18.314   8.974  0.00  0.00     0.030 A 
HETATM    6  C   UNK N   1      29.402  18.379   8.489  0.00  0.00     0.017 A 
ENDROOT
BRANCH   4   7
HETATM    7  N   UNK N   1      33.063  17.614   8.731  0.00  0.00    -0.309 N 
HETATM    8  C   UNK N   1      33.616  16.507   9.305  0.00  0.00     0.325 C 
HETATM    9  O   UNK N   1      32.958  15.484   9.430  0.00  0.00    -0.247 OA
HETATM   10  N   UNK N   1      34.907  16.547   9.740  0.00  0.00    -0.309 N 
HETATM   11  H   UNK N   1      35.404  17.388   9.622  0.00  0.00     0.170 HD
HETATM   12  H   UNK N   1      33.624  18.418   8.649  0.00  0.00     0.170 HD
BRANCH  10  13
HETATM   13  C   UNK N   1      35.590  15.451  10.356  0.00  0.00     0.036 A 
HETATM   14  C   UNK N   1      35.529  15.298  11.746  0.00  0.00     0.031 A 
HETATM   15  C   UNK N   1      36.190  14.231  12.369  0.00  0.00     0.026 A 
HETATM   16  C   UNK N   1      36.918  13.312  11.604  0.00  0.00     0.034 A 
HETATM   17  C   UNK N   1      36.984  13.457  10.220  0.00  0.00     0.026 A 
HETATM   18 Cl   UNK N   1      37.747  11.977  12.373  0.00  0.00    -0.084 Cl
HETATM   19  C   UNK N   1      36.325  14.518   9.602  0.00  0.00     0.031 A 
ENDBRANCH  10  13
ENDBRANCH   4   7
BRANCH   1  20
HETATM   20  C   UNK N   1      27.697  17.887   6.745  0.00  0.00     0.102 C 
HETATM   21  N   UNK N   1      26.986  16.823   6.645  0.00  0.00    -0.385 N 
HETATM   22  H   UNK N   1      26.062  16.877   6.307  0.00  0.00     0.157 HD
ATOM     23  HN  UNK N   1      27.377  15.921   6.917  1.00  0.00     0.157 HD
BRANCH  20  24
HETATM   24  N   UNK N   1      27.142  19.129   6.365  0.00  0.00    -0.385 N 
HETATM   25  H   UNK N   1      26.214  19.175   6.039  0.00  0.00     0.157 HD
HETATM   26  H   UNK N   1      27.683  19.950   6.427  0.00  0.00     0.157 HD
ENDBRANCH  20  24
ENDBRANCH   1  20
TORSDOF 4
ENDMDL
MODEL 8
REMARK VINA RESULT:      -5.8     19.777     21.508
REMARK  4 active torsions:
REMARK  status: ('A' for Active; 'I' for Inactive)
REMARK    1  A    between atoms: N_3  and  C_4 
REMARK    2  A    between atoms: C_4  and  C_5 
REMARK    3  A    between atoms: C_8  and  N_11 
REMARK       I    between atoms: N_11  and  C_12 
REMARK       I    between atoms: C_12  and  N_14 
REMARK    4  A    between atoms: N_14  and  C_15 
ROOT
HETATM    1  C   UNK N   1      33.655  19.916  -4.298  0.00  0.00     0.007 A 
HETATM    2  C   UNK N   1      32.370  19.715  -4.830  0.00  0.00     0.017 A 
HETATM    3  C   UNK N   1      31.277  20.446  -4.338  0.00  0.00     0.030 A 
HETATM    4  C   UNK N   1      31.460  21.382  -3.311  0.00  0.00     0.036 A 
HETATM    5  C   UNK N   1      32.749  21.571  -2.790  0.00  0.00     0.030 A 
HETATM    6  C   UNK N   1      33.833  20.850  -3.275  0.00  0.00     0.017 A 
ENDROOT
BRANCH   4   7
HETATM    7  N   UNK N   1      30.337  22.120  -2.819  0.00  0.00    -0.309 N 
HETATM    8  C   UNK N   1      29.545  22.923  -3.586  0.00  0.00     0.325 C 
HETATM    9  O   UNK N   1      29.772  23.051  -4.780  0.00  0.00    -0.247 OA
HETATM   10  N   UNK N   1      28.498  23.582  -3.014  0.00  0.00    -0.309 N 
HETATM   11  H   UNK N   1      28.348  23.454  -2.051  0.00  0.00     0.170 HD
HETATM   12  H   UNK N   1      30.122  22.043  -1.861  0.00  0.00     0.170 HD
BRANCH  10  13
HETATM   13  C   UNK N   1      27.603  24.449  -3.718  0.00  0.00     0.036 A 
HETATM   14  C   UNK N   1      27.906  25.812  -3.821  0.00  0.00     0.031 A 
HETATM   15  C   UNK N   1      27.043  26.678  -4.506  0.00  0.00     0.026 A 
HETATM   16  C   UNK N   1      25.872  26.183  -5.092  0.00  0.00     0.034 A 
HETATM   17  C   UNK N   1      25.563  24.829  -4.995  0.00  0.00     0.026 A 
HETATM   18 Cl   UNK N   1      24.788  27.257  -5.949  0.00  0.00    -0.084 Cl
HETATM   19  C   UNK N   1      26.422  23.969  -4.313  0.00  0.00     0.031 A 
ENDBRANCH  10  13
ENDBRANCH   4   7
BRANCH   1  20
HETATM   20  C   UNK N   1      34.815  19.153  -4.807  0.00  0.00     0.102 C 
HETATM   21  N   UNK N   1      34.638  18.066  -5.466  0.00  0.00    -0.385 N 
HETATM   22  H   UNK N   1      35.413  17.561  -5.802  0.00  0.00     0.157 HD
ATOM     23  HN  UNK N   1      33.692  17.724  -5.641  1.00  0.00     0.157 HD
BRANCH  20  24
HETATM   24  N   UNK N   1      36.130  19.614  -4.572  0.00  0.00    -0.385 N 
HETATM   25  H   UNK N   1      36.888  19.205  -5.050  0.00  0.00     0.157 HD
HETATM   26  H   UNK N   1      36.288  20.345  -3.931  0.00  0.00     0.157 HD
ENDBRANCH  20  24
ENDBRANCH   1  20
TORSDOF 4
ENDMDL
MODEL 9
REMARK VINA RESULT:      -5.8     24.017     25.353
REMARK  4 active torsions:
REMARK  status: ('A' for Active; 'I' for Inactive)
REMARK    1  A    between atoms: N_3  and  C_4 
REMARK    2  A    between atoms: C_4  and  C_5 
REMARK    3  A    between atoms: C_8  and  N_11 
REMARK       I    between atoms: N_11  and  C_12 
REMARK       I    between atoms: C_12  and  N_14 
REMARK    4  A    between atoms: N_14  and  C_15 
ROOT
HETATM    1  C   UNK N   1      26.256  27.820  -4.010  0.00  0.00     0.007 A 
HETATM    2  C   UNK N   1      25.606  27.811  -5.255  0.00  0.00     0.017 A 
HETATM    3  C   UNK N   1      25.377  26.601  -5.927  0.00  0.00     0.030 A 
HETATM    4  C   UNK N   1      25.796  25.390  -5.361  0.00  0.00     0.036 A 
HETATM    5  C   UNK N   1      26.445  25.414  -4.117  0.00  0.00     0.030 A 
HETATM    6  C   UNK N   1      26.673  26.610  -3.448  0.00  0.00     0.017 A 
ENDROOT
BRANCH   4   7
HETATM    7  N   UNK N   1      25.556  24.163  -6.058  0.00  0.00    -0.309 N 
HETATM    8  C   UNK N   1      26.445  23.572  -6.906  0.00  0.00     0.325 C 
HETATM    9  O   UNK N   1      27.532  24.089  -7.117  0.00  0.00    -0.247 OA
HETATM   10  N   UNK N   1      26.115  22.400  -7.519  0.00  0.00    -0.309 N 
HETATM   11  H   UNK N   1      25.231  22.014  -7.324  0.00  0.00     0.170 HD
HETATM   12  H   UNK N   1      24.691  23.715  -5.913  0.00  0.00     0.170 HD
BRANCH  10  13
HETATM   13  C   UNK N   1      26.965  21.691  -8.427  0.00  0.00     0.036 A 
HETATM   14  C   UNK N   1      26.749  21.812  -9.805  0.00  0.00     0.031 A 
HETATM   15  C   UNK N   1      27.570  21.126 -10.711  0.00  0.00     0.026 A 
HETATM   16  C   UNK N   1      28.610  20.316 -10.242  0.00  0.00     0.034 A 
HETATM   17  C   UNK N   1      28.832  20.190  -8.872  0.00  0.00     0.026 A 
HETATM   18 Cl   UNK N   1      29.640  19.456 -11.366  0.00  0.00    -0.084 Cl
HETATM   19  C   UNK N   1      28.015  20.873  -7.973  0.00  0.00     0.031 A 
ENDBRANCH  10  13
ENDBRANCH   4   7
BRANCH   1  20
HETATM   20  C   UNK N   1      26.504  29.088  -3.290  0.00  0.00     0.102 C 
HETATM   21  N   UNK N   1      25.955  30.177  -3.690  0.00  0.00    -0.385 N 
HETATM   22  H   UNK N   1      26.123  31.019  -3.207  0.00  0.00     0.157 HD
ATOM     23  HN  UNK N   1      25.344  30.171  -4.507  1.00  0.00     0.157 HD
BRANCH  20  24
HETATM   24  N   UNK N   1      27.347  29.112  -2.157  0.00  0.00    -0.385 N 
HETATM   25  H   UNK N   1      28.283  29.402  -2.246  0.00  0.00     0.157 HD
HETATM   26  H   UNK N   1      26.997  28.837  -1.278  0.00  0.00     0.157 HD
ENDBRANCH  20  24
ENDBRANCH   1  20
TORSDOF 4
ENDMDL
