REMARK  4 active torsions:
REMARK  status: ('A' for Active; 'I' for Inactive)
REMARK    1  A    between atoms: C_1  and  O_3 
REMARK    2  A    between atoms: C_1  and  C_4 
REMARK    3  A    between atoms: C_5  and  C_6 
REMARK    4  A    between atoms: C_9  and  O_12 
ROOT
HETATM    1  C   UNK N   1      -0.027  -0.177   0.000  0.00  0.00    -0.036 A 
HETATM    2  C   UNK N   1      -0.099  -1.573   0.000  0.00  0.00     0.014 A 
HETATM    3  C   UNK N   1      -1.343  -2.208   0.000  0.00  0.00     0.037 A 
HETATM    4  C   UNK N   1      -2.517  -1.448   0.000  0.00  0.00     0.065 A 
HETATM    5  C   UNK N   1      -2.449  -0.053  -0.000  0.00  0.00     0.037 A 
HETATM    6  C   UNK N   1      -1.208   0.582  -0.000  0.00  0.00     0.014 A 
ENDROOT
BRANCH   1   7
HETATM    7  C   UNK N   1       1.287   0.474  -0.000  0.00  0.00     0.018 C 
HETATM    8  C   UNK N   1       1.402   1.801   0.000  0.00  0.00     0.082 C 
BRANCH   8   9
HETATM    9  C   UNK N   1       2.713   2.452  -0.000  0.00  0.00     0.165 C 
HETATM   10  O   UNK N   1       2.785   3.663   0.000  0.00  0.00    -0.647 OA
BRANCH   9  11
HETATM   11  O   UNK N   1       3.842   1.709  -0.001  0.00  0.00    -0.773 OA
HETATM   12  H   UNK N   1       3.787   0.774  -0.001  0.00  0.00     0.167 HD
ENDBRANCH   9  11
ENDBRANCH   8   9
ENDBRANCH   1   7
BRANCH   4  13
HETATM   13  O   UNK N   1      -3.712  -2.058   0.000  0.00  0.00    -0.361 OA
HETATM   14  H   UNK N   1      -4.498  -1.548  -0.000  0.00  0.00     0.217 HD
ENDBRANCH   4  13
TORSDOF 4
