MODEL 1
REMARK VINA RESULT:      -5.3      0.000      0.000
REMARK  4 active torsions:
REMARK  status: ('A' for Active; 'I' for Inactive)
REMARK    1  A    between atoms: C_1  and  O_3 
REMARK    2  A    between atoms: C_1  and  C_4 
REMARK    3  A    between atoms: C_5  and  C_6 
REMARK    4  A    between atoms: C_9  and  O_12 
ROOT
HETATM    1  C   UNK N   1      35.235  12.485  17.302  0.00  0.00    -0.036 A 
HETATM    2  C   UNK N   1      35.576  11.134  17.417  0.00  0.00     0.014 A 
HETATM    3  C   UNK N   1      35.782  10.571  18.679  0.00  0.00     0.037 A 
HETATM    4  C   UNK N   1      35.649  11.358  19.827  0.00  0.00     0.065 A 
HETATM    5  C   UNK N   1      35.309  12.708  19.716  0.00  0.00     0.037 A 
HETATM    6  C   UNK N   1      35.102  13.271  18.457  0.00  0.00     0.014 A 
ENDROOT
BRANCH   1   7
HETATM    7  C   UNK N   1      35.021  13.060  15.970  0.00  0.00     0.018 C 
HETATM    8  C   UNK N   1      36.038  13.267  15.135  0.00  0.00     0.082 C 
BRANCH   8   9
HETATM    9  C   UNK N   1      35.826  13.842  13.805  0.00  0.00     0.165 C 
HETATM   10  O   UNK N   1      34.798  13.607  13.204  0.00  0.00    -0.647 OA
BRANCH   9  11
HETATM   11  O   UNK N   1      36.770  14.630  13.246  0.00  0.00    -0.773 OA
HETATM   12  H   UNK N   1      36.702  15.562  13.314  0.00  0.00     0.167 HD
ENDBRANCH   9  11
ENDBRANCH   8   9
ENDBRANCH   1   7
BRANCH   4  13
HETATM   13  O   UNK N   1      35.848  10.818  21.039  0.00  0.00    -0.361 OA
HETATM   14  H   UNK N   1      35.285  11.047  21.752  0.00  0.00     0.217 HD
ENDBRANCH   4  13
TORSDOF 4
ENDMDL
MODEL 2
REMARK VINA RESULT:      -5.3     10.302     13.599
REMARK  4 active torsions:
REMARK  status: ('A' for Active; 'I' for Inactive)
REMARK    1  A    between atoms: C_1  and  O_3 
REMARK    2  A    between atoms: C_1  and  C_4 
REMARK    3  A    between atoms: C_5  and  C_6 
REMARK    4  A    between atoms: C_9  and  O_12 
ROOT
HETATM    1  C   UNK N   1      32.701  17.314   5.335  0.00  0.00    -0.036 A 
HETATM    2  C   UNK N   1      33.054  17.265   3.983  0.00  0.00     0.014 A 
HETATM    3  C   UNK N   1      32.078  17.017   3.016  0.00  0.00     0.037 A 
HETATM    4  C   UNK N   1      30.748  16.818   3.398  0.00  0.00     0.065 A 
HETATM    5  C   UNK N   1      30.392  16.866   4.748  0.00  0.00     0.037 A 
HETATM    6  C   UNK N   1      31.365  17.114   5.715  0.00  0.00     0.014 A 
ENDROOT
BRANCH   1   7
HETATM    7  C   UNK N   1      33.738  17.576   6.339  0.00  0.00     0.018 C 
HETATM    8  C   UNK N   1      33.423  17.915   7.588  0.00  0.00     0.082 C 
BRANCH   8   9
HETATM    9  C   UNK N   1      34.457  18.176   8.590  0.00  0.00     0.165 C 
HETATM   10  O   UNK N   1      35.257  19.070   8.412  0.00  0.00    -0.647 OA
BRANCH   9  11
HETATM   11  O   UNK N   1      34.524  17.424   9.711  0.00  0.00    -0.773 OA
HETATM   12  H   UNK N   1      34.678  17.833  10.540  0.00  0.00     0.167 HD
ENDBRANCH   9  11
ENDBRANCH   8   9
ENDBRANCH   1   7
BRANCH   4  13
HETATM   13  O   UNK N   1      29.810  16.579   2.469  0.00  0.00    -0.361 OA
HETATM   14  H   UNK N   1      29.823  15.776   1.986  0.00  0.00     0.217 HD
ENDBRANCH   4  13
TORSDOF 4
ENDMDL
MODEL 3
REMARK VINA RESULT:      -5.1      1.007      1.991
REMARK  4 active torsions:
REMARK  status: ('A' for Active; 'I' for Inactive)
REMARK    1  A    between atoms: C_1  and  O_3 
REMARK    2  A    between atoms: C_1  and  C_4 
REMARK    3  A    between atoms: C_5  and  C_6 
REMARK    4  A    between atoms: C_9  and  O_12 
ROOT
HETATM    1  C   UNK N   1      35.147  12.569  16.428  0.00  0.00    -0.036 A 
HETATM    2  C   UNK N   1      35.122  13.749  17.177  0.00  0.00     0.014 A 
HETATM    3  C   UNK N   1      35.239  13.696  18.568  0.00  0.00     0.037 A 
HETATM    4  C   UNK N   1      35.382  12.462  19.212  0.00  0.00     0.065 A 
HETATM    5  C   UNK N   1      35.407  11.281  18.467  0.00  0.00     0.037 A 
HETATM    6  C   UNK N   1      35.290  11.333  17.078  0.00  0.00     0.014 A 
ENDROOT
BRANCH   1   7
HETATM    7  C   UNK N   1      35.023  12.643  14.969  0.00  0.00     0.018 C 
HETATM    8  C   UNK N   1      35.691  13.553  14.262  0.00  0.00     0.082 C 
BRANCH   8   9
HETATM    9  C   UNK N   1      35.568  13.627  12.806  0.00  0.00     0.165 C 
HETATM   10  O   UNK N   1      36.551  13.841  12.127  0.00  0.00    -0.647 OA
BRANCH   9  11
HETATM   11  O   UNK N   1      34.364  13.460  12.215  0.00  0.00    -0.773 OA
HETATM   12  H   UNK N   1      33.741  14.160  12.215  0.00  0.00     0.167 HD
ENDBRANCH   9  11
ENDBRANCH   8   9
ENDBRANCH   1   7
BRANCH   4  13
HETATM   13  O   UNK N   1      35.494  12.411  20.548  0.00  0.00    -0.361 OA
HETATM   14  H   UNK N   1      36.101  12.973  20.988  0.00  0.00     0.217 HD
ENDBRANCH   4  13
TORSDOF 4
ENDMDL
MODEL 4
REMARK VINA RESULT:      -5.1     10.349     12.071
REMARK  4 active torsions:
REMARK  status: ('A' for Active; 'I' for Inactive)
REMARK    1  A    between atoms: C_1  and  O_3 
REMARK    2  A    between atoms: C_1  and  C_4 
REMARK    3  A    between atoms: C_5  and  C_6 
REMARK    4  A    between atoms: C_9  and  O_12 
ROOT
HETATM    1  C   UNK N   1      30.946  17.637   8.180  0.00  0.00    -0.036 A 
HETATM    2  C   UNK N   1      30.612  16.931   7.022  0.00  0.00     0.014 A 
HETATM    3  C   UNK N   1      29.301  16.960   6.539  0.00  0.00     0.037 A 
HETATM    4  C   UNK N   1      28.323  17.697   7.214  0.00  0.00     0.065 A 
HETATM    5  C   UNK N   1      28.653  18.404   8.372  0.00  0.00     0.037 A 
HETATM    6  C   UNK N   1      29.960  18.375   8.855  0.00  0.00     0.014 A 
ENDROOT
BRANCH   1   7
HETATM    7  C   UNK N   1      32.326  17.596   8.674  0.00  0.00     0.018 C 
HETATM    8  C   UNK N   1      33.295  18.288   8.078  0.00  0.00     0.082 C 
BRANCH   8   9
HETATM    9  C   UNK N   1      34.673  18.248   8.570  0.00  0.00     0.165 C 
HETATM   10  O   UNK N   1      35.388  19.220   8.443  0.00  0.00    -0.647 OA
BRANCH   9  11
HETATM   11  O   UNK N   1      35.152  17.131   9.163  0.00  0.00    -0.773 OA
HETATM   12  H   UNK N   1      34.568  16.436   9.391  0.00  0.00     0.167 HD
ENDBRANCH   9  11
ENDBRANCH   8   9
ENDBRANCH   1   7
BRANCH   4  13
HETATM   13  O   UNK N   1      27.064  17.725   6.750  0.00  0.00    -0.361 OA
HETATM   14  H   UNK N   1      26.894  17.543   5.847  0.00  0.00     0.217 HD
ENDBRANCH   4  13
TORSDOF 4
ENDMDL
MODEL 5
REMARK VINA RESULT:      -5.0     11.230     12.011
REMARK  4 active torsions:
REMARK  status: ('A' for Active; 'I' for Inactive)
REMARK    1  A    between atoms: C_1  and  O_3 
REMARK    2  A    between atoms: C_1  and  C_4 
REMARK    3  A    between atoms: C_5  and  C_6 
REMARK    4  A    between atoms: C_9  and  O_12 
ROOT
HETATM    1  C   UNK N   1      31.744  17.290   8.022  0.00  0.00    -0.036 A 
HETATM    2  C   UNK N   1      31.756  16.148   7.216  0.00  0.00     0.014 A 
HETATM    3  C   UNK N   1      32.913  15.798   6.517  0.00  0.00     0.037 A 
HETATM    4  C   UNK N   1      34.062  16.589   6.624  0.00  0.00     0.065 A 
HETATM    5  C   UNK N   1      34.054  17.731   7.430  0.00  0.00     0.037 A 
HETATM    6  C   UNK N   1      32.899  18.081   8.127  0.00  0.00     0.014 A 
ENDROOT
BRANCH   1   7
HETATM    7  C   UNK N   1      30.520  17.643   8.749  0.00  0.00     0.018 C 
HETATM    8  C   UNK N   1      29.322  17.547   8.175  0.00  0.00     0.082 C 
BRANCH   8   9
HETATM    9  C   UNK N   1      28.100  17.899   8.899  0.00  0.00     0.165 C 
HETATM   10  O   UNK N   1      27.624  17.117   9.695  0.00  0.00    -0.647 OA
BRANCH   9  11
HETATM   11  O   UNK N   1      27.501  19.091   8.683  0.00  0.00    -0.773 OA
HETATM   12  H   UNK N   1      28.014  19.874   8.646  0.00  0.00     0.167 HD
ENDBRANCH   9  11
ENDBRANCH   8   9
ENDBRANCH   1   7
BRANCH   4  13
HETATM   13  O   UNK N   1      35.174  16.253   5.954  0.00  0.00    -0.361 OA
HETATM   14  H   UNK N   1      36.004  16.263   6.388  0.00  0.00     0.217 HD
ENDBRANCH   4  13
TORSDOF 4
ENDMDL
MODEL 6
REMARK VINA RESULT:      -5.0      8.315     12.278
REMARK  4 active torsions:
REMARK  status: ('A' for Active; 'I' for Inactive)
REMARK    1  A    between atoms: C_1  and  O_3 
REMARK    2  A    between atoms: C_1  and  C_4 
REMARK    3  A    between atoms: C_5  and  C_6 
REMARK    4  A    between atoms: C_9  and  O_12 
ROOT
HETATM    1  C   UNK N   1      32.783  17.442   7.127  0.00  0.00    -0.036 A 
HETATM    2  C   UNK N   1      33.585  17.574   5.990  0.00  0.00     0.014 A 
HETATM    3  C   UNK N   1      33.010  17.504   4.718  0.00  0.00     0.037 A 
HETATM    4  C   UNK N   1      31.633  17.302   4.582  0.00  0.00     0.065 A 
HETATM    5  C   UNK N   1      30.829  17.169   5.716  0.00  0.00     0.037 A 
HETATM    6  C   UNK N   1      31.401  17.239   6.986  0.00  0.00     0.014 A 
ENDROOT
BRANCH   1   7
HETATM    7  C   UNK N   1      33.401  17.518   8.454  0.00  0.00     0.018 C 
HETATM    8  C   UNK N   1      34.341  16.652   8.831  0.00  0.00     0.082 C 
BRANCH   8   9
HETATM    9  C   UNK N   1      34.959  16.727  10.155  0.00  0.00     0.165 C 
HETATM   10  O   UNK N   1      35.840  17.535  10.365  0.00  0.00    -0.647 OA
BRANCH   9  11
HETATM   11  O   UNK N   1      34.553  15.900  11.144  0.00  0.00    -0.773 OA
HETATM   12  H   UNK N   1      33.813  15.341  11.012  0.00  0.00     0.167 HD
ENDBRANCH   9  11
ENDBRANCH   8   9
ENDBRANCH   1   7
BRANCH   4  13
HETATM   13  O   UNK N   1      31.082  17.234   3.361  0.00  0.00    -0.361 OA
HETATM   14  H   UNK N   1      30.157  17.115   3.271  0.00  0.00     0.217 HD
ENDBRANCH   4  13
TORSDOF 4
ENDMDL
MODEL 7
REMARK VINA RESULT:      -4.9     26.701     27.902
REMARK  4 active torsions:
REMARK  status: ('A' for Active; 'I' for Inactive)
REMARK    1  A    between atoms: C_1  and  O_3 
REMARK    2  A    between atoms: C_1  and  C_4 
REMARK    3  A    between atoms: C_5  and  C_6 
REMARK    4  A    between atoms: C_9  and  O_12 
ROOT
HETATM    1  C   UNK N   1      25.835  25.110  -5.252  0.00  0.00    -0.036 A 
HETATM    2  C   UNK N   1      26.423  25.270  -3.994  0.00  0.00     0.014 A 
HETATM    3  C   UNK N   1      26.337  26.498  -3.334  0.00  0.00     0.037 A 
HETATM    4  C   UNK N   1      25.664  27.568  -3.931  0.00  0.00     0.065 A 
HETATM    5  C   UNK N   1      25.075  27.412  -5.188  0.00  0.00     0.037 A 
HETATM    6  C   UNK N   1      25.160  26.187  -5.848  0.00  0.00     0.014 A 
ENDROOT
BRANCH   1   7
HETATM    7  C   UNK N   1      25.934  23.815  -5.931  0.00  0.00     0.018 C 
HETATM    8  C   UNK N   1      25.699  23.698  -7.237  0.00  0.00     0.082 C 
BRANCH   8   9
HETATM    9  C   UNK N   1      25.798  22.405  -7.917  0.00  0.00     0.165 C 
HETATM   10  O   UNK N   1      24.891  22.027  -8.628  0.00  0.00    -0.647 OA
BRANCH   9  11
HETATM   11  O   UNK N   1      26.894  21.632  -7.753  0.00  0.00    -0.773 OA
HETATM   12  H   UNK N   1      27.709  21.887  -8.137  0.00  0.00     0.167 HD
ENDBRANCH   9  11
ENDBRANCH   8   9
ENDBRANCH   1   7
BRANCH   4  13
HETATM   13  O   UNK N   1      25.582  28.748  -3.297  0.00  0.00    -0.361 OA
HETATM   14  H   UNK N   1      25.979  28.856  -2.455  0.00  0.00     0.217 HD
ENDBRANCH   4  13
TORSDOF 4
ENDMDL
MODEL 8
REMARK VINA RESULT:      -4.7      1.708      5.598
REMARK  4 active torsions:
REMARK  status: ('A' for Active; 'I' for Inactive)
REMARK    1  A    between atoms: C_1  and  O_3 
REMARK    2  A    between atoms: C_1  and  C_4 
REMARK    3  A    between atoms: C_5  and  C_6 
REMARK    4  A    between atoms: C_9  and  O_12 
ROOT
HETATM    1  C   UNK N   1      34.984  12.438  15.944  0.00  0.00    -0.036 A 
HETATM    2  C   UNK N   1      34.257  11.301  15.581  0.00  0.00     0.014 A 
HETATM    3  C   UNK N   1      34.048  11.006  14.232  0.00  0.00     0.037 A 
HETATM    4  C   UNK N   1      34.565  11.849  13.243  0.00  0.00     0.065 A 
HETATM    5  C   UNK N   1      35.292  12.987  13.602  0.00  0.00     0.037 A 
HETATM    6  C   UNK N   1      35.502  13.282  14.948  0.00  0.00     0.014 A 
ENDROOT
BRANCH   1   7
HETATM    7  C   UNK N   1      35.195  12.733  17.365  0.00  0.00     0.018 C 
HETATM    8  C   UNK N   1      35.274  11.758  18.270  0.00  0.00     0.082 C 
BRANCH   8   9
HETATM    9  C   UNK N   1      35.485  12.051  19.688  0.00  0.00     0.165 C 
HETATM   10  O   UNK N   1      36.185  11.321  20.357  0.00  0.00    -0.647 OA
BRANCH   9  11
HETATM   11  O   UNK N   1      34.900  13.130  20.254  0.00  0.00    -0.773 OA
HETATM   12  H   UNK N   1      35.391  13.677  20.836  0.00  0.00     0.167 HD
ENDBRANCH   9  11
ENDBRANCH   8   9
ENDBRANCH   1   7
BRANCH   4  13
HETATM   13  O   UNK N   1      34.364  11.567  11.947  0.00  0.00    -0.361 OA
HETATM   14  H   UNK N   1      34.132  10.696  11.689  0.00  0.00     0.217 HD
ENDBRANCH   4  13
TORSDOF 4
ENDMDL
MODEL 9
REMARK VINA RESULT:      -4.7     27.156     28.509
REMARK  4 active torsions:
REMARK  status: ('A' for Active; 'I' for Inactive)
REMARK    1  A    between atoms: C_1  and  O_3 
REMARK    2  A    between atoms: C_1  and  C_4 
REMARK    3  A    between atoms: C_5  and  C_6 
REMARK    4  A    between atoms: C_9  and  O_12 
ROOT
HETATM    1  C   UNK N   1      25.820  24.999  -5.950  0.00  0.00    -0.036 A 
HETATM    2  C   UNK N   1      25.746  25.592  -7.214  0.00  0.00     0.014 A 
HETATM    3  C   UNK N   1      25.644  24.793  -8.355  0.00  0.00     0.037 A 
HETATM    4  C   UNK N   1      25.617  23.400  -8.234  0.00  0.00     0.065 A 
HETATM    5  C   UNK N   1      25.690  22.804  -6.973  0.00  0.00     0.037 A 
HETATM    6  C   UNK N   1      25.792  23.600  -5.833  0.00  0.00     0.014 A 
ENDROOT
BRANCH   1   7
HETATM    7  C   UNK N   1      25.926  25.852  -4.762  0.00  0.00     0.018 C 
HETATM    8  C   UNK N   1      25.717  27.166  -4.832  0.00  0.00     0.082 C 
BRANCH   8   9
HETATM    9  C   UNK N   1      25.823  28.019  -3.647  0.00  0.00     0.165 C 
HETATM   10  O   UNK N   1      25.916  27.514  -2.548  0.00  0.00    -0.647 OA
BRANCH   9  11
HETATM   11  O   UNK N   1      25.816  29.364  -3.774  0.00  0.00    -0.773 OA
HETATM   12  H   UNK N   1      26.203  29.765  -4.527  0.00  0.00     0.167 HD
ENDBRANCH   9  11
ENDBRANCH   8   9
ENDBRANCH   1   7
BRANCH   4  13
HETATM   13  O   UNK N   1      25.519  22.632  -9.330  0.00  0.00    -0.361 OA
HETATM   14  H   UNK N   1      25.238  23.008 -10.141  0.00  0.00     0.217 HD
ENDBRANCH   4  13
TORSDOF 4
ENDMDL
