MODEL 1
REMARK VINA RESULT:      -5.5      0.000      0.000
REMARK  13 active torsions:
REMARK  status: ('A' for Active; 'I' for Inactive)
REMARK    1  A    between atoms: O_1  and  P_2 
REMARK    2  A    between atoms: P_2  and  O_4 
REMARK    3  A    between atoms: P_2  and  O_5 
REMARK    4  A    between atoms: O_5  and  C_6 
REMARK    5  A    between atoms: C_6  and  C_7 
REMARK    6  A    between atoms: C_7  and  O_8 
REMARK    7  A    between atoms: C_7  and  C_9 
REMARK    8  A    between atoms: C_9  and  O_10 
REMARK    9  A    between atoms: O_10  and  C_11 
REMARK   10  A    between atoms: C_11  and  C_13 
REMARK   11  A    between atoms: C_13  and  C_14 
REMARK   12  A    between atoms: C_14  and  C_15 
REMARK   13  A    between atoms: C_15  and  C_16 
ROOT
HETATM    1  C   UNK N   1      35.893  15.462  10.559  0.00  0.00     0.166 C 
ENDROOT
BRANCH   1   2
HETATM    2  C   UNK N   1      35.434  14.677  11.783  0.00  0.00     0.214 C 
BRANCH   2   3
HETATM    3  O   UNK N   1      36.180  15.017  12.916  0.00  0.00    -0.294 OA
BRANCH   3   4
HETATM    4  P   UNK N   1      36.131  13.593  13.914  0.00  0.00     0.390 P 
HETATM    5  O   UNK N   1      34.717  13.586  13.273  0.00  0.00    -0.632 OA
BRANCH   4   6
HETATM    6  O   UNK N   1      36.048  12.013  13.202  0.00  0.00    -0.307 OA
HETATM    7  H   UNK N   1      36.455  11.213  13.571  0.00  0.00     0.222 HD
ENDBRANCH   4   6
BRANCH   4   8
HETATM    8  O   UNK N   1      37.335  13.402  12.677  0.00  0.00    -0.307 OA
HETATM    9  H   UNK N   1      37.228  13.431  11.713  0.00  0.00     0.222 HD
ENDBRANCH   4   8
ENDBRANCH   3   4
ENDBRANCH   2   3
ENDBRANCH   1   2
BRANCH   1  10
HETATM   10  O   UNK N   1      37.200  15.901  10.769  0.00  0.00    -0.391 OA
HETATM   11  H   UNK N   1      37.944  16.200  10.223  0.00  0.00     0.210 HD
ENDBRANCH   1  10
BRANCH   1  12
HETATM   12  C   UNK N   1      34.994  16.662  10.263  0.00  0.00     0.212 C 
BRANCH  12  13
HETATM   13  O   UNK N   1      35.094  17.060   8.947  0.00  0.00    -0.319 OA
BRANCH  13  14
HETATM   14  C   UNK N   1      34.564  18.208   8.456  0.00  0.00     0.258 C 
HETATM   15  O   UNK N   1      35.261  19.211   8.437  0.00  0.00    -0.265 OA
BRANCH  14  16
HETATM   16  C   UNK N   1      33.145  18.267   7.935  0.00  0.00     0.111 C 
BRANCH  16  17
HETATM   17  C   UNK N   1      32.869  17.147   6.936  0.00  0.00     0.010 C 
BRANCH  17  18
HETATM   18  C   UNK N   1      33.483  17.442   5.584  0.00  0.00     0.000 C 
BRANCH  18  19
HETATM   19  C   UNK N   1      32.372  17.488   4.552  0.00  0.00    -0.005 C 
HETATM   20  C   UNK N   1      32.852  16.896   3.243  0.00  0.00     0.005 C 
ENDBRANCH  18  19
ENDBRANCH  17  18
ENDBRANCH  16  17
ENDBRANCH  14  16
ENDBRANCH  13  14
ENDBRANCH  12  13
ENDBRANCH   1  12
TORSDOF 13
ENDMDL
MODEL 2
REMARK VINA RESULT:      -5.4      1.683      2.324
REMARK  13 active torsions:
REMARK  status: ('A' for Active; 'I' for Inactive)
REMARK    1  A    between atoms: O_1  and  P_2 
REMARK    2  A    between atoms: P_2  and  O_4 
REMARK    3  A    between atoms: P_2  and  O_5 
REMARK    4  A    between atoms: O_5  and  C_6 
REMARK    5  A    between atoms: C_6  and  C_7 
REMARK    6  A    between atoms: C_7  and  O_8 
REMARK    7  A    between atoms: C_7  and  C_9 
REMARK    8  A    between atoms: C_9  and  O_10 
REMARK    9  A    between atoms: O_10  and  C_11 
REMARK   10  A    between atoms: C_11  and  C_13 
REMARK   11  A    between atoms: C_13  and  C_14 
REMARK   12  A    between atoms: C_14  and  C_15 
REMARK   13  A    between atoms: C_15  and  C_16 
ROOT
HETATM    1  C   UNK N   1      36.054  15.293  10.369  0.00  0.00     0.166 C 
ENDROOT
BRANCH   1   2
HETATM    2  C   UNK N   1      35.818  14.090  11.277  0.00  0.00     0.214 C 
BRANCH   2   3
HETATM    3  O   UNK N   1      35.073  14.443  12.407  0.00  0.00    -0.294 OA
BRANCH   3   4
HETATM    4  P   UNK N   1      35.647  13.377  13.656  0.00  0.00     0.390 P 
HETATM    5  O   UNK N   1      35.754  12.480  12.394  0.00  0.00    -0.632 OA
BRANCH   4   6
HETATM    6  O   UNK N   1      37.305  12.868  13.696  0.00  0.00    -0.307 OA
HETATM    7  H   UNK N   1      38.071  13.462  13.654  0.00  0.00     0.222 HD
ENDBRANCH   4   6
BRANCH   4   8
HETATM    8  O   UNK N   1      36.720  14.734  13.504  0.00  0.00    -0.307 OA
HETATM    9  H   UNK N   1      36.600  15.551  12.994  0.00  0.00     0.222 HD
ENDBRANCH   4   8
ENDBRANCH   3   4
ENDBRANCH   2   3
ENDBRANCH   1   2
BRANCH   1  10
HETATM   10  O   UNK N   1      37.271  15.884  10.711  0.00  0.00    -0.391 OA
HETATM   11  H   UNK N   1      37.906  15.827  11.442  0.00  0.00     0.210 HD
ENDBRANCH   1  10
BRANCH   1  12
HETATM   12  C   UNK N   1      34.938  16.332  10.473  0.00  0.00     0.212 C 
BRANCH  12  13
HETATM   13  O   UNK N   1      35.317  17.542   9.932  0.00  0.00    -0.319 OA
BRANCH  13  14
HETATM   14  C   UNK N   1      34.790  18.069   8.799  0.00  0.00     0.258 C 
HETATM   15  O   UNK N   1      35.219  19.140   8.399  0.00  0.00    -0.265 OA
BRANCH  14  16
HETATM   16  C   UNK N   1      33.696  17.361   8.030  0.00  0.00     0.111 C 
BRANCH  16  17
HETATM   17  C   UNK N   1      32.321  17.938   8.354  0.00  0.00     0.010 C 
BRANCH  17  18
HETATM   18  C   UNK N   1      31.228  17.254   7.562  0.00  0.00     0.000 C 
BRANCH  18  19
HETATM   19  C   UNK N   1      29.886  17.737   8.078  0.00  0.00    -0.005 C 
HETATM   20  C   UNK N   1      30.086  18.672   9.253  0.00  0.00     0.005 C 
ENDBRANCH  18  19
ENDBRANCH  17  18
ENDBRANCH  16  17
ENDBRANCH  14  16
ENDBRANCH  13  14
ENDBRANCH  12  13
ENDBRANCH   1  12
TORSDOF 13
ENDMDL
MODEL 3
REMARK VINA RESULT:      -5.4      3.583      8.127
REMARK  13 active torsions:
REMARK  status: ('A' for Active; 'I' for Inactive)
REMARK    1  A    between atoms: O_1  and  P_2 
REMARK    2  A    between atoms: P_2  and  O_4 
REMARK    3  A    between atoms: P_2  and  O_5 
REMARK    4  A    between atoms: O_5  and  C_6 
REMARK    5  A    between atoms: C_6  and  C_7 
REMARK    6  A    between atoms: C_7  and  O_8 
REMARK    7  A    between atoms: C_7  and  C_9 
REMARK    8  A    between atoms: C_9  and  O_10 
REMARK    9  A    between atoms: O_10  and  C_11 
REMARK   10  A    between atoms: C_11  and  C_13 
REMARK   11  A    between atoms: C_13  and  C_14 
REMARK   12  A    between atoms: C_14  and  C_15 
REMARK   13  A    between atoms: C_15  and  C_16 
ROOT
HETATM    1  C   UNK N   1      35.806  15.846  11.233  0.00  0.00     0.166 C 
ENDROOT
BRANCH   1   2
HETATM    2  C   UNK N   1      34.878  16.348  10.132  0.00  0.00     0.214 C 
BRANCH   2   3
HETATM    3  O   UNK N   1      35.281  17.600   9.656  0.00  0.00    -0.294 OA
BRANCH   3   4
HETATM    4  P   UNK N   1      34.121  17.990   8.420  0.00  0.00     0.390 P 
HETATM    5  O   UNK N   1      35.117  19.176   8.312  0.00  0.00    -0.632 OA
BRANCH   4   6
HETATM    6  O   UNK N   1      34.566  17.957   6.743  0.00  0.00    -0.307 OA
HETATM    7  H   UNK N   1      34.848  17.166   6.258  0.00  0.00     0.222 HD
ENDBRANCH   4   6
BRANCH   4   8
HETATM    8  O   UNK N   1      34.931  16.507   8.019  0.00  0.00    -0.307 OA
HETATM    9  H   UNK N   1      35.832  16.376   7.683  0.00  0.00     0.222 HD
ENDBRANCH   4   8
ENDBRANCH   3   4
ENDBRANCH   2   3
ENDBRANCH   1   2
BRANCH   1  10
HETATM   10  O   UNK N   1      37.127  16.021  10.824  0.00  0.00    -0.391 OA
HETATM   11  H   UNK N   1      37.936  16.413  11.188  0.00  0.00     0.210 HD
ENDBRANCH   1  10
BRANCH   1  12
HETATM   12  C   UNK N   1      35.569  14.374  11.572  0.00  0.00     0.212 C 
BRANCH  12  13
HETATM   13  O   UNK N   1      34.976  14.226  12.807  0.00  0.00    -0.319 OA
BRANCH  13  14
HETATM   14  C   UNK N   1      35.627  13.802  13.919  0.00  0.00     0.258 C 
HETATM   15  O   UNK N   1      36.714  14.294  14.182  0.00  0.00    -0.265 OA
BRANCH  14  16
HETATM   16  C   UNK N   1      35.038  12.748  14.830  0.00  0.00     0.111 C 
BRANCH  16  17
HETATM   17  C   UNK N   1      34.339  11.649  14.034  0.00  0.00     0.010 C 
BRANCH  17  18
HETATM   18  C   UNK N   1      33.804  10.559  14.938  0.00  0.00     0.000 C 
BRANCH  18  19
HETATM   19  C   UNK N   1      34.979   9.876  15.613  0.00  0.00    -0.005 C 
HETATM   20  C   UNK N   1      34.766   9.835  17.112  0.00  0.00     0.005 C 
ENDBRANCH  18  19
ENDBRANCH  17  18
ENDBRANCH  16  17
ENDBRANCH  14  16
ENDBRANCH  13  14
ENDBRANCH  12  13
ENDBRANCH   1  12
TORSDOF 13
ENDMDL
MODEL 4
REMARK VINA RESULT:      -5.3     15.856     18.513
REMARK  13 active torsions:
REMARK  status: ('A' for Active; 'I' for Inactive)
REMARK    1  A    between atoms: O_1  and  P_2 
REMARK    2  A    between atoms: P_2  and  O_4 
REMARK    3  A    between atoms: P_2  and  O_5 
REMARK    4  A    between atoms: O_5  and  C_6 
REMARK    5  A    between atoms: C_6  and  C_7 
REMARK    6  A    between atoms: C_7  and  O_8 
REMARK    7  A    between atoms: C_7  and  C_9 
REMARK    8  A    between atoms: C_9  and  O_10 
REMARK    9  A    between atoms: O_10  and  C_11 
REMARK   10  A    between atoms: C_11  and  C_13 
REMARK   11  A    between atoms: C_13  and  C_14 
REMARK   12  A    between atoms: C_14  and  C_15 
REMARK   13  A    between atoms: C_15  and  C_16 
ROOT
HETATM    1  C   UNK N   1      27.200  24.444  -3.908  0.00  0.00     0.166 C 
ENDROOT
BRANCH   1   2
HETATM    2  C   UNK N   1      28.657  24.003  -4.004  0.00  0.00     0.214 C 
BRANCH   2   3
HETATM    3  O   UNK N   1      28.998  23.140  -2.957  0.00  0.00    -0.294 OA
BRANCH   3   4
HETATM    4  P   UNK N   1      30.736  23.194  -2.899  0.00  0.00     0.390 P 
HETATM    5  O   UNK N   1      30.365  23.149  -1.392  0.00  0.00    -0.632 OA
BRANCH   4   6
HETATM    6  O   UNK N   1      31.648  21.833  -2.328  0.00  0.00    -0.307 OA
HETATM    7  H   UNK N   1      31.925  21.695  -1.408  0.00  0.00     0.222 HD
ENDBRANCH   4   6
BRANCH   4   8
HETATM    8  O   UNK N   1      30.220  21.728  -3.673  0.00  0.00    -0.307 OA
HETATM    9  H   UNK N   1      30.644  20.856  -3.671  0.00  0.00     0.222 HD
ENDBRANCH   4   8
ENDBRANCH   3   4
ENDBRANCH   2   3
ENDBRANCH   1   2
BRANCH   1  10
HETATM   10  O   UNK N   1      26.695  24.066  -2.664  0.00  0.00    -0.391 OA
HETATM   11  H   UNK N   1      26.004  24.372  -2.057  0.00  0.00     0.210 HD
ENDBRANCH   1  10
BRANCH   1  12
HETATM   12  C   UNK N   1      26.333  23.842  -5.013  0.00  0.00     0.212 C 
BRANCH  12  13
HETATM   13  O   UNK N   1      25.278  24.668  -5.338  0.00  0.00    -0.319 OA
BRANCH  13  14
HETATM   14  C   UNK N   1      25.364  25.711  -6.200  0.00  0.00     0.258 C 
HETATM   15  O   UNK N   1      25.797  25.507  -7.323  0.00  0.00    -0.265 OA
BRANCH  14  16
HETATM   16  C   UNK N   1      24.935  27.107  -5.801  0.00  0.00     0.111 C 
BRANCH  16  17
HETATM   17  C   UNK N   1      26.100  27.906  -5.224  0.00  0.00     0.010 C 
BRANCH  17  18
HETATM   18  C   UNK N   1      25.847  28.301  -3.784  0.00  0.00     0.000 C 
BRANCH  18  19
HETATM   19  C   UNK N   1      26.426  29.684  -3.557  0.00  0.00    -0.005 C 
HETATM   20  C   UNK N   1      27.266  30.099  -4.746  0.00  0.00     0.005 C 
ENDBRANCH  18  19
ENDBRANCH  17  18
ENDBRANCH  16  17
ENDBRANCH  14  16
ENDBRANCH  13  14
ENDBRANCH  12  13
ENDBRANCH   1  12
TORSDOF 13
ENDMDL
MODEL 5
REMARK VINA RESULT:      -4.9     15.856     17.941
REMARK  13 active torsions:
REMARK  status: ('A' for Active; 'I' for Inactive)
REMARK    1  A    between atoms: O_1  and  P_2 
REMARK    2  A    between atoms: P_2  and  O_4 
REMARK    3  A    between atoms: P_2  and  O_5 
REMARK    4  A    between atoms: O_5  and  C_6 
REMARK    5  A    between atoms: C_6  and  C_7 
REMARK    6  A    between atoms: C_7  and  O_8 
REMARK    7  A    between atoms: C_7  and  C_9 
REMARK    8  A    between atoms: C_9  and  O_10 
REMARK    9  A    between atoms: O_10  and  C_11 
REMARK   10  A    between atoms: C_11  and  C_13 
REMARK   11  A    between atoms: C_13  and  C_14 
REMARK   12  A    between atoms: C_14  and  C_15 
REMARK   13  A    between atoms: C_15  and  C_16 
ROOT
HETATM    1  C   UNK N   1      29.883  26.265  -4.192  0.00  0.00     0.166 C 
ENDROOT
BRANCH   1   2
HETATM    2  C   UNK N   1      29.423  24.855  -3.837  0.00  0.00     0.214 C 
BRANCH   2   3
HETATM    3  O   UNK N   1      30.059  24.388  -2.681  0.00  0.00    -0.294 OA
BRANCH   3   4
HETATM    4  P   UNK N   1      30.477  22.740  -3.051  0.00  0.00     0.390 P 
HETATM    5  O   UNK N   1      31.700  23.516  -3.611  0.00  0.00    -0.632 OA
BRANCH   4   6
HETATM    6  O   UNK N   1      31.810  21.963  -2.259  0.00  0.00    -0.307 OA
HETATM    7  H   UNK N   1      32.686  22.357  -2.127  0.00  0.00     0.222 HD
ENDBRANCH   4   6
BRANCH   4   8
HETATM    8  O   UNK N   1      30.387  22.950  -1.330  0.00  0.00    -0.307 OA
HETATM    9  H   UNK N   1      29.603  22.970  -0.759  0.00  0.00     0.222 HD
ENDBRANCH   4   8
ENDBRANCH   3   4
ENDBRANCH   2   3
ENDBRANCH   1   2
BRANCH   1  10
HETATM   10  O   UNK N   1      30.990  26.589  -3.409  0.00  0.00    -0.391 OA
HETATM   11  H   UNK N   1      31.755  27.182  -3.473  0.00  0.00     0.210 HD
ENDBRANCH   1  10
BRANCH   1  12
HETATM   12  C   UNK N   1      28.786  27.308  -3.979  0.00  0.00     0.212 C 
BRANCH  12  13
HETATM   13  O   UNK N   1      27.576  26.719  -3.682  0.00  0.00    -0.319 OA
BRANCH  13  14
HETATM   14  C   UNK N   1      26.377  27.345  -3.787  0.00  0.00     0.258 C 
HETATM   15  O   UNK N   1      25.803  27.683  -2.764  0.00  0.00    -0.265 OA
BRANCH  14  16
HETATM   16  C   UNK N   1      25.748  27.631  -5.133  0.00  0.00     0.111 C 
BRANCH  16  17
HETATM   17  C   UNK N   1      24.964  26.429  -5.651  0.00  0.00     0.010 C 
BRANCH  17  18
HETATM   18  C   UNK N   1      25.863  25.442  -6.364  0.00  0.00     0.000 C 
BRANCH  18  19
HETATM   19  C   UNK N   1      25.864  24.142  -5.582  0.00  0.00    -0.005 C 
HETATM   20  C   UNK N   1      25.805  22.963  -6.532  0.00  0.00     0.005 C 
ENDBRANCH  18  19
ENDBRANCH  17  18
ENDBRANCH  16  17
ENDBRANCH  14  16
ENDBRANCH  13  14
ENDBRANCH  12  13
ENDBRANCH   1  12
TORSDOF 13
ENDMDL
MODEL 6
REMARK VINA RESULT:      -4.8      3.572      7.905
REMARK  13 active torsions:
REMARK  status: ('A' for Active; 'I' for Inactive)
REMARK    1  A    between atoms: O_1  and  P_2 
REMARK    2  A    between atoms: P_2  and  O_4 
REMARK    3  A    between atoms: P_2  and  O_5 
REMARK    4  A    between atoms: O_5  and  C_6 
REMARK    5  A    between atoms: C_6  and  C_7 
REMARK    6  A    between atoms: C_7  and  O_8 
REMARK    7  A    between atoms: C_7  and  C_9 
REMARK    8  A    between atoms: C_9  and  O_10 
REMARK    9  A    between atoms: O_10  and  C_11 
REMARK   10  A    between atoms: C_11  and  C_13 
REMARK   11  A    between atoms: C_13  and  C_14 
REMARK   12  A    between atoms: C_14  and  C_15 
REMARK   13  A    between atoms: C_15  and  C_16 
ROOT
HETATM    1  C   UNK N   1      34.095  14.572  10.034  0.00  0.00     0.166 C 
ENDROOT
BRANCH   1   2
HETATM    2  C   UNK N   1      35.082  15.660   9.625  0.00  0.00     0.214 C 
BRANCH   2   3
HETATM    3  O   UNK N   1      34.782  16.172   8.359  0.00  0.00    -0.294 OA
BRANCH   3   4
HETATM    4  P   UNK N   1      34.111  17.746   8.674  0.00  0.00     0.390 P 
HETATM    5  O   UNK N   1      35.294  17.694   9.678  0.00  0.00    -0.632 OA
BRANCH   4   6
HETATM    6  O   UNK N   1      34.998  19.184   8.284  0.00  0.00    -0.307 OA
HETATM    7  H   UNK N   1      35.889  19.202   7.900  0.00  0.00     0.222 HD
ENDBRANCH   4   6
BRANCH   4   8
HETATM    8  O   UNK N   1      34.718  17.682   7.049  0.00  0.00    -0.307 OA
HETATM    9  H   UNK N   1      35.637  17.717   6.740  0.00  0.00     0.222 HD
ENDBRANCH   4   8
ENDBRANCH   3   4
ENDBRANCH   2   3
ENDBRANCH   1   2
BRANCH   1  10
HETATM   10  O   UNK N   1      33.367  15.015  11.138  0.00  0.00    -0.391 OA
HETATM   11  H   UNK N   1      32.839  15.794  11.373  0.00  0.00     0.210 HD
ENDBRANCH   1  10
BRANCH   1  12
HETATM   12  C   UNK N   1      34.787  13.253  10.378  0.00  0.00     0.212 C 
BRANCH  12  13
HETATM   13  O   UNK N   1      35.885  13.452  11.186  0.00  0.00    -0.319 OA
BRANCH  13  14
HETATM   14  C   UNK N   1      35.846  13.442  12.542  0.00  0.00     0.258 C 
HETATM   15  O   UNK N   1      35.881  14.510  13.134  0.00  0.00    -0.265 OA
BRANCH  14  16
HETATM   16  C   UNK N   1      35.757  12.150  13.323  0.00  0.00     0.111 C 
BRANCH  16  17
HETATM   17  C   UNK N   1      34.730  12.245  14.447  0.00  0.00     0.010 C 
BRANCH  17  18
HETATM   18  C   UNK N   1      33.927  10.969  14.580  0.00  0.00     0.000 C 
BRANCH  18  19
HETATM   19  C   UNK N   1      34.465  10.183  15.761  0.00  0.00    -0.005 C 
HETATM   20  C   UNK N   1      35.174  11.112  16.724  0.00  0.00     0.005 C 
ENDBRANCH  18  19
ENDBRANCH  17  18
ENDBRANCH  16  17
ENDBRANCH  14  16
ENDBRANCH  13  14
ENDBRANCH  12  13
ENDBRANCH   1  12
TORSDOF 13
ENDMDL
MODEL 7
REMARK VINA RESULT:      -4.8     12.448     13.865
REMARK  13 active torsions:
REMARK  status: ('A' for Active; 'I' for Inactive)
REMARK    1  A    between atoms: O_1  and  P_2 
REMARK    2  A    between atoms: P_2  and  O_4 
REMARK    3  A    between atoms: P_2  and  O_5 
REMARK    4  A    between atoms: O_5  and  C_6 
REMARK    5  A    between atoms: C_6  and  C_7 
REMARK    6  A    between atoms: C_7  and  O_8 
REMARK    7  A    between atoms: C_7  and  C_9 
REMARK    8  A    between atoms: C_9  and  O_10 
REMARK    9  A    between atoms: O_10  and  C_11 
REMARK   10  A    between atoms: C_11  and  C_13 
REMARK   11  A    between atoms: C_13  and  C_14 
REMARK   12  A    between atoms: C_14  and  C_15 
REMARK   13  A    between atoms: C_15  and  C_16 
ROOT
HETATM    1  C   UNK N   1      21.930  18.141   5.719  0.00  0.00     0.166 C 
ENDROOT
BRANCH   1   2
HETATM    2  C   UNK N   1      21.596  16.655   5.641  0.00  0.00     0.214 C 
BRANCH   2   3
HETATM    3  O   UNK N   1      20.506  16.334   6.456  0.00  0.00    -0.294 OA
BRANCH   3   4
HETATM    4  P   UNK N   1      21.119  15.125   7.546  0.00  0.00     0.390 P 
HETATM    5  O   UNK N   1      20.611  16.216   8.527  0.00  0.00    -0.632 OA
BRANCH   4   6
HETATM    6  O   UNK N   1      20.046  14.233   8.577  0.00  0.00    -0.307 OA
HETATM    7  H   UNK N   1      20.239  13.364   8.963  0.00  0.00     0.222 HD
ENDBRANCH   4   6
BRANCH   4   8
HETATM    8  O   UNK N   1      19.782  14.479   6.646  0.00  0.00    -0.307 OA
HETATM    9  H   UNK N   1      18.963  14.921   6.369  0.00  0.00     0.222 HD
ENDBRANCH   4   8
ENDBRANCH   3   4
ENDBRANCH   2   3
ENDBRANCH   1   2
BRANCH   1  10
HETATM   10  O   UNK N   1      21.291  18.689   6.830  0.00  0.00    -0.391 OA
HETATM   11  H   UNK N   1      20.826  18.360   7.615  0.00  0.00     0.210 HD
ENDBRANCH   1  10
BRANCH   1  12
HETATM   12  C   UNK N   1      21.507  18.902   4.462  0.00  0.00     0.212 C 
BRANCH  12  13
HETATM   13  O   UNK N   1      22.553  19.042   3.576  0.00  0.00    -0.319 OA
BRANCH  13  14
HETATM   14  C   UNK N   1      22.977  20.231   3.079  0.00  0.00     0.258 C 
HETATM   15  O   UNK N   1      22.144  21.086   2.822  0.00  0.00    -0.265 OA
BRANCH  14  16
HETATM   16  C   UNK N   1      24.444  20.513   2.842  0.00  0.00     0.111 C 
BRANCH  16  17
HETATM   17  C   UNK N   1      25.318  19.868   3.914  0.00  0.00     0.010 C 
BRANCH  17  18
HETATM   18  C   UNK N   1      26.732  20.407   3.879  0.00  0.00     0.000 C 
BRANCH  18  19
HETATM   19  C   UNK N   1      27.334  20.266   5.265  0.00  0.00    -0.005 C 
HETATM   20  C   UNK N   1      27.062  21.513   6.080  0.00  0.00     0.005 C 
ENDBRANCH  18  19
ENDBRANCH  17  18
ENDBRANCH  16  17
ENDBRANCH  14  16
ENDBRANCH  13  14
ENDBRANCH  12  13
ENDBRANCH   1  12
TORSDOF 13
ENDMDL
MODEL 8
REMARK VINA RESULT:      -4.7      3.379      7.461
REMARK  13 active torsions:
REMARK  status: ('A' for Active; 'I' for Inactive)
REMARK    1  A    between atoms: O_1  and  P_2 
REMARK    2  A    between atoms: P_2  and  O_4 
REMARK    3  A    between atoms: P_2  and  O_5 
REMARK    4  A    between atoms: O_5  and  C_6 
REMARK    5  A    between atoms: C_6  and  C_7 
REMARK    6  A    between atoms: C_7  and  O_8 
REMARK    7  A    between atoms: C_7  and  C_9 
REMARK    8  A    between atoms: C_9  and  O_10 
REMARK    9  A    between atoms: O_10  and  C_11 
REMARK   10  A    between atoms: C_11  and  C_13 
REMARK   11  A    between atoms: C_13  and  C_14 
REMARK   12  A    between atoms: C_14  and  C_15 
REMARK   13  A    between atoms: C_15  and  C_16 
ROOT
HETATM    1  C   UNK N   1      33.356  13.991   8.325  0.00  0.00     0.166 C 
ENDROOT
BRANCH   1   2
HETATM    2  C   UNK N   1      33.052  15.486   8.332  0.00  0.00     0.214 C 
BRANCH   2   3
HETATM    3  O   UNK N   1      34.151  16.232   7.894  0.00  0.00    -0.294 OA
BRANCH   3   4
HETATM    4  P   UNK N   1      33.768  17.870   8.337  0.00  0.00     0.390 P 
HETATM    5  O   UNK N   1      34.705  17.435   9.495  0.00  0.00    -0.632 OA
BRANCH   4   6
HETATM    6  O   UNK N   1      34.988  19.104   8.318  0.00  0.00    -0.307 OA
HETATM    7  H   UNK N   1      35.935  18.953   8.464  0.00  0.00     0.222 HD
ENDBRANCH   4   6
BRANCH   4   8
HETATM    8  O   UNK N   1      34.645  17.857   6.838  0.00  0.00    -0.307 OA
HETATM    9  H   UNK N   1      35.535  17.517   6.656  0.00  0.00     0.222 HD
ENDBRANCH   4   8
ENDBRANCH   3   4
ENDBRANCH   2   3
ENDBRANCH   1   2
BRANCH   1  10
HETATM   10  O   UNK N   1      32.379  13.328   9.066  0.00  0.00    -0.391 OA
HETATM   11  H   UNK N   1      31.823  12.540   8.962  0.00  0.00     0.210 HD
ENDBRANCH   1  10
BRANCH   1  12
HETATM   12  C   UNK N   1      34.736  13.673   8.902  0.00  0.00     0.212 C 
BRANCH  12  13
HETATM   13  O   UNK N   1      34.655  13.268  10.217  0.00  0.00    -0.319 OA
BRANCH  13  14
HETATM   14  C   UNK N   1      34.991  14.045  11.277  0.00  0.00     0.258 C 
HETATM   15  O   UNK N   1      34.188  14.877  11.669  0.00  0.00    -0.265 OA
BRANCH  14  16
HETATM   16  C   UNK N   1      36.326  13.900  11.974  0.00  0.00     0.111 C 
BRANCH  16  17
HETATM   17  C   UNK N   1      36.182  13.188  13.316  0.00  0.00     0.010 C 
BRANCH  17  18
HETATM   18  C   UNK N   1      36.522  14.104  14.472  0.00  0.00     0.000 C 
BRANCH  18  19
HETATM   19  C   UNK N   1      36.235  13.369  15.768  0.00  0.00    -0.005 C 
HETATM   20  C   UNK N   1      34.774  12.976  15.831  0.00  0.00     0.005 C 
ENDBRANCH  18  19
ENDBRANCH  17  18
ENDBRANCH  16  17
ENDBRANCH  14  16
ENDBRANCH  13  14
ENDBRANCH  12  13
ENDBRANCH   1  12
TORSDOF 13
ENDMDL
MODEL 9
REMARK VINA RESULT:      -4.7     14.778     16.787
REMARK  13 active torsions:
REMARK  status: ('A' for Active; 'I' for Inactive)
REMARK    1  A    between atoms: O_1  and  P_2 
REMARK    2  A    between atoms: P_2  and  O_4 
REMARK    3  A    between atoms: P_2  and  O_5 
REMARK    4  A    between atoms: O_5  and  C_6 
REMARK    5  A    between atoms: C_6  and  C_7 
REMARK    6  A    between atoms: C_7  and  O_8 
REMARK    7  A    between atoms: C_7  and  C_9 
REMARK    8  A    between atoms: C_9  and  O_10 
REMARK    9  A    between atoms: O_10  and  C_11 
REMARK   10  A    between atoms: C_11  and  C_13 
REMARK   11  A    between atoms: C_13  and  C_14 
REMARK   12  A    between atoms: C_14  and  C_15 
REMARK   13  A    between atoms: C_15  and  C_16 
ROOT
HETATM    1  C   UNK N   1      20.262  16.987   3.336  0.00  0.00     0.166 C 
ENDROOT
BRANCH   1   2
HETATM    2  C   UNK N   1      20.369  18.036   2.234  0.00  0.00     0.214 C 
BRANCH   2   3
HETATM    3  O   UNK N   1      21.270  19.048   2.578  0.00  0.00    -0.294 OA
BRANCH   3   4
HETATM    4  P   UNK N   1      20.728  20.437   1.681  0.00  0.00     0.390 P 
HETATM    5  O   UNK N   1      22.247  20.722   1.829  0.00  0.00    -0.632 OA
BRANCH   4   6
HETATM    6  O   UNK N   1      21.227  20.682   0.037  0.00  0.00    -0.307 OA
HETATM    7  H   UNK N   1      21.375  21.546  -0.377  0.00  0.00     0.222 HD
ENDBRANCH   4   6
BRANCH   4   8
HETATM    8  O   UNK N   1      20.492  18.999   0.736  0.00  0.00    -0.307 OA
HETATM    9  H   UNK N   1      19.696  18.700   0.270  0.00  0.00     0.222 HD
ENDBRANCH   4   8
ENDBRANCH   3   4
ENDBRANCH   2   3
ENDBRANCH   1   2
BRANCH   1  10
HETATM   10  O   UNK N   1      18.933  16.901   3.749  0.00  0.00    -0.391 OA
HETATM   11  H   UNK N   1      18.204  16.266   3.665  0.00  0.00     0.210 HD
ENDBRANCH   1  10
BRANCH   1  12
HETATM   12  C   UNK N   1      21.147  17.313   4.539  0.00  0.00     0.212 C 
BRANCH  12  13
HETATM   13  O   UNK N   1      20.399  17.549   5.672  0.00  0.00    -0.319 OA
BRANCH  13  14
HETATM   14  C   UNK N   1      20.625  16.959   6.872  0.00  0.00     0.258 C 
HETATM   15  O   UNK N   1      20.912  17.666   7.826  0.00  0.00    -0.265 OA
BRANCH  14  16
HETATM   16  C   UNK N   1      20.527  15.459   7.049  0.00  0.00     0.111 C 
BRANCH  16  17
HETATM   17  C   UNK N   1      21.533  14.950   8.076  0.00  0.00     0.010 C 
BRANCH  17  18
HETATM   18  C   UNK N   1      20.847  14.461   9.334  0.00  0.00     0.000 C 
BRANCH  18  19
HETATM   19  C   UNK N   1      21.364  13.070   9.653  0.00  0.00    -0.005 C 
HETATM   20  C   UNK N   1      20.687  12.536  10.898  0.00  0.00     0.005 C 
ENDBRANCH  18  19
ENDBRANCH  17  18
ENDBRANCH  16  17
ENDBRANCH  14  16
ENDBRANCH  13  14
ENDBRANCH  12  13
ENDBRANCH   1  12
TORSDOF 13
ENDMDL
