MODEL 1
REMARK VINA RESULT:      -6.2      0.000      0.000
REMARK  9 active torsions:
REMARK  status: ('A' for Active; 'I' for Inactive)
REMARK    1  A    between atoms: C_1  and  O_10 
REMARK    2  A    between atoms: C_2  and  O_8 
REMARK    3  A    between atoms: C_3  and  C_9 
REMARK    4  A    between atoms: C_5  and  O_11 
REMARK    5  A    between atoms: C_6  and  N_7 
REMARK       I    between atoms: N_7  and  C_12 
REMARK    6  A    between atoms: C_9  and  O_15 
REMARK    7  A    between atoms: O_15  and  P_16 
REMARK    8  A    between atoms: P_16  and  O_17 
REMARK    9  A    between atoms: P_16  and  O_18 
ROOT
HETATM    1  C   UNK N   1      35.062  13.213  11.969  0.00  0.00     0.177 C 
HETATM    2  C   UNK N   1      34.754  14.636  11.495  0.00  0.00     0.180 C 
HETATM    3  C   UNK N   1      35.658  14.943  10.294  0.00  0.00     0.180 C 
HETATM    4  O   UNK N   1      37.004  14.838  10.686  0.00  0.00    -0.349 OA
HETATM    5  C   UNK N   1      37.258  13.470  10.880  0.00  0.00     0.282 C 
HETATM    6  C   UNK N   1      36.567  13.014  12.179  0.00  0.00     0.170 C 
ENDROOT
BRANCH   3   7
HETATM    7  C   UNK N   1      35.400  16.340   9.759  0.00  0.00     0.215 C 
BRANCH   7   8
HETATM    8  O   UNK N   1      34.583  16.259   8.626  0.00  0.00    -0.294 OA
BRANCH   8   9
HETATM    9  P   UNK N   1      33.977  17.869   8.377  0.00  0.00     0.390 P 
HETATM   10  O   UNK N   1      34.726  17.586   7.047  0.00  0.00    -0.632 OA
BRANCH   9  11
HETATM   11  O   UNK N   1      35.090  19.195   8.253  0.00  0.00    -0.307 OA
HETATM   12  H   UNK N   1      34.939  19.993   7.724  0.00  0.00     0.222 HD
ENDBRANCH   9  11
BRANCH   9  13
HETATM   13  O   UNK N   1      35.090  17.857   9.711  0.00  0.00    -0.307 OA
HETATM   14  H   UNK N   1      35.976  18.253   9.692  0.00  0.00     0.222 HD
ENDBRANCH   9  13
ENDBRANCH   8   9
ENDBRANCH   7   8
ENDBRANCH   3   7
BRANCH   2  15
HETATM   15  O   UNK N   1      33.411  14.718  11.118  0.00  0.00    -0.390 OA
HETATM   16  H   UNK N   1      32.677  14.546  11.728  0.00  0.00     0.210 HD
ENDBRANCH   2  15
BRANCH   1  17
HETATM   17  O   UNK N   1      34.358  12.930  13.140  0.00  0.00    -0.391 OA
HETATM   18  H   UNK N   1      33.936  12.084  13.363  0.00  0.00     0.210 HD
ENDBRANCH   1  17
BRANCH   5  19
HETATM   19  O   UNK N   1      38.637  13.268  10.933  0.00  0.00    -0.369 OA
HETATM   20  H   UNK N   1      39.006  12.380  10.800  0.00  0.00     0.212 HD
ENDBRANCH   5  19
BRANCH   6  21
HETATM   21  N   UNK N   1      36.825  11.615  12.447  0.00  0.00    -0.349 N 
HETATM   22  C   UNK N   1      37.189  11.142  13.665  0.00  0.00     0.214 C 
HETATM   23  C   UNK N   1      37.341  12.045  14.848  0.00  0.00     0.117 C 
HETATM   24  O   UNK N   1      37.387   9.944  13.807  0.00  0.00    -0.274 OA
HETATM   25  H   UNK N   1      36.732  10.973  11.706  0.00  0.00     0.163 HD
ENDBRANCH   6  21
TORSDOF 9
ENDMDL
MODEL 2
REMARK VINA RESULT:      -6.1      3.209      6.648
REMARK  9 active torsions:
REMARK  status: ('A' for Active; 'I' for Inactive)
REMARK    1  A    between atoms: C_1  and  O_10 
REMARK    2  A    between atoms: C_2  and  O_8 
REMARK    3  A    between atoms: C_3  and  C_9 
REMARK    4  A    between atoms: C_5  and  O_11 
REMARK    5  A    between atoms: C_6  and  N_7 
REMARK       I    between atoms: N_7  and  C_12 
REMARK    6  A    between atoms: C_9  and  O_15 
REMARK    7  A    between atoms: O_15  and  P_16 
REMARK    8  A    between atoms: P_16  and  O_17 
REMARK    9  A    between atoms: P_16  and  O_18 
ROOT
HETATM    1  C   UNK N   1      35.600  16.056  10.175  0.00  0.00     0.177 C 
HETATM    2  C   UNK N   1      35.494  15.224  11.455  0.00  0.00     0.180 C 
HETATM    3  C   UNK N   1      35.331  13.752  11.052  0.00  0.00     0.180 C 
HETATM    4  O   UNK N   1      34.167  13.607  10.277  0.00  0.00    -0.349 OA
HETATM    5  C   UNK N   1      34.438  14.206   9.035  0.00  0.00     0.282 C 
HETATM    6  C   UNK N   1      34.452  15.735   9.210  0.00  0.00     0.170 C 
ENDROOT
BRANCH   3   7
HETATM    7  C   UNK N   1      35.231  12.858  12.275  0.00  0.00     0.215 C 
BRANCH   7   8
HETATM    8  O   UNK N   1      34.990  13.646  13.406  0.00  0.00    -0.294 OA
BRANCH   8   9
HETATM    9  P   UNK N   1      35.583  12.717  14.750  0.00  0.00     0.390 P 
HETATM   10  O   UNK N   1      34.113  13.000  15.165  0.00  0.00    -0.632 OA
BRANCH   9  11
HETATM   11  O   UNK N   1      35.741  13.466  16.308  0.00  0.00    -0.307 OA
HETATM   12  H   UNK N   1      36.222  14.290  16.477  0.00  0.00     0.222 HD
ENDBRANCH   9  11
BRANCH   9  13
HETATM   13  O   UNK N   1      36.472  14.203  14.623  0.00  0.00    -0.307 OA
HETATM   14  H   UNK N   1      36.068  15.086  14.600  0.00  0.00     0.222 HD
ENDBRANCH   9  13
ENDBRANCH   8   9
ENDBRANCH   7   8
ENDBRANCH   3   7
BRANCH   2  15
HETATM   15  O   UNK N   1      36.656  15.388  12.212  0.00  0.00    -0.390 OA
HETATM   16  H   UNK N   1      37.435  14.817  12.119  0.00  0.00     0.210 HD
ENDBRANCH   2  15
BRANCH   1  17
HETATM   17  O   UNK N   1      35.620  17.418  10.483  0.00  0.00    -0.391 OA
HETATM   18  H   UNK N   1      34.862  18.023  10.446  0.00  0.00     0.210 HD
ENDBRANCH   1  17
BRANCH   5  19
HETATM   19  O   UNK N   1      33.469  13.802   8.117  0.00  0.00    -0.369 OA
HETATM   20  H   UNK N   1      32.868  14.454   7.722  0.00  0.00     0.212 HD
ENDBRANCH   5  19
BRANCH   6  21
HETATM   21  N   UNK N   1      34.694  16.406   7.950  0.00  0.00    -0.349 N 
HETATM   22  C   UNK N   1      33.922  17.418   7.481  0.00  0.00     0.214 C 
HETATM   23  C   UNK N   1      32.749  17.936   8.251  0.00  0.00     0.117 C 
HETATM   24  O   UNK N   1      34.197  17.931   6.407  0.00  0.00    -0.274 OA
HETATM   25  H   UNK N   1      35.459  16.111   7.404  0.00  0.00     0.163 HD
ENDBRANCH   6  21
TORSDOF 9
ENDMDL
MODEL 3
REMARK VINA RESULT:      -6.1      6.981     10.040
REMARK  9 active torsions:
REMARK  status: ('A' for Active; 'I' for Inactive)
REMARK    1  A    between atoms: C_1  and  O_10 
REMARK    2  A    between atoms: C_2  and  O_8 
REMARK    3  A    between atoms: C_3  and  C_9 
REMARK    4  A    between atoms: C_5  and  O_11 
REMARK    5  A    between atoms: C_6  and  N_7 
REMARK       I    between atoms: N_7  and  C_12 
REMARK    6  A    between atoms: C_9  and  O_15 
REMARK    7  A    between atoms: O_15  and  P_16 
REMARK    8  A    between atoms: P_16  and  O_17 
REMARK    9  A    between atoms: P_16  and  O_18 
ROOT
HETATM    1  C   UNK N   1      29.080  17.618   5.454  0.00  0.00     0.177 C 
HETATM    2  C   UNK N   1      30.498  17.368   5.973  0.00  0.00     0.180 C 
HETATM    3  C   UNK N   1      30.398  16.941   7.444  0.00  0.00     0.180 C 
HETATM    4  O   UNK N   1      29.779  17.965   8.184  0.00  0.00    -0.349 OA
HETATM    5  C   UNK N   1      28.427  17.970   7.805  0.00  0.00     0.282 C 
HETATM    6  C   UNK N   1      28.308  18.559   6.387  0.00  0.00     0.170 C 
ENDROOT
BRANCH   3   7
HETATM    7  C   UNK N   1      31.772  16.663   8.027  0.00  0.00     0.215 C 
BRANCH   7   8
HETATM    8  O   UNK N   1      32.744  17.293   7.244  0.00  0.00    -0.294 OA
BRANCH   8   9
HETATM    9  P   UNK N   1      34.095  17.554   8.307  0.00  0.00     0.390 P 
HETATM   10  O   UNK N   1      33.063  18.596   8.818  0.00  0.00    -0.632 OA
BRANCH   9  11
HETATM   11  O   UNK N   1      34.967  19.053   8.234  0.00  0.00    -0.307 OA
HETATM   12  H   UNK N   1      35.489  19.350   7.474  0.00  0.00     0.222 HD
ENDBRANCH   9  11
BRANCH   9  13
HETATM   13  O   UNK N   1      34.554  17.912   6.671  0.00  0.00    -0.307 OA
HETATM   14  H   UNK N   1      34.256  18.691   6.173  0.00  0.00     0.222 HD
ENDBRANCH   9  13
ENDBRANCH   8   9
ENDBRANCH   7   8
ENDBRANCH   3   7
BRANCH   2  15
HETATM   15  O   UNK N   1      31.095  16.354   5.220  0.00  0.00    -0.390 OA
HETATM   16  H   UNK N   1      30.841  15.420   5.290  0.00  0.00     0.210 HD
ENDBRANCH   2  15
BRANCH   1  17
HETATM   17  O   UNK N   1      29.122  18.133   4.158  0.00  0.00    -0.391 OA
HETATM   18  H   UNK N   1      29.714  17.840   3.446  0.00  0.00     0.210 HD
ENDBRANCH   1  17
BRANCH   5  19
HETATM   19  O   UNK N   1      27.699  18.713   8.733  0.00  0.00    -0.369 OA
HETATM   20  H   UNK N   1      26.854  18.377   9.074  0.00  0.00     0.212 HD
ENDBRANCH   5  19
BRANCH   6  21
HETATM   21  N   UNK N   1      26.926  18.619   5.958  0.00  0.00    -0.349 N 
HETATM   22  C   UNK N   1      26.324  19.760   5.536  0.00  0.00     0.214 C 
HETATM   23  C   UNK N   1      27.059  21.060   5.469  0.00  0.00     0.117 C 
HETATM   24  O   UNK N   1      25.153  19.723   5.189  0.00  0.00    -0.274 OA
HETATM   25  H   UNK N   1      26.396  17.790   5.973  0.00  0.00     0.163 HD
ENDBRANCH   6  21
TORSDOF 9
ENDMDL
MODEL 4
REMARK VINA RESULT:      -5.9     15.957     17.716
REMARK  9 active torsions:
REMARK  status: ('A' for Active; 'I' for Inactive)
REMARK    1  A    between atoms: C_1  and  O_10 
REMARK    2  A    between atoms: C_2  and  O_8 
REMARK    3  A    between atoms: C_3  and  C_9 
REMARK    4  A    between atoms: C_5  and  O_11 
REMARK    5  A    between atoms: C_6  and  N_7 
REMARK       I    between atoms: N_7  and  C_12 
REMARK    6  A    between atoms: C_9  and  O_15 
REMARK    7  A    between atoms: O_15  and  P_16 
REMARK    8  A    between atoms: P_16  and  O_17 
REMARK    9  A    between atoms: P_16  and  O_18 
ROOT
HETATM    1  C   UNK N   1      31.846  21.226  -2.852  0.00  0.00     0.177 C 
HETATM    2  C   UNK N   1      31.260  22.632  -3.004  0.00  0.00     0.180 C 
HETATM    3  C   UNK N   1      30.189  22.585  -4.102  0.00  0.00     0.180 C 
HETATM    4  O   UNK N   1      30.778  22.168  -5.309  0.00  0.00    -0.349 OA
HETATM    5  C   UNK N   1      31.078  20.804  -5.156  0.00  0.00     0.282 C 
HETATM    6  C   UNK N   1      32.283  20.660  -4.209  0.00  0.00     0.170 C 
ENDROOT
BRANCH   3   7
HETATM    7  C   UNK N   1      29.551  23.948  -4.303  0.00  0.00     0.215 C 
BRANCH   7   8
HETATM    8  O   UNK N   1      28.586  24.158  -3.312  0.00  0.00    -0.294 OA
BRANCH   8   9
HETATM    9  P   UNK N   1      27.236  24.886  -4.130  0.00  0.00     0.390 P 
HETATM   10  O   UNK N   1      28.160  26.105  -3.863  0.00  0.00    -0.632 OA
BRANCH   9  11
HETATM   11  O   UNK N   1      26.208  25.991  -3.273  0.00  0.00    -0.307 OA
HETATM   12  H   UNK N   1      25.306  26.224  -3.540  0.00  0.00     0.222 HD
ENDBRANCH   9  11
BRANCH   9  13
HETATM   13  O   UNK N   1      26.709  24.188  -2.630  0.00  0.00    -0.307 OA
HETATM   14  H   UNK N   1      25.788  23.964  -2.420  0.00  0.00     0.222 HD
ENDBRANCH   9  13
ENDBRANCH   8   9
ENDBRANCH   7   8
ENDBRANCH   3   7
BRANCH   2  15
HETATM   15  O   UNK N   1      30.687  23.028  -1.793  0.00  0.00    -0.390 OA
HETATM   16  H   UNK N   1      30.644  22.454  -1.012  0.00  0.00     0.210 HD
ENDBRANCH   2  15
BRANCH   1  17
HETATM   17  O   UNK N   1      32.915  21.241  -1.955  0.00  0.00    -0.391 OA
HETATM   18  H   UNK N   1      32.849  21.309  -0.989  0.00  0.00     0.210 HD
ENDBRANCH   1  17
BRANCH   5  19
HETATM   19  O   UNK N   1      31.341  20.254  -6.410  0.00  0.00    -0.369 OA
HETATM   20  H   UNK N   1      30.648  19.772  -6.888  0.00  0.00     0.212 HD
ENDBRANCH   5  19
BRANCH   6  21
HETATM   21  N   UNK N   1      32.657  19.272  -4.042  0.00  0.00    -0.349 N 
HETATM   22  C   UNK N   1      33.929  18.818  -4.181  0.00  0.00     0.214 C 
HETATM   23  C   UNK N   1      35.062  19.737  -4.510  0.00  0.00     0.117 C 
HETATM   24  O   UNK N   1      34.160  17.629  -4.021  0.00  0.00    -0.274 OA
HETATM   25  H   UNK N   1      31.953  18.623  -3.816  0.00  0.00     0.163 HD
ENDBRANCH   6  21
TORSDOF 9
ENDMDL
MODEL 5
REMARK VINA RESULT:      -5.8      6.662      8.608
REMARK  9 active torsions:
REMARK  status: ('A' for Active; 'I' for Inactive)
REMARK    1  A    between atoms: C_1  and  O_10 
REMARK    2  A    between atoms: C_2  and  O_8 
REMARK    3  A    between atoms: C_3  and  C_9 
REMARK    4  A    between atoms: C_5  and  O_11 
REMARK    5  A    between atoms: C_6  and  N_7 
REMARK       I    between atoms: N_7  and  C_12 
REMARK    6  A    between atoms: C_9  and  O_15 
REMARK    7  A    between atoms: O_15  and  P_16 
REMARK    8  A    between atoms: P_16  and  O_17 
REMARK    9  A    between atoms: P_16  and  O_18 
ROOT
HETATM    1  C   UNK N   1      29.732  17.778   9.076  0.00  0.00     0.177 C 
HETATM    2  C   UNK N   1      28.582  18.460   8.331  0.00  0.00     0.180 C 
HETATM    3  C   UNK N   1      28.377  17.727   6.999  0.00  0.00     0.180 C 
HETATM    4  O   UNK N   1      29.560  17.796   6.242  0.00  0.00    -0.349 OA
HETATM    5  C   UNK N   1      30.491  16.959   6.879  0.00  0.00     0.282 C 
HETATM    6  C   UNK N   1      30.966  17.637   8.177  0.00  0.00     0.170 C 
ENDROOT
BRANCH   3   7
HETATM    7  C   UNK N   1      27.238  18.342   6.205  0.00  0.00     0.215 C 
BRANCH   7   8
HETATM    8  O   UNK N   1      27.190  19.718   6.456  0.00  0.00    -0.294 OA
BRANCH   8   9
HETATM    9  P   UNK N   1      26.465  20.419   5.040  0.00  0.00     0.390 P 
HETATM   10  O   UNK N   1      25.730  19.056   5.149  0.00  0.00    -0.632 OA
BRANCH   9  11
HETATM   11  O   UNK N   1      26.735  19.691   3.488  0.00  0.00    -0.307 OA
HETATM   12  H   UNK N   1      26.915  18.749   3.345  0.00  0.00     0.222 HD
ENDBRANCH   9  11
BRANCH   9  13
HETATM   13  O   UNK N   1      28.163  20.169   4.772  0.00  0.00    -0.307 OA
HETATM   14  H   UNK N   1      28.595  19.301   4.751  0.00  0.00     0.222 HD
ENDBRANCH   9  13
ENDBRANCH   8   9
ENDBRANCH   7   8
ENDBRANCH   3   7
BRANCH   2  15
HETATM   15  O   UNK N   1      27.421  18.385   9.104  0.00  0.00    -0.390 OA
HETATM   16  H   UNK N   1      26.667  17.819   8.876  0.00  0.00     0.210 HD
ENDBRANCH   2  15
BRANCH   1  17
HETATM   17  O   UNK N   1      30.045  18.487  10.237  0.00  0.00    -0.391 OA
HETATM   18  H   UNK N   1      30.180  18.106  11.120  0.00  0.00     0.210 HD
ENDBRANCH   1  17
BRANCH   5  19
HETATM   19  O   UNK N   1      31.552  16.716   6.008  0.00  0.00    -0.369 OA
HETATM   20  H   UNK N   1      32.420  17.120   6.169  0.00  0.00     0.212 HD
ENDBRANCH   5  19
BRANCH   6  21
HETATM   21  N   UNK N   1      31.956  16.829   8.859  0.00  0.00    -0.349 N 
HETATM   22  C   UNK N   1      33.285  17.103   8.841  0.00  0.00     0.214 C 
HETATM   23  C   UNK N   1      33.835  18.289   8.115  0.00  0.00     0.117 C 
HETATM   24  O   UNK N   1      34.054  16.371   9.446  0.00  0.00    -0.274 OA
HETATM   25  H   UNK N   1      31.649  16.040   9.361  0.00  0.00     0.163 HD
ENDBRANCH   6  21
TORSDOF 9
ENDMDL
MODEL 6
REMARK VINA RESULT:      -5.5      4.215      7.244
REMARK  9 active torsions:
REMARK  status: ('A' for Active; 'I' for Inactive)
REMARK    1  A    between atoms: C_1  and  O_10 
REMARK    2  A    between atoms: C_2  and  O_8 
REMARK    3  A    between atoms: C_3  and  C_9 
REMARK    4  A    between atoms: C_5  and  O_11 
REMARK    5  A    between atoms: C_6  and  N_7 
REMARK       I    between atoms: N_7  and  C_12 
REMARK    6  A    between atoms: C_9  and  O_15 
REMARK    7  A    between atoms: O_15  and  P_16 
REMARK    8  A    between atoms: P_16  and  O_17 
REMARK    9  A    between atoms: P_16  and  O_18 
ROOT
HETATM    1  C   UNK N   1      32.326  15.058   7.307  0.00  0.00     0.177 C 
HETATM    2  C   UNK N   1      33.326  14.756   8.426  0.00  0.00     0.180 C 
HETATM    3  C   UNK N   1      33.945  16.085   8.881  0.00  0.00     0.180 C 
HETATM    4  O   UNK N   1      34.596  16.692   7.792  0.00  0.00    -0.349 OA
HETATM    5  C   UNK N   1      33.588  17.139   6.923  0.00  0.00     0.282 C 
HETATM    6  C   UNK N   1      32.964  15.923   6.214  0.00  0.00     0.170 C 
ENDROOT
BRANCH   3   7
HETATM    7  C   UNK N   1      34.944  15.867  10.003  0.00  0.00     0.215 C 
BRANCH   7   8
HETATM    8  O   UNK N   1      35.713  14.732   9.725  0.00  0.00    -0.294 OA
BRANCH   8   9
HETATM    9  P   UNK N   1      36.417  14.268  11.245  0.00  0.00     0.390 P 
HETATM   10  O   UNK N   1      34.900  14.294  11.575  0.00  0.00    -0.632 OA
BRANCH   9  11
HETATM   11  O   UNK N   1      36.319  15.346  12.601  0.00  0.00    -0.307 OA
HETATM   12  H   UNK N   1      36.964  16.041  12.800  0.00  0.00     0.222 HD
ENDBRANCH   9  11
BRANCH   9  13
HETATM   13  O   UNK N   1      36.966  15.855  10.801  0.00  0.00    -0.307 OA
HETATM   14  H   UNK N   1      36.786  16.281   9.948  0.00  0.00     0.222 HD
ENDBRANCH   9  13
ENDBRANCH   8   9
ENDBRANCH   7   8
ENDBRANCH   3   7
BRANCH   2  15
HETATM   15  O   UNK N   1      32.659  14.148   9.492  0.00  0.00    -0.390 OA
HETATM   16  H   UNK N   1      31.846  13.630   9.384  0.00  0.00     0.210 HD
ENDBRANCH   2  15
BRANCH   1  17
HETATM   17  O   UNK N   1      31.829  13.869   6.768  0.00  0.00    -0.391 OA
HETATM   18  H   UNK N   1      32.356  13.162   6.364  0.00  0.00     0.210 HD
ENDBRANCH   1  17
BRANCH   5  19
HETATM   19  O   UNK N   1      34.142  18.038   6.011  0.00  0.00    -0.369 OA
HETATM   20  H   UNK N   1      34.276  17.775   5.086  0.00  0.00     0.212 HD
ENDBRANCH   5  19
BRANCH   6  21
HETATM   21  N   UNK N   1      31.938  16.332   5.277  0.00  0.00    -0.349 N 
HETATM   22  C   UNK N   1      32.085  16.261   3.930  0.00  0.00     0.214 C 
HETATM   23  C   UNK N   1      33.335  15.733   3.300  0.00  0.00     0.117 C 
HETATM   24  O   UNK N   1      31.168  16.625   3.209  0.00  0.00    -0.274 OA
HETATM   25  H   UNK N   1      31.090  16.679   5.636  0.00  0.00     0.163 HD
ENDBRANCH   6  21
TORSDOF 9
ENDMDL
MODEL 7
REMARK VINA RESULT:      -5.5      7.012      9.991
REMARK  9 active torsions:
REMARK  status: ('A' for Active; 'I' for Inactive)
REMARK    1  A    between atoms: C_1  and  O_10 
REMARK    2  A    between atoms: C_2  and  O_8 
REMARK    3  A    between atoms: C_3  and  C_9 
REMARK    4  A    between atoms: C_5  and  O_11 
REMARK    5  A    between atoms: C_6  and  N_7 
REMARK       I    between atoms: N_7  and  C_12 
REMARK    6  A    between atoms: C_9  and  O_15 
REMARK    7  A    between atoms: O_15  and  P_16 
REMARK    8  A    between atoms: P_16  and  O_17 
REMARK    9  A    between atoms: P_16  and  O_18 
ROOT
HETATM    1  C   UNK N   1      28.638  18.443   8.130  0.00  0.00     0.177 C 
HETATM    2  C   UNK N   1      29.487  17.221   8.488  0.00  0.00     0.180 C 
HETATM    3  C   UNK N   1      30.601  17.092   7.440  0.00  0.00     0.180 C 
HETATM    4  O   UNK N   1      30.025  16.933   6.167  0.00  0.00    -0.349 OA
HETATM    5  C   UNK N   1      29.464  18.174   5.824  0.00  0.00     0.282 C 
HETATM    6  C   UNK N   1      28.193  18.397   6.664  0.00  0.00     0.170 C 
ENDROOT
BRANCH   3   7
HETATM    7  C   UNK N   1      31.496  15.903   7.736  0.00  0.00     0.215 C 
BRANCH   7   8
HETATM    8  O   UNK N   1      32.435  16.262   8.709  0.00  0.00    -0.294 OA
BRANCH   8   9
HETATM    9  P   UNK N   1      33.193  14.773   9.190  0.00  0.00     0.390 P 
HETATM   10  O   UNK N   1      32.699  14.446   7.754  0.00  0.00    -0.632 OA
BRANCH   9  11
HETATM   11  O   UNK N   1      32.224  13.350   9.411  0.00  0.00    -0.307 OA
HETATM   12  H   UNK N   1      32.544  12.442   9.296  0.00  0.00     0.222 HD
ENDBRANCH   9  11
BRANCH   9  13
HETATM   13  O   UNK N   1      31.843  15.111  10.230  0.00  0.00    -0.307 OA
HETATM   14  H   UNK N   1      30.942  14.778  10.088  0.00  0.00     0.222 HD
ENDBRANCH   9  13
ENDBRANCH   8   9
ENDBRANCH   7   8
ENDBRANCH   3   7
BRANCH   2  15
HETATM   15  O   UNK N   1      30.043  17.398   9.758  0.00  0.00    -0.390 OA
HETATM   16  H   UNK N   1      29.591  17.872  10.474  0.00  0.00     0.210 HD
ENDBRANCH   2  15
BRANCH   1  17
HETATM   17  O   UNK N   1      27.533  18.531   8.980  0.00  0.00    -0.391 OA
HETATM   18  H   UNK N   1      27.101  19.349   9.271  0.00  0.00     0.210 HD
ENDBRANCH   1  17
BRANCH   5  19
HETATM   19  O   UNK N   1      29.185  18.184   4.458  0.00  0.00    -0.369 OA
HETATM   20  H   UNK N   1      28.646  17.479   4.063  0.00  0.00     0.212 HD
ENDBRANCH   5  19
BRANCH   6  21
HETATM   21  N   UNK N   1      27.553  19.651   6.325  0.00  0.00    -0.349 N 
HETATM   22  C   UNK N   1      26.447  19.738   5.545  0.00  0.00     0.214 C 
HETATM   23  C   UNK N   1      25.785  18.524   4.976  0.00  0.00     0.117 C 
HETATM   24  O   UNK N   1      25.968  20.838   5.309  0.00  0.00    -0.274 OA
HETATM   25  H   UNK N   1      27.941  20.483   6.680  0.00  0.00     0.163 HD
ENDBRANCH   6  21
TORSDOF 9
ENDMDL
MODEL 8
REMARK VINA RESULT:      -5.5     14.847     16.413
REMARK  9 active torsions:
REMARK  status: ('A' for Active; 'I' for Inactive)
REMARK    1  A    between atoms: C_1  and  O_10 
REMARK    2  A    between atoms: C_2  and  O_8 
REMARK    3  A    between atoms: C_3  and  C_9 
REMARK    4  A    between atoms: C_5  and  O_11 
REMARK    5  A    between atoms: C_6  and  N_7 
REMARK       I    between atoms: N_7  and  C_12 
REMARK    6  A    between atoms: C_9  and  O_15 
REMARK    7  A    between atoms: O_15  and  P_16 
REMARK    8  A    between atoms: P_16  and  O_17 
REMARK    9  A    between atoms: P_16  and  O_18 
ROOT
HETATM    1  C   UNK N   1      19.919  15.790   5.125  0.00  0.00     0.177 C 
HETATM    2  C   UNK N   1      19.881  17.246   4.654  0.00  0.00     0.180 C 
HETATM    3  C   UNK N   1      21.320  17.684   4.349  0.00  0.00     0.180 C 
HETATM    4  O   UNK N   1      22.100  17.566   5.513  0.00  0.00    -0.349 OA
HETATM    5  C   UNK N   1      22.271  16.190   5.741  0.00  0.00     0.282 C 
HETATM    6  C   UNK N   1      20.944  15.599   6.249  0.00  0.00     0.170 C 
ENDROOT
BRANCH   3   7
HETATM    7  C   UNK N   1      21.363  19.122   3.862  0.00  0.00     0.215 C 
BRANCH   7   8
HETATM    8  O   UNK N   1      21.753  19.145   2.519  0.00  0.00    -0.294 OA
BRANCH   8   9
HETATM    9  P   UNK N   1      20.602  20.175   1.722  0.00  0.00     0.390 P 
HETATM   10  O   UNK N   1      20.248  18.775   1.150  0.00  0.00    -0.632 OA
BRANCH   9  11
HETATM   11  O   UNK N   1      20.702  20.404   0.004  0.00  0.00    -0.307 OA
HETATM   12  H   UNK N   1      21.462  20.791  -0.457  0.00  0.00     0.222 HD
ENDBRANCH   9  11
BRANCH   9  13
HETATM   13  O   UNK N   1      22.215  20.624   1.260  0.00  0.00    -0.307 OA
HETATM   14  H   UNK N   1      22.971  20.016   1.238  0.00  0.00     0.222 HD
ENDBRANCH   9  13
ENDBRANCH   8   9
ENDBRANCH   7   8
ENDBRANCH   3   7
BRANCH   2  15
HETATM   15  O   UNK N   1      19.097  17.341   3.502  0.00  0.00    -0.390 OA
HETATM   16  H   UNK N   1      19.242  16.794   2.714  0.00  0.00     0.210 HD
ENDBRANCH   2  15
BRANCH   1  17
HETATM   17  O   UNK N   1      18.649  15.382   5.539  0.00  0.00    -0.391 OA
HETATM   18  H   UNK N   1      18.400  14.487   5.818  0.00  0.00     0.210 HD
ENDBRANCH   1  17
BRANCH   5  19
HETATM   19  O   UNK N   1      23.302  16.008   6.662  0.00  0.00    -0.369 OA
HETATM   20  H   UNK N   1      23.615  16.754   7.199  0.00  0.00     0.212 HD
ENDBRANCH   5  19
BRANCH   6  21
HETATM   21  N   UNK N   1      21.074  14.185   6.533  0.00  0.00    -0.349 N 
HETATM   22  C   UNK N   1      20.918  13.654   7.771  0.00  0.00     0.214 C 
HETATM   23  C   UNK N   1      20.581  14.502   8.956  0.00  0.00     0.117 C 
HETATM   24  O   UNK N   1      21.043  12.448   7.925  0.00  0.00    -0.274 OA
HETATM   25  H   UNK N   1      21.286  13.577   5.788  0.00  0.00     0.163 HD
ENDBRANCH   6  21
TORSDOF 9
ENDMDL
MODEL 9
REMARK VINA RESULT:      -5.3      4.544      7.449
REMARK  9 active torsions:
REMARK  status: ('A' for Active; 'I' for Inactive)
REMARK    1  A    between atoms: C_1  and  O_10 
REMARK    2  A    between atoms: C_2  and  O_8 
REMARK    3  A    between atoms: C_3  and  C_9 
REMARK    4  A    between atoms: C_5  and  O_11 
REMARK    5  A    between atoms: C_6  and  N_7 
REMARK       I    between atoms: N_7  and  C_12 
REMARK    6  A    between atoms: C_9  and  O_15 
REMARK    7  A    between atoms: O_15  and  P_16 
REMARK    8  A    between atoms: P_16  and  O_17 
REMARK    9  A    between atoms: P_16  and  O_18 
ROOT
HETATM    1  C   UNK N   1      32.240  17.234   8.309  0.00  0.00     0.177 C 
HETATM    2  C   UNK N   1      33.108  16.418   9.270  0.00  0.00     0.180 C 
HETATM    3  C   UNK N   1      33.644  15.199   8.507  0.00  0.00     0.180 C 
HETATM    4  O   UNK N   1      32.563  14.426   8.047  0.00  0.00    -0.349 OA
HETATM    5  C   UNK N   1      31.961  15.159   7.010  0.00  0.00     0.282 C 
HETATM    6  C   UNK N   1      31.196  16.349   7.619  0.00  0.00     0.170 C 
ENDROOT
BRANCH   3   7
HETATM    7  C   UNK N   1      34.528  14.342   9.396  0.00  0.00     0.215 C 
BRANCH   7   8
HETATM    8  O   UNK N   1      35.761  14.979   9.574  0.00  0.00    -0.294 OA
BRANCH   8   9
HETATM    9  P   UNK N   1      36.369  14.392  11.093  0.00  0.00     0.390 P 
HETATM   10  O   UNK N   1      34.836  14.429  11.340  0.00  0.00    -0.632 OA
BRANCH   9  11
HETATM   11  O   UNK N   1      36.214  15.373  12.516  0.00  0.00    -0.307 OA
HETATM   12  H   UNK N   1      35.779  15.091  13.335  0.00  0.00     0.222 HD
ENDBRANCH   9  11
BRANCH   9  13
HETATM   13  O   UNK N   1      36.971  15.994  10.796  0.00  0.00    -0.307 OA
HETATM   14  H   UNK N   1      36.459  16.807  10.928  0.00  0.00     0.222 HD
ENDBRANCH   9  13
ENDBRANCH   8   9
ENDBRANCH   7   8
ENDBRANCH   3   7
BRANCH   2  15
HETATM   15  O   UNK N   1      34.170  17.207   9.719  0.00  0.00    -0.390 OA
HETATM   16  H   UNK N   1      35.087  17.077   9.431  0.00  0.00     0.210 HD
ENDBRANCH   2  15
BRANCH   1  17
HETATM   17  O   UNK N   1      31.623  18.286   8.989  0.00  0.00    -0.391 OA
HETATM   18  H   UNK N   1      31.473  19.180   8.642  0.00  0.00     0.210 HD
ENDBRANCH   1  17
BRANCH   5  19
HETATM   19  O   UNK N   1      31.114  14.316   6.292  0.00  0.00    -0.369 OA
HETATM   20  H   UNK N   1      30.611  14.657   5.535  0.00  0.00     0.212 HD
ENDBRANCH   5  19
BRANCH   6  21
HETATM   21  N   UNK N   1      30.526  17.121   6.593  0.00  0.00    -0.349 N 
HETATM   22  C   UNK N   1      29.243  17.549   6.699  0.00  0.00     0.214 C 
HETATM   23  C   UNK N   1      28.414  17.261   7.910  0.00  0.00     0.117 C 
HETATM   24  O   UNK N   1      28.753  18.198   5.787  0.00  0.00    -0.274 OA
HETATM   25  H   UNK N   1      31.028  17.348   5.777  0.00  0.00     0.163 HD
ENDBRANCH   6  21
TORSDOF 9
ENDMDL
