REMARK  9 active torsions:
REMARK  status: ('A' for Active; 'I' for Inactive)
REMARK    1  A    between atoms: C_1  and  O_10 
REMARK    2  A    between atoms: C_2  and  O_8 
REMARK    3  A    between atoms: C_3  and  C_9 
REMARK    4  A    between atoms: C_5  and  O_11 
REMARK    5  A    between atoms: C_6  and  N_7 
REMARK       I    between atoms: N_7  and  C_12 
REMARK    6  A    between atoms: C_9  and  O_15 
REMARK    7  A    between atoms: O_15  and  P_16 
REMARK    8  A    between atoms: P_16  and  O_17 
REMARK    9  A    between atoms: P_16  and  O_18 
ROOT
HETATM    1  C   UNK N   1      -1.504   1.325   0.079  0.00  0.00     0.177 C 
HETATM    2  C   UNK N   1      -1.660  -0.108  -0.435  0.00  0.00     0.180 C 
HETATM    3  C   UNK N   1      -0.503  -0.944   0.128  0.00  0.00     0.180 C 
HETATM    4  O   UNK N   1       0.719  -0.399  -0.305  0.00  0.00    -0.349 OA
HETATM    5  C   UNK N   1       0.886   0.810   0.391  0.00  0.00     0.282 C 
HETATM    6  C   UNK N   1      -0.089   1.855  -0.182  0.00  0.00     0.170 C 
ENDROOT
BRANCH   3   7
HETATM    7  C   UNK N   1      -0.597  -2.388  -0.331  0.00  0.00     0.215 C 
BRANCH   7   8
HETATM    8  O   UNK N   1       0.331  -3.160   0.376  0.00  0.00    -0.294 OA
BRANCH   8   9
HETATM    9  P   UNK N   1       0.594  -4.574  -0.600  0.00  0.00     0.390 P 
HETATM   10  O   UNK N   1      -0.304  -5.121   0.543  0.00  0.00    -0.632 OA
BRANCH   9  11
HETATM   11  O   UNK N   1       1.517  -5.898   0.039  0.00  0.00    -0.307 OA
HETATM   12  H   UNK N   1       1.135  -6.714   0.396  0.00  0.00     0.222 HD
ENDBRANCH   9  11
BRANCH   9  13
HETATM   13  O   UNK N   1       2.107  -4.009   0.039  0.00  0.00    -0.307 OA
HETATM   14  H   UNK N   1       2.803  -4.584   0.395  0.00  0.00     0.222 HD
ENDBRANCH   9  13
ENDBRANCH   8   9
ENDBRANCH   7   8
ENDBRANCH   3   7
BRANCH   2  15
HETATM   15  O   UNK N   1      -2.882  -0.626   0.001  0.00  0.00    -0.390 OA
HETATM   16  H   UNK N   1      -3.617  -0.070   0.304  0.00  0.00     0.210 HD
ENDBRANCH   2  15
BRANCH   1  17
HETATM   17  O   UNK N   1      -2.459   2.157  -0.508  0.00  0.00    -0.391 OA
HETATM   18  H   UNK N   1      -2.290   3.021  -0.916  0.00  0.00     0.210 HD
ENDBRANCH   1  17
BRANCH   5  19
HETATM   19  O   UNK N   1       2.212   1.223   0.270  0.00  0.00    -0.369 OA
HETATM   20  H   UNK N   1       2.923   0.567   0.186  0.00  0.00     0.212 HD
ENDBRANCH   5  19
BRANCH   6  21
HETATM   21  N   UNK N   1       0.065   3.134   0.479  0.00  0.00    -0.349 N 
HETATM   22  C   UNK N   1       1.009   4.045   0.133  0.00  0.00     0.214 C 
HETATM   23  C   UNK N   1       1.970   3.798  -0.986  0.00  0.00     0.117 C 
HETATM   24  O   UNK N   1       1.070   5.103   0.742  0.00  0.00    -0.274 OA
HETATM   25  H   UNK N   1      -0.547   3.354   1.218  0.00  0.00     0.163 HD
ENDBRANCH   6  21
TORSDOF 9
