REMARK  5 active torsions:
REMARK  status: ('A' for Active; 'I' for Inactive)
REMARK    1  A    between atoms: C_1  and  C_8 
REMARK    2  A    between atoms: C_4  and  O_5 
REMARK    3  A    between atoms: C_8  and  C_9 
REMARK    4  A    between atoms: C_9  and  C_10 
REMARK    5  A    between atoms: C_10  and  O_12 
ROOT
HETATM    1  C   UNK N   1      -0.097  -0.267   0.000  0.00  0.00    -0.058 A 
HETATM    2  C   UNK N   1      -0.188  -1.661  -0.000  0.00  0.00     0.010 A 
HETATM    3  C   UNK N   1      -1.439  -2.284  -0.000  0.00  0.00     0.037 A 
HETATM    4  C   UNK N   1      -2.604  -1.512  -0.000  0.00  0.00     0.065 A 
HETATM    5  C   UNK N   1      -2.520  -0.118  -0.000  0.00  0.00     0.037 A 
HETATM    6  C   UNK N   1      -1.271   0.505   0.000  0.00  0.00     0.010 A 
ENDROOT
BRANCH   1   7
HETATM    7  C   UNK N   1       1.262   0.360   0.000  0.00  0.00     0.049 C 
BRANCH   7   8
HETATM    8  C   UNK N   1       1.235   1.883   0.000  0.00  0.00     0.114 C 
BRANCH   8   9
HETATM    9  C   UNK N   1       2.615   2.460  -0.000  0.00  0.00     0.139 C 
HETATM   10  O   UNK N   1       2.760   3.666  -0.000  0.00  0.00    -0.650 OA
BRANCH   9  11
HETATM   11  O   UNK N   1       3.699   1.654  -0.000  0.00  0.00    -0.776 OA
HETATM   12  H   UNK N   1       3.591   0.723  -0.000  0.00  0.00     0.167 HD
ENDBRANCH   9  11
ENDBRANCH   8   9
ENDBRANCH   7   8
ENDBRANCH   1   7
BRANCH   4  13
HETATM   13  O   UNK N   1      -3.805  -2.111  -0.000  0.00  0.00    -0.361 OA
HETATM   14  H   UNK N   1      -4.586  -1.594  -0.000  0.00  0.00     0.217 HD
ENDBRANCH   4  13
TORSDOF 5
