MODEL 1
REMARK VINA RESULT:      -5.5      0.000      0.000
REMARK  5 active torsions:
REMARK  status: ('A' for Active; 'I' for Inactive)
REMARK    1  A    between atoms: C_1  and  C_8 
REMARK    2  A    between atoms: C_4  and  O_5 
REMARK    3  A    between atoms: C_8  and  C_9 
REMARK    4  A    between atoms: C_9  and  C_10 
REMARK    5  A    between atoms: C_10  and  O_12 
ROOT
HETATM    1  C   UNK N   1      31.056  17.387   7.976  0.00  0.00    -0.058 A 
HETATM    2  C   UNK N   1      30.801  18.142   9.124  0.00  0.00     0.010 A 
HETATM    3  C   UNK N   1      29.552  18.742   9.308  0.00  0.00     0.037 A 
HETATM    4  C   UNK N   1      28.554  18.588   8.341  0.00  0.00     0.065 A 
HETATM    5  C   UNK N   1      28.803  17.835   7.192  0.00  0.00     0.037 A 
HETATM    6  C   UNK N   1      30.050  17.236   7.007  0.00  0.00     0.010 A 
ENDROOT
BRANCH   1   7
HETATM    7  C   UNK N   1      32.407  16.762   7.818  0.00  0.00     0.049 C 
BRANCH   7   8
HETATM    8  C   UNK N   1      33.478  17.384   8.703  0.00  0.00     0.114 C 
BRANCH   8   9
HETATM    9  C   UNK N   1      34.430  18.224   7.911  0.00  0.00     0.139 C 
HETATM   10  O   UNK N   1      34.483  18.092   6.705  0.00  0.00    -0.650 OA
BRANCH   9  11
HETATM   11  O   UNK N   1      35.228  19.125   8.524  0.00  0.00    -0.776 OA
HETATM   12  H   UNK N   1      35.707  18.881   9.292  0.00  0.00     0.167 HD
ENDBRANCH   9  11
ENDBRANCH   8   9
ENDBRANCH   7   8
ENDBRANCH   1   7
BRANCH   4  13
HETATM   13  O   UNK N   1      27.355  19.165   8.518  0.00  0.00    -0.361 OA
HETATM   14  H   UNK N   1      26.882  19.496   7.781  0.00  0.00     0.217 HD
ENDBRANCH   4  13
TORSDOF 5
ENDMDL
MODEL 2
REMARK VINA RESULT:      -5.3      0.751      1.724
REMARK  5 active torsions:
REMARK  status: ('A' for Active; 'I' for Inactive)
REMARK    1  A    between atoms: C_1  and  C_8 
REMARK    2  A    between atoms: C_4  and  O_5 
REMARK    3  A    between atoms: C_8  and  C_9 
REMARK    4  A    between atoms: C_9  and  C_10 
REMARK    5  A    between atoms: C_10  and  O_12 
ROOT
HETATM    1  C   UNK N   1      31.172  17.447   7.874  0.00  0.00    -0.058 A 
HETATM    2  C   UNK N   1      30.140  17.263   6.951  0.00  0.00     0.010 A 
HETATM    3  C   UNK N   1      28.867  17.780   7.206  0.00  0.00     0.037 A 
HETATM    4  C   UNK N   1      28.624  18.485   8.388  0.00  0.00     0.065 A 
HETATM    5  C   UNK N   1      29.651  18.673   9.315  0.00  0.00     0.037 A 
HETATM    6  C   UNK N   1      30.922  18.156   9.061  0.00  0.00     0.010 A 
ENDROOT
BRANCH   1   7
HETATM    7  C   UNK N   1      32.520  16.877   7.563  0.00  0.00     0.049 C 
BRANCH   7   8
HETATM    8  C   UNK N   1      33.578  17.931   7.263  0.00  0.00     0.114 C 
BRANCH   8   9
HETATM    9  C   UNK N   1      34.447  18.195   8.452  0.00  0.00     0.139 C 
HETATM   10  O   UNK N   1      35.239  19.115   8.423  0.00  0.00    -0.650 OA
BRANCH   9  11
HETATM   11  O   UNK N   1      34.358  17.421   9.556  0.00  0.00    -0.776 OA
HETATM   12  H   UNK N   1      34.265  17.817  10.400  0.00  0.00     0.167 HD
ENDBRANCH   9  11
ENDBRANCH   8   9
ENDBRANCH   7   8
ENDBRANCH   1   7
BRANCH   4  13
HETATM   13  O   UNK N   1      27.401  18.982   8.632  0.00  0.00    -0.361 OA
HETATM   14  H   UNK N   1      27.278  19.608   9.318  0.00  0.00     0.217 HD
ENDBRANCH   4  13
TORSDOF 5
ENDMDL
MODEL 3
REMARK VINA RESULT:      -5.1      9.820     11.277
REMARK  5 active torsions:
REMARK  status: ('A' for Active; 'I' for Inactive)
REMARK    1  A    between atoms: C_1  and  C_8 
REMARK    2  A    between atoms: C_4  and  O_5 
REMARK    3  A    between atoms: C_8  and  C_9 
REMARK    4  A    between atoms: C_9  and  C_10 
REMARK    5  A    between atoms: C_10  and  O_12 
ROOT
HETATM    1  C   UNK N   1      35.611  12.147  16.550  0.00  0.00    -0.058 A 
HETATM    2  C   UNK N   1      35.657  11.113  17.489  0.00  0.00     0.010 A 
HETATM    3  C   UNK N   1      35.456  11.385  18.845  0.00  0.00     0.037 A 
HETATM    4  C   UNK N   1      35.207  12.694  19.266  0.00  0.00     0.065 A 
HETATM    5  C   UNK N   1      35.159  13.732  18.332  0.00  0.00     0.037 A 
HETATM    6  C   UNK N   1      35.360  13.462  16.978  0.00  0.00     0.010 A 
ENDROOT
BRANCH   1   7
HETATM    7  C   UNK N   1      35.832  11.813  15.108  0.00  0.00     0.049 C 
BRANCH   7   8
HETATM    8  C   UNK N   1      36.872  12.693  14.427  0.00  0.00     0.114 C 
BRANCH   8   9
HETATM    9  C   UNK N   1      36.252  13.585  13.399  0.00  0.00     0.139 C 
HETATM   10  O   UNK N   1      35.045  13.716  13.368  0.00  0.00    -0.650 OA
BRANCH   9  11
HETATM   11  O   UNK N   1      37.021  14.245  12.506  0.00  0.00    -0.776 OA
HETATM   12  H   UNK N   1      37.618  14.906  12.799  0.00  0.00     0.167 HD
ENDBRANCH   9  11
ENDBRANCH   8   9
ENDBRANCH   7   8
ENDBRANCH   1   7
BRANCH   4  13
HETATM   13  O   UNK N   1      35.013  12.955  20.568  0.00  0.00    -0.361 OA
HETATM   14  H   UNK N   1      34.847  13.832  20.850  0.00  0.00     0.217 HD
ENDBRANCH   4  13
TORSDOF 5
ENDMDL
MODEL 4
REMARK VINA RESULT:      -4.9     15.556     16.847
REMARK  5 active torsions:
REMARK  status: ('A' for Active; 'I' for Inactive)
REMARK    1  A    between atoms: C_1  and  C_8 
REMARK    2  A    between atoms: C_4  and  O_5 
REMARK    3  A    between atoms: C_8  and  C_9 
REMARK    4  A    between atoms: C_9  and  C_10 
REMARK    5  A    between atoms: C_10  and  O_12 
ROOT
HETATM    1  C   UNK N   1      25.843  25.100  -5.115  0.00  0.00    -0.058 A 
HETATM    2  C   UNK N   1      26.426  25.338  -3.868  0.00  0.00     0.010 A 
HETATM    3  C   UNK N   1      26.331  26.601  -3.277  0.00  0.00     0.037 A 
HETATM    4  C   UNK N   1      25.651  27.631  -3.934  0.00  0.00     0.065 A 
HETATM    5  C   UNK N   1      25.066  27.399  -5.180  0.00  0.00     0.037 A 
HETATM    6  C   UNK N   1      25.160  26.138  -5.771  0.00  0.00     0.010 A 
ENDROOT
BRANCH   1   7
HETATM    7  C   UNK N   1      25.967  23.734  -5.713  0.00  0.00     0.049 C 
BRANCH   7   8
HETATM    8  C   UNK N   1      25.928  23.724  -7.235  0.00  0.00     0.114 C 
BRANCH   8   9
HETATM    9  C   UNK N   1      25.405  22.427  -7.766  0.00  0.00     0.139 C 
HETATM   10  O   UNK N   1      26.162  21.487  -7.902  0.00  0.00    -0.650 OA
BRANCH   9  11
HETATM   11  O   UNK N   1      24.102  22.292  -8.095  0.00  0.00    -0.776 OA
HETATM   12  H   UNK N   1      23.862  22.010  -8.956  0.00  0.00     0.167 HD
ENDBRANCH   9  11
ENDBRANCH   8   9
ENDBRANCH   7   8
ENDBRANCH   1   7
BRANCH   4  13
HETATM   13  O   UNK N   1      25.561  28.843  -3.365  0.00  0.00    -0.361 OA
HETATM   14  H   UNK N   1      24.950  28.990  -2.671  0.00  0.00     0.217 HD
ENDBRANCH   4  13
TORSDOF 5
ENDMDL
MODEL 5
REMARK VINA RESULT:      -4.7     10.366     11.755
REMARK  5 active torsions:
REMARK  status: ('A' for Active; 'I' for Inactive)
REMARK    1  A    between atoms: C_1  and  C_8 
REMARK    2  A    between atoms: C_4  and  O_5 
REMARK    3  A    between atoms: C_8  and  C_9 
REMARK    4  A    between atoms: C_9  and  C_10 
REMARK    5  A    between atoms: C_10  and  O_12 
ROOT
HETATM    1  C   UNK N   1      35.715  12.006  16.590  0.00  0.00    -0.058 A 
HETATM    2  C   UNK N   1      35.441  13.353  16.843  0.00  0.00     0.010 A 
HETATM    3  C   UNK N   1      35.147  13.779  18.141  0.00  0.00     0.037 A 
HETATM    4  C   UNK N   1      35.127  12.857  19.191  0.00  0.00     0.065 A 
HETATM    5  C   UNK N   1      35.400  11.510  18.945  0.00  0.00     0.037 A 
HETATM    6  C   UNK N   1      35.694  11.083  17.649  0.00  0.00     0.010 A 
ENDROOT
BRANCH   1   7
HETATM    7  C   UNK N   1      36.025  11.592  15.186  0.00  0.00     0.049 C 
BRANCH   7   8
HETATM    8  C   UNK N   1      34.972  12.024  14.172  0.00  0.00     0.114 C 
BRANCH   8   9
HETATM    9  C   UNK N   1      33.979  10.936  13.910  0.00  0.00     0.139 C 
HETATM   10  O   UNK N   1      33.055  10.771  14.681  0.00  0.00    -0.650 OA
BRANCH   9  11
HETATM   11  O   UNK N   1      34.100  10.139  12.827  0.00  0.00    -0.776 OA
HETATM   12  H   UNK N   1      34.809   9.528  12.771  0.00  0.00     0.167 HD
ENDBRANCH   9  11
ENDBRANCH   8   9
ENDBRANCH   7   8
ENDBRANCH   1   7
BRANCH   4  13
HETATM   13  O   UNK N   1      34.845  13.267  20.438  0.00  0.00    -0.361 OA
HETATM   14  H   UNK N   1      33.982  13.565  20.648  0.00  0.00     0.217 HD
ENDBRANCH   4  13
TORSDOF 5
ENDMDL
MODEL 6
REMARK VINA RESULT:      -4.7     12.606     14.216
REMARK  5 active torsions:
REMARK  status: ('A' for Active; 'I' for Inactive)
REMARK    1  A    between atoms: C_1  and  C_8 
REMARK    2  A    between atoms: C_4  and  O_5 
REMARK    3  A    between atoms: C_8  and  C_9 
REMARK    4  A    between atoms: C_9  and  C_10 
REMARK    5  A    between atoms: C_10  and  O_12 
ROOT
HETATM    1  C   UNK N   1      29.469  22.930  -4.594  0.00  0.00    -0.058 A 
HETATM    2  C   UNK N   1      30.039  21.683  -4.864  0.00  0.00     0.010 A 
HETATM    3  C   UNK N   1      31.025  21.163  -4.021  0.00  0.00     0.037 A 
HETATM    4  C   UNK N   1      31.444  21.891  -2.904  0.00  0.00     0.065 A 
HETATM    5  C   UNK N   1      30.879  23.138  -2.629  0.00  0.00     0.037 A 
HETATM    6  C   UNK N   1      29.894  23.658  -3.470  0.00  0.00     0.010 A 
ENDROOT
BRANCH   1   7
HETATM    7  C   UNK N   1      28.417  23.450  -5.522  0.00  0.00     0.049 C 
BRANCH   7   8
HETATM    8  C   UNK N   1      27.704  24.694  -5.006  0.00  0.00     0.114 C 
BRANCH   8   9
HETATM    9  C   UNK N   1      26.369  24.362  -4.420  0.00  0.00     0.139 C 
HETATM   10  O   UNK N   1      25.381  24.392  -5.126  0.00  0.00    -0.650 OA
BRANCH   9  11
HETATM   11  O   UNK N   1      26.252  24.030  -3.116  0.00  0.00    -0.776 OA
HETATM   12  H   UNK N   1      26.944  24.231  -2.517  0.00  0.00     0.167 HD
ENDBRANCH   9  11
ENDBRANCH   8   9
ENDBRANCH   7   8
ENDBRANCH   1   7
BRANCH   4  13
HETATM   13  O   UNK N   1      32.391  21.390  -2.095  0.00  0.00    -0.361 OA
HETATM   14  H   UNK N   1      32.641  20.491  -2.168  0.00  0.00     0.217 HD
ENDBRANCH   4  13
TORSDOF 5
ENDMDL
MODEL 7
REMARK VINA RESULT:      -4.6     12.627     13.527
REMARK  5 active torsions:
REMARK  status: ('A' for Active; 'I' for Inactive)
REMARK    1  A    between atoms: C_1  and  C_8 
REMARK    2  A    between atoms: C_4  and  O_5 
REMARK    3  A    between atoms: C_8  and  C_9 
REMARK    4  A    between atoms: C_9  and  C_10 
REMARK    5  A    between atoms: C_10  and  O_12 
ROOT
HETATM    1  C   UNK N   1      28.521  23.635  -3.554  0.00  0.00    -0.058 A 
HETATM    2  C   UNK N   1      27.286  24.116  -3.115  0.00  0.00     0.010 A 
HETATM    3  C   UNK N   1      26.265  24.374  -4.034  0.00  0.00     0.037 A 
HETATM    4  C   UNK N   1      26.479  24.150  -5.397  0.00  0.00     0.065 A 
HETATM    5  C   UNK N   1      27.712  23.669  -5.842  0.00  0.00     0.037 A 
HETATM    6  C   UNK N   1      28.732  23.411  -4.925  0.00  0.00     0.010 A 
ENDROOT
BRANCH   1   7
HETATM    7  C   UNK N   1      29.587  23.372  -2.537  0.00  0.00     0.049 C 
BRANCH   7   8
HETATM    8  C   UNK N   1      30.971  23.162  -3.139  0.00  0.00     0.114 C 
BRANCH   8   9
HETATM    9  C   UNK N   1      31.474  21.774  -2.898  0.00  0.00     0.139 C 
HETATM   10  O   UNK N   1      32.427  21.601  -2.165  0.00  0.00    -0.650 OA
BRANCH   9  11
HETATM   11  O   UNK N   1      30.878  20.714  -3.485  0.00  0.00    -0.776 OA
HETATM   12  H   UNK N   1      31.212  20.377  -4.293  0.00  0.00     0.167 HD
ENDBRANCH   9  11
ENDBRANCH   8   9
ENDBRANCH   7   8
ENDBRANCH   1   7
BRANCH   4  13
HETATM   13  O   UNK N   1      25.498  24.398  -6.279  0.00  0.00    -0.361 OA
HETATM   14  H   UNK N   1      24.613  24.481  -5.984  0.00  0.00     0.217 HD
ENDBRANCH   4  13
TORSDOF 5
ENDMDL
MODEL 8
REMARK VINA RESULT:      -4.6     15.447     16.891
REMARK  5 active torsions:
REMARK  status: ('A' for Active; 'I' for Inactive)
REMARK    1  A    between atoms: C_1  and  C_8 
REMARK    2  A    between atoms: C_4  and  O_5 
REMARK    3  A    between atoms: C_8  and  C_9 
REMARK    4  A    between atoms: C_9  and  C_10 
REMARK    5  A    between atoms: C_10  and  O_12 
ROOT
HETATM    1  C   UNK N   1      25.788  25.287  -5.977  0.00  0.00    -0.058 A 
HETATM    2  C   UNK N   1      25.194  26.541  -6.144  0.00  0.00     0.010 A 
HETATM    3  C   UNK N   1      25.215  27.472  -5.102  0.00  0.00     0.037 A 
HETATM    4  C   UNK N   1      25.831  27.151  -3.889  0.00  0.00     0.065 A 
HETATM    5  C   UNK N   1      26.427  25.900  -3.717  0.00  0.00     0.037 A 
HETATM    6  C   UNK N   1      26.406  24.969  -4.756  0.00  0.00     0.010 A 
ENDROOT
BRANCH   1   7
HETATM    7  C   UNK N   1      25.744  24.319  -7.118  0.00  0.00     0.049 C 
BRANCH   7   8
HETATM    8  C   UNK N   1      26.180  22.908  -6.742  0.00  0.00     0.114 C 
BRANCH   8   9
HETATM    9  C   UNK N   1      25.254  21.876  -7.302  0.00  0.00     0.139 C 
HETATM   10  O   UNK N   1      24.094  21.856  -6.945  0.00  0.00    -0.650 OA
BRANCH   9  11
HETATM   11  O   UNK N   1      25.696  20.968  -8.200  0.00  0.00    -0.776 OA
HETATM   12  H   UNK N   1      26.154  21.252  -8.967  0.00  0.00     0.167 HD
ENDBRANCH   9  11
ENDBRANCH   8   9
ENDBRANCH   7   8
ENDBRANCH   1   7
BRANCH   4  13
HETATM   13  O   UNK N   1      25.850  28.046  -2.890  0.00  0.00    -0.361 OA
HETATM   14  H   UNK N   1      26.567  28.645  -2.811  0.00  0.00     0.217 HD
ENDBRANCH   4  13
TORSDOF 5
ENDMDL
MODEL 9
REMARK VINA RESULT:      -4.5     15.995     17.392
REMARK  5 active torsions:
REMARK  status: ('A' for Active; 'I' for Inactive)
REMARK    1  A    between atoms: C_1  and  C_8 
REMARK    2  A    between atoms: C_4  and  O_5 
REMARK    3  A    between atoms: C_8  and  C_9 
REMARK    4  A    between atoms: C_9  and  C_10 
REMARK    5  A    between atoms: C_10  and  O_12 
ROOT
HETATM    1  C   UNK N   1      25.844  25.008  -5.918  0.00  0.00    -0.058 A 
HETATM    2  C   UNK N   1      25.740  25.609  -7.174  0.00  0.00     0.010 A 
HETATM    3  C   UNK N   1      25.620  24.822  -8.323  0.00  0.00     0.037 A 
HETATM    4  C   UNK N   1      25.603  23.429  -8.217  0.00  0.00     0.065 A 
HETATM    5  C   UNK N   1      25.707  22.821  -6.963  0.00  0.00     0.037 A 
HETATM    6  C   UNK N   1      25.827  23.606  -5.816  0.00  0.00     0.010 A 
ENDROOT
BRANCH   1   7
HETATM    7  C   UNK N   1      25.972  25.887  -4.713  0.00  0.00     0.049 C 
BRANCH   7   8
HETATM    8  C   UNK N   1      25.622  27.345  -4.979  0.00  0.00     0.114 C 
BRANCH   8   9
HETATM    9  C   UNK N   1      25.762  28.180  -3.746  0.00  0.00     0.139 C 
HETATM   10  O   UNK N   1      25.793  27.641  -2.658  0.00  0.00    -0.650 OA
BRANCH   9  11
HETATM   11  O   UNK N   1      25.853  29.525  -3.831  0.00  0.00    -0.776 OA
HETATM   12  H   UNK N   1      26.613  29.920  -4.213  0.00  0.00     0.167 HD
ENDBRANCH   9  11
ENDBRANCH   8   9
ENDBRANCH   7   8
ENDBRANCH   1   7
BRANCH   4  13
HETATM   13  O   UNK N   1      25.488  22.674  -9.320  0.00  0.00    -0.361 OA
HETATM   14  H   UNK N   1      24.741  22.770  -9.877  0.00  0.00     0.217 HD
ENDBRANCH   4  13
TORSDOF 5
ENDMDL
