REMARK  3 active torsions:
REMARK  status: ('A' for Active; 'I' for Inactive)
REMARK    1  A    between atoms: C_7  and  C_11 
REMARK    2  A    between atoms: C_14  and  O_17 
REMARK    3  A    between atoms: O_17  and  C_18 
ROOT
HETATM    1  C   UNK N   1      -1.367  -0.376  -0.463  0.00  0.00    -0.031 A 
HETATM    2  C   UNK N   1      -1.826   0.424   0.604  0.00  0.00     0.012 A 
HETATM    3  C   UNK N   1      -1.247   1.683   0.839  0.00  0.00     0.038 A 
HETATM    4  C   UNK N   1      -0.206   2.130   0.014  0.00  0.00     0.076 A 
HETATM    5  C   UNK N   1       0.170   1.375  -1.100  0.00  0.00     0.038 A 
HETATM    6  C   UNK N   1      -0.403   0.144  -1.335  0.00  0.00     0.012 A 
ENDROOT
BRANCH   1   7
HETATM    7  C   UNK N   1      -1.785  -1.827  -0.658  0.00  0.00     0.145 C 
HETATM    8  C   UNK N   1      -2.916  -2.341   0.215  0.00  0.00     0.248 C 
HETATM    9  N   UNK N   1      -2.993  -3.669   0.501  0.00  0.00    -0.278 N 
HETATM   10  O   UNK N   1      -3.865  -1.620   0.482  0.00  0.00    -0.271 OA
HETATM   11  C   UNK N   1      -1.966  -4.522   0.245  0.00  0.00     0.329 C 
HETATM   12  H   UNK N   1      -3.817  -4.023   0.906  0.00  0.00     0.173 HD
HETATM   13  N   UNK N   1      -0.760  -4.053  -0.154  0.00  0.00    -0.278 N 
HETATM   14  O   UNK N   1      -2.104  -5.715   0.456  0.00  0.00    -0.247 OA
HETATM   15  C   UNK N   1      -0.578  -2.750  -0.470  0.00  0.00     0.248 C 
HETATM   16  H   UNK N   1       0.001  -4.674  -0.215  0.00  0.00     0.173 HD
HETATM   17  O   UNK N   1       0.563  -2.334  -0.613  0.00  0.00    -0.271 OA
HETATM   18  C   UNK N   1      -2.279  -2.000  -2.090  0.00  0.00     0.041 C 
ENDBRANCH   1   7
BRANCH   4  19
HETATM   19  O   UNK N   1       0.533   3.214   0.346  0.00  0.00    -0.311 OA
BRANCH  19  20
HETATM   20  C   UNK N   1       1.894   3.117   0.378  0.00  0.00     0.076 A 
HETATM   21  C   UNK N   1       2.692   4.234   0.118  0.00  0.00     0.037 A 
HETATM   22  C   UNK N   1       4.088   4.109   0.112  0.00  0.00     0.003 A 
HETATM   23  C   UNK N   1       4.691   2.875   0.381  0.00  0.00     0.000 A 
HETATM   24  C   UNK N   1       3.902   1.760   0.664  0.00  0.00     0.003 A 
HETATM   25  C   UNK N   1       2.515   1.880   0.660  0.00  0.00     0.037 A 
ENDBRANCH  19  20
ENDBRANCH   4  19
TORSDOF 3
