MODEL 1
REMARK VINA RESULT:      -8.1      0.000      0.000
REMARK  3 active torsions:
REMARK  status: ('A' for Active; 'I' for Inactive)
REMARK    1  A    between atoms: C_7  and  C_11 
REMARK    2  A    between atoms: C_14  and  O_17 
REMARK    3  A    between atoms: O_17  and  C_18 
ROOT
HETATM    1  C   UNK N   1      35.905  12.229  16.165  0.00  0.00    -0.031 A 
HETATM    2  C   UNK N   1      36.220  10.898  16.512  0.00  0.00     0.012 A 
HETATM    3  C   UNK N   1      35.957  10.428  17.810  0.00  0.00     0.038 A 
HETATM    4  C   UNK N   1      35.391  11.293  18.757  0.00  0.00     0.076 A 
HETATM    5  C   UNK N   1      34.989  12.575  18.373  0.00  0.00     0.038 A 
HETATM    6  C   UNK N   1      35.240  13.033  17.098  0.00  0.00     0.012 A 
ENDROOT
BRANCH   1   7
HETATM    7  C   UNK N   1      36.347  12.878  14.861  0.00  0.00     0.145 C 
HETATM    8  C   UNK N   1      36.875  14.300  14.945  0.00  0.00     0.248 C 
HETATM    9  N   UNK N   1      36.781  15.115  13.860  0.00  0.00    -0.278 N 
HETATM   10  O   UNK N   1      37.566  14.646  15.890  0.00  0.00    -0.271 OA
HETATM   11  C   UNK N   1      36.014  14.797  12.783  0.00  0.00     0.329 C 
HETATM   12  H   UNK N   1      37.282  15.962  13.854  0.00  0.00     0.173 HD
HETATM   13  N   UNK N   1      35.182  13.730  12.817  0.00  0.00    -0.278 N 
HETATM   14  O   UNK N   1      36.012  15.526  11.805  0.00  0.00    -0.247 OA
HETATM   15  C   UNK N   1      35.200  12.852  13.847  0.00  0.00     0.248 C 
HETATM   16  H   UNK N   1      34.549  13.590  12.077  0.00  0.00     0.173 HD
HETATM   17  O   UNK N   1      34.293  12.037  13.941  0.00  0.00    -0.271 OA
HETATM   18  C   UNK N   1      37.495  12.062  14.279  0.00  0.00     0.041 C 
ENDBRANCH   1   7
BRANCH   4  19
HETATM   19  O   UNK N   1      35.344  10.960  20.068  0.00  0.00    -0.311 OA
BRANCH  19  20
HETATM   20  C   UNK N   1      34.252  10.303  20.557  0.00  0.00     0.076 A 
HETATM   21  C   UNK N   1      33.754   9.171  19.907  0.00  0.00     0.037 A 
HETATM   22  C   UNK N   1      32.607   8.532  20.396  0.00  0.00     0.003 A 
HETATM   23  C   UNK N   1      31.963   9.011  21.543  0.00  0.00     0.000 A 
HETATM   24  C   UNK N   1      32.467  10.127  22.211  0.00  0.00     0.003 A 
HETATM   25  C   UNK N   1      33.600  10.769  21.720  0.00  0.00     0.037 A 
ENDBRANCH  19  20
ENDBRANCH   4  19
TORSDOF 3
ENDMDL
MODEL 2
REMARK VINA RESULT:      -8.0      9.005     13.393
REMARK  3 active torsions:
REMARK  status: ('A' for Active; 'I' for Inactive)
REMARK    1  A    between atoms: C_7  and  C_11 
REMARK    2  A    between atoms: C_14  and  O_17 
REMARK    3  A    between atoms: O_17  and  C_18 
ROOT
HETATM    1  C   UNK N   1      31.846  17.091   7.675  0.00  0.00    -0.031 A 
HETATM    2  C   UNK N   1      31.417  16.882   6.348  0.00  0.00     0.012 A 
HETATM    3  C   UNK N   1      30.089  17.165   5.984  0.00  0.00     0.038 A 
HETATM    4  C   UNK N   1      29.195  17.644   6.951  0.00  0.00     0.076 A 
HETATM    5  C   UNK N   1      29.656  17.944   8.235  0.00  0.00     0.038 A 
HETATM    6  C   UNK N   1      30.961  17.674   8.590  0.00  0.00     0.012 A 
ENDROOT
BRANCH   1   7
HETATM    7  C   UNK N   1      33.193  16.616   8.202  0.00  0.00     0.145 C 
HETATM    8  C   UNK N   1      33.175  15.724   9.431  0.00  0.00     0.248 C 
HETATM    9  N   UNK N   1      34.256  15.698  10.257  0.00  0.00    -0.278 N 
HETATM   10  O   UNK N   1      32.303  14.880   9.567  0.00  0.00    -0.271 OA
HETATM   11  C   UNK N   1      35.253  16.618  10.168  0.00  0.00     0.329 C 
HETATM   12  H   UNK N   1      34.318  14.992  10.940  0.00  0.00     0.173 HD
HETATM   13  N   UNK N   1      35.128  17.698   9.360  0.00  0.00    -0.278 N 
HETATM   14  O   UNK N   1      36.234  16.517  10.885  0.00  0.00    -0.247 OA
HETATM   15  C   UNK N   1      34.095  17.818   8.496  0.00  0.00     0.248 C 
HETATM   16  H   UNK N   1      35.805  18.411   9.404  0.00  0.00     0.173 HD
HETATM   17  O   UNK N   1      33.907  18.896   7.950  0.00  0.00    -0.271 OA
HETATM   18  C   UNK N   1      33.871  15.785   7.118  0.00  0.00     0.041 C 
ENDBRANCH   1   7
BRANCH   4  19
HETATM   19  O   UNK N   1      27.865  17.699   6.707  0.00  0.00    -0.311 OA
BRANCH  19  20
HETATM   20  C   UNK N   1      27.382  18.614   5.816  0.00  0.00     0.076 A 
HETATM   21  C   UNK N   1      26.791  18.198   4.621  0.00  0.00     0.037 A 
HETATM   22  C   UNK N   1      26.338  19.149   3.697  0.00  0.00     0.003 A 
HETATM   23  C   UNK N   1      26.459  20.517   3.970  0.00  0.00     0.000 A 
HETATM   24  C   UNK N   1      27.027  20.941   5.171  0.00  0.00     0.003 A 
HETATM   25  C   UNK N   1      27.487  19.997   6.085  0.00  0.00     0.037 A 
ENDBRANCH  19  20
ENDBRANCH   4  19
TORSDOF 3
ENDMDL
MODEL 3
REMARK VINA RESULT:      -7.5      3.716      6.529
REMARK  3 active torsions:
REMARK  status: ('A' for Active; 'I' for Inactive)
REMARK    1  A    between atoms: C_7  and  C_11 
REMARK    2  A    between atoms: C_14  and  O_17 
REMARK    3  A    between atoms: O_17  and  C_18 
ROOT
HETATM    1  C   UNK N   1      35.346  14.240  10.477  0.00  0.00    -0.031 A 
HETATM    2  C   UNK N   1      36.748  14.087  10.464  0.00  0.00     0.012 A 
HETATM    3  C   UNK N   1      37.385  13.350  11.478  0.00  0.00     0.038 A 
HETATM    4  C   UNK N   1      36.619  12.782  12.504  0.00  0.00     0.076 A 
HETATM    5  C   UNK N   1      35.224  12.853  12.451  0.00  0.00     0.038 A 
HETATM    6  C   UNK N   1      34.599  13.569  11.453  0.00  0.00     0.012 A 
ENDROOT
BRANCH   1   7
HETATM    7  C   UNK N   1      34.601  15.190   9.549  0.00  0.00     0.145 C 
HETATM    8  C   UNK N   1      34.864  15.045   8.060  0.00  0.00     0.248 C 
HETATM    9  N   UNK N   1      34.699  16.119   7.242  0.00  0.00    -0.278 N 
HETATM   10  O   UNK N   1      35.012  13.938   7.566  0.00  0.00    -0.271 OA
HETATM   11  C   UNK N   1      34.547  17.379   7.728  0.00  0.00     0.329 C 
HETATM   12  H   UNK N   1      34.689  15.979   6.268  0.00  0.00     0.173 HD
HETATM   13  N   UNK N   1      34.721  17.638   9.046  0.00  0.00    -0.278 N 
HETATM   14  O   UNK N   1      34.335  18.302   6.960  0.00  0.00    -0.247 OA
HETATM   15  C   UNK N   1      34.886  16.641   9.946  0.00  0.00     0.248 C 
HETATM   16  H   UNK N   1      34.727  18.572   9.355  0.00  0.00     0.173 HD
HETATM   17  O   UNK N   1      35.252  16.926  11.077  0.00  0.00    -0.271 OA
HETATM   18  C   UNK N   1      33.104  14.952   9.713  0.00  0.00     0.041 C 
ENDBRANCH   1   7
BRANCH   4  19
HETATM   19  O   UNK N   1      37.203  12.276  13.615  0.00  0.00    -0.311 OA
BRANCH  19  20
HETATM   20  C   UNK N   1      36.550  12.349  14.812  0.00  0.00     0.076 A 
HETATM   21  C   UNK N   1      36.356  13.581  15.441  0.00  0.00     0.037 A 
HETATM   22  C   UNK N   1      35.722  13.635  16.690  0.00  0.00     0.003 A 
HETATM   23  C   UNK N   1      35.267  12.463  17.306  0.00  0.00     0.000 A 
HETATM   24  C   UNK N   1      35.437  11.231  16.674  0.00  0.00     0.003 A 
HETATM   25  C   UNK N   1      36.076  11.175  15.438  0.00  0.00     0.037 A 
ENDBRANCH  19  20
ENDBRANCH   4  19
TORSDOF 3
ENDMDL
MODEL 4
REMARK VINA RESULT:      -7.2     22.547     25.182
REMARK  3 active torsions:
REMARK  status: ('A' for Active; 'I' for Inactive)
REMARK    1  A    between atoms: C_7  and  C_11 
REMARK    2  A    between atoms: C_14  and  O_17 
REMARK    3  A    between atoms: O_17  and  C_18 
ROOT
HETATM    1  C   UNK N   1      30.598  22.890  -3.865  0.00  0.00    -0.031 A 
HETATM    2  C   UNK N   1      30.165  24.076  -4.494  0.00  0.00     0.012 A 
HETATM    3  C   UNK N   1      28.941  24.661  -4.127  0.00  0.00     0.038 A 
HETATM    4  C   UNK N   1      28.151  24.052  -3.143  0.00  0.00     0.076 A 
HETATM    5  C   UNK N   1      28.637  22.936  -2.455  0.00  0.00     0.038 A 
HETATM    6  C   UNK N   1      29.841  22.367  -2.810  0.00  0.00     0.012 A 
ENDROOT
BRANCH   1   7
HETATM    7  C   UNK N   1      31.794  22.080  -4.344  0.00  0.00     0.145 C 
HETATM    8  C   UNK N   1      31.539  21.054  -5.434  0.00  0.00     0.248 C 
HETATM    9  N   UNK N   1      32.353  19.969  -5.538  0.00  0.00    -0.278 N 
HETATM   10  O   UNK N   1      30.756  21.298  -6.339  0.00  0.00    -0.271 OA
HETATM   11  C   UNK N   1      33.235  19.633  -4.559  0.00  0.00     0.329 C 
HETATM   12  H   UNK N   1      32.302  19.410  -6.346  0.00  0.00     0.173 HD
HETATM   13  N   UNK N   1      33.221  20.272  -3.366  0.00  0.00    -0.278 N 
HETATM   14  O   UNK N   1      33.991  18.691  -4.724  0.00  0.00    -0.247 OA
HETATM   15  C   UNK N   1      32.452  21.367  -3.160  0.00  0.00     0.248 C 
HETATM   16  H   UNK N   1      33.782  19.933  -2.632  0.00  0.00     0.173 HD
HETATM   17  O   UNK N   1      32.308  21.776  -2.017  0.00  0.00    -0.271 OA
HETATM   18  C   UNK N   1      32.823  23.039  -4.934  0.00  0.00     0.041 C 
ENDBRANCH   1   7
BRANCH   4  19
HETATM   19  O   UNK N   1      26.872  24.441  -2.932  0.00  0.00    -0.311 OA
BRANCH  19  20
HETATM   20  C   UNK N   1      26.322  25.405  -3.727  0.00  0.00     0.076 A 
HETATM   21  C   UNK N   1      25.787  25.077  -4.975  0.00  0.00     0.037 A 
HETATM   22  C   UNK N   1      25.265  26.084  -5.798  0.00  0.00     0.003 A 
HETATM   23  C   UNK N   1      25.260  27.417  -5.371  0.00  0.00     0.000 A 
HETATM   24  C   UNK N   1      25.772  27.750  -4.117  0.00  0.00     0.003 A 
HETATM   25  C   UNK N   1      26.300  26.752  -3.303  0.00  0.00     0.037 A 
ENDBRANCH  19  20
ENDBRANCH   4  19
TORSDOF 3
ENDMDL
MODEL 5
REMARK VINA RESULT:      -7.2      9.536     13.068
REMARK  3 active torsions:
REMARK  status: ('A' for Active; 'I' for Inactive)
REMARK    1  A    between atoms: C_7  and  C_11 
REMARK    2  A    between atoms: C_14  and  O_17 
REMARK    3  A    between atoms: O_17  and  C_18 
ROOT
HETATM    1  C   UNK N   1      32.235  16.732   7.710  0.00  0.00    -0.031 A 
HETATM    2  C   UNK N   1      31.471  16.201   6.650  0.00  0.00     0.012 A 
HETATM    3  C   UNK N   1      30.151  16.639   6.445  0.00  0.00     0.038 A 
HETATM    4  C   UNK N   1      29.600  17.597   7.307  0.00  0.00     0.076 A 
HETATM    5  C   UNK N   1      30.398  18.189   8.289  0.00  0.00     0.038 A 
HETATM    6  C   UNK N   1      31.694  17.765   8.484  0.00  0.00     0.012 A 
ENDROOT
BRANCH   1   7
HETATM    7  C   UNK N   1      33.584  16.165   8.131  0.00  0.00     0.145 C 
HETATM    8  C   UNK N   1      34.618  15.962   7.038  0.00  0.00     0.248 C 
HETATM    9  N   UNK N   1      35.583  15.016   7.194  0.00  0.00    -0.278 N 
HETATM   10  O   UNK N   1      34.722  16.772   6.130  0.00  0.00    -0.271 OA
HETATM   11  C   UNK N   1      35.518  14.075   8.173  0.00  0.00     0.329 C 
HETATM   12  H   UNK N   1      36.351  15.011   6.579  0.00  0.00     0.173 HD
HETATM   13  N   UNK N   1      34.404  13.941   8.931  0.00  0.00    -0.278 N 
HETATM   14  O   UNK N   1      36.438  13.288   8.317  0.00  0.00    -0.247 OA
HETATM   15  C   UNK N   1      33.389  14.832   8.859  0.00  0.00     0.248 C 
HETATM   16  H   UNK N   1      34.332  13.178   9.549  0.00  0.00     0.173 HD
HETATM   17  O   UNK N   1      32.325  14.556   9.394  0.00  0.00    -0.271 OA
HETATM   18  C   UNK N   1      34.230  17.136   9.113  0.00  0.00     0.041 C 
ENDBRANCH   1   7
BRANCH   4  19
HETATM   19  O   UNK N   1      28.273  17.867   7.296  0.00  0.00    -0.311 OA
BRANCH  19  20
HETATM   20  C   UNK N   1      27.786  18.813   6.441  0.00  0.00     0.076 A 
HETATM   21  C   UNK N   1      27.564  18.507   5.096  0.00  0.00     0.037 A 
HETATM   22  C   UNK N   1      27.104  19.501   4.221  0.00  0.00     0.003 A 
HETATM   23  C   UNK N   1      26.850  20.796   4.688  0.00  0.00     0.000 A 
HETATM   24  C   UNK N   1      27.048  21.103   6.034  0.00  0.00     0.003 A 
HETATM   25  C   UNK N   1      27.515  20.120   6.903  0.00  0.00     0.037 A 
ENDBRANCH  19  20
ENDBRANCH   4  19
TORSDOF 3
ENDMDL
MODEL 6
REMARK VINA RESULT:      -7.1      5.570      8.683
REMARK  3 active torsions:
REMARK  status: ('A' for Active; 'I' for Inactive)
REMARK    1  A    between atoms: C_7  and  C_11 
REMARK    2  A    between atoms: C_14  and  O_17 
REMARK    3  A    between atoms: O_17  and  C_18 
ROOT
HETATM    1  C   UNK N   1      34.315  16.141   9.099  0.00  0.00    -0.031 A 
HETATM    2  C   UNK N   1      35.137  16.613  10.143  0.00  0.00     0.012 A 
HETATM    3  C   UNK N   1      35.312  15.841  11.305  0.00  0.00     0.038 A 
HETATM    4  C   UNK N   1      34.657  14.608  11.421  0.00  0.00     0.076 A 
HETATM    5  C   UNK N   1      33.929  14.104  10.340  0.00  0.00     0.038 A 
HETATM    6  C   UNK N   1      33.763  14.858   9.198  0.00  0.00     0.012 A 
ENDROOT
BRANCH   1   7
HETATM    7  C   UNK N   1      33.902  16.997   7.910  0.00  0.00     0.145 C 
HETATM    8  C   UNK N   1      32.414  17.222   7.707  0.00  0.00     0.248 C 
HETATM    9  N   UNK N   1      31.938  17.482   6.459  0.00  0.00    -0.278 N 
HETATM   10  O   UNK N   1      31.678  17.384   8.669  0.00  0.00    -0.271 OA
HETATM   11  C   UNK N   1      32.699  17.306   5.347  0.00  0.00     0.329 C 
HETATM   12  H   UNK N   1      31.014  17.806   6.359  0.00  0.00     0.173 HD
HETATM   13  N   UNK N   1      33.910  16.706   5.425  0.00  0.00    -0.278 N 
HETATM   14  O   UNK N   1      32.253  17.615   4.254  0.00  0.00    -0.247 OA
HETATM   15  C   UNK N   1      34.477  16.411   6.617  0.00  0.00     0.248 C 
HETATM   16  H   UNK N   1      34.388  16.479   4.595  0.00  0.00     0.173 HD
HETATM   17  O   UNK N   1      35.459  15.682   6.637  0.00  0.00    -0.271 OA
HETATM   18  C   UNK N   1      34.493  18.390   8.088  0.00  0.00     0.041 C 
ENDBRANCH   1   7
BRANCH   4  19
HETATM   19  O   UNK N   1      34.605  13.952  12.603  0.00  0.00    -0.311 OA
BRANCH  19  20
HETATM   20  C   UNK N   1      35.663  13.185  12.995  0.00  0.00     0.076 A 
HETATM   21  C   UNK N   1      36.325  12.366  12.076  0.00  0.00     0.037 A 
HETATM   22  C   UNK N   1      37.383  11.551  12.502  0.00  0.00     0.003 A 
HETATM   23  C   UNK N   1      37.793  11.562  13.840  0.00  0.00     0.000 A 
HETATM   24  C   UNK N   1      37.153  12.394  14.759  0.00  0.00     0.003 A 
HETATM   25  C   UNK N   1      36.095  13.196  14.340  0.00  0.00     0.037 A 
ENDBRANCH  19  20
ENDBRANCH   4  19
TORSDOF 3
ENDMDL
MODEL 7
REMARK VINA RESULT:      -7.1      3.579      8.547
REMARK  3 active torsions:
REMARK  status: ('A' for Active; 'I' for Inactive)
REMARK    1  A    between atoms: C_7  and  C_11 
REMARK    2  A    between atoms: C_14  and  O_17 
REMARK    3  A    between atoms: O_17  and  C_18 
ROOT
HETATM    1  C   UNK N   1      36.431  13.837  13.415  0.00  0.00    -0.031 A 
HETATM    2  C   UNK N   1      36.881  12.995  12.377  0.00  0.00     0.012 A 
HETATM    3  C   UNK N   1      36.795  13.419  11.040  0.00  0.00     0.038 A 
HETATM    4  C   UNK N   1      36.250  14.677  10.747  0.00  0.00     0.076 A 
HETATM    5  C   UNK N   1      35.903  15.542  11.788  0.00  0.00     0.038 A 
HETATM    6  C   UNK N   1      35.995  15.129  13.100  0.00  0.00     0.012 A 
ENDROOT
BRANCH   1   7
HETATM    7  C   UNK N   1      36.290  13.378  14.860  0.00  0.00     0.145 C 
HETATM    8  C   UNK N   1      34.898  12.991  15.327  0.00  0.00     0.248 C 
HETATM    9  N   UNK N   1      34.580  13.094  16.646  0.00  0.00    -0.278 N 
HETATM   10  O   UNK N   1      34.141  12.393  14.578  0.00  0.00    -0.271 OA
HETATM   11  C   UNK N   1      35.370  13.759  17.528  0.00  0.00     0.329 C 
HETATM   12  H   UNK N   1      33.751  12.673  16.971  0.00  0.00     0.173 HD
HETATM   13  N   UNK N   1      36.426  14.490  17.097  0.00  0.00    -0.278 N 
HETATM   14  O   UNK N   1      35.080  13.769  18.712  0.00  0.00    -0.247 OA
HETATM   15  C   UNK N   1      36.831  14.453  15.807  0.00  0.00     0.248 C 
HETATM   16  H   UNK N   1      36.909  15.060  17.737  0.00  0.00     0.173 HD
HETATM   17  O   UNK N   1      37.641  15.284  15.421  0.00  0.00    -0.271 OA
HETATM   18  C   UNK N   1      37.137  12.125  15.055  0.00  0.00     0.041 C 
ENDBRANCH   1   7
BRANCH   4  19
HETATM   19  O   UNK N   1      35.930  15.022   9.479  0.00  0.00    -0.311 OA
BRANCH  19  20
HETATM   20  C   UNK N   1      34.680  15.496   9.205  0.00  0.00     0.076 A 
HETATM   21  C   UNK N   1      33.567  14.655   9.290  0.00  0.00     0.037 A 
HETATM   22  C   UNK N   1      32.295  15.144   8.964  0.00  0.00     0.003 A 
HETATM   23  C   UNK N   1      32.127  16.476   8.568  0.00  0.00     0.000 A 
HETATM   24  C   UNK N   1      33.229  17.329   8.503  0.00  0.00     0.003 A 
HETATM   25  C   UNK N   1      34.495  16.841   8.817  0.00  0.00     0.037 A 
ENDBRANCH  19  20
ENDBRANCH   4  19
TORSDOF 3
ENDMDL
MODEL 8
REMARK VINA RESULT:      -7.0      5.333      9.947
REMARK  3 active torsions:
REMARK  status: ('A' for Active; 'I' for Inactive)
REMARK    1  A    between atoms: C_7  and  C_11 
REMARK    2  A    between atoms: C_14  and  O_17 
REMARK    3  A    between atoms: O_17  and  C_18 
ROOT
HETATM    1  C   UNK N   1      35.292  14.260  11.383  0.00  0.00    -0.031 A 
HETATM    2  C   UNK N   1      35.805  15.519  11.758  0.00  0.00     0.012 A 
HETATM    3  C   UNK N   1      35.449  16.668  11.031  0.00  0.00     0.038 A 
HETATM    4  C   UNK N   1      34.592  16.551   9.928  0.00  0.00     0.076 A 
HETATM    5  C   UNK N   1      34.010  15.316   9.629  0.00  0.00     0.038 A 
HETATM    6  C   UNK N   1      34.353  14.190  10.347  0.00  0.00     0.012 A 
ENDROOT
BRANCH   1   7
HETATM    7  C   UNK N   1      35.788  12.948  11.975  0.00  0.00     0.145 C 
HETATM    8  C   UNK N   1      35.548  12.727  13.458  0.00  0.00     0.248 C 
HETATM    9  N   UNK N   1      36.377  11.905  14.157  0.00  0.00    -0.278 N 
HETATM   10  O   UNK N   1      34.508  13.102  13.976  0.00  0.00    -0.271 OA
HETATM   11  C   UNK N   1      37.557  11.465  13.644  0.00  0.00     0.329 C 
HETATM   12  H   UNK N   1      36.115  11.620  15.062  0.00  0.00     0.173 HD
HETATM   13  N   UNK N   1      38.032  11.962  12.478  0.00  0.00    -0.278 N 
HETATM   14  O   UNK N   1      38.236  10.676  14.279  0.00  0.00    -0.247 OA
HETATM   15  C   UNK N   1      37.286  12.782  11.703  0.00  0.00     0.248 C 
HETATM   16  H   UNK N   1      38.941  11.722  12.188  0.00  0.00     0.173 HD
HETATM   17  O   UNK N   1      37.828  13.373  10.780  0.00  0.00    -0.271 OA
HETATM   18  C   UNK N   1      35.064  11.800  11.280  0.00  0.00     0.041 C 
ENDBRANCH   1   7
BRANCH   4  19
HETATM   19  O   UNK N   1      34.417  17.579   9.066  0.00  0.00    -0.311 OA
BRANCH  19  20
HETATM   20  C   UNK N   1      33.565  17.434   8.009  0.00  0.00     0.076 A 
HETATM   21  C   UNK N   1      34.062  17.266   6.714  0.00  0.00     0.037 A 
HETATM   22  C   UNK N   1      33.176  17.161   5.634  0.00  0.00     0.003 A 
HETATM   23  C   UNK N   1      31.793  17.208   5.843  0.00  0.00     0.000 A 
HETATM   24  C   UNK N   1      31.288  17.353   7.135  0.00  0.00     0.003 A 
HETATM   25  C   UNK N   1      32.167  17.467   8.209  0.00  0.00     0.037 A 
ENDBRANCH  19  20
ENDBRANCH   4  19
TORSDOF 3
ENDMDL
MODEL 9
REMARK VINA RESULT:      -7.0      5.959     10.440
REMARK  3 active torsions:
REMARK  status: ('A' for Active; 'I' for Inactive)
REMARK    1  A    between atoms: C_7  and  C_11 
REMARK    2  A    between atoms: C_14  and  O_17 
REMARK    3  A    between atoms: O_17  and  C_18 
ROOT
HETATM    1  C   UNK N   1      34.455  15.021   9.382  0.00  0.00    -0.031 A 
HETATM    2  C   UNK N   1      33.085  14.709   9.509  0.00  0.00     0.012 A 
HETATM    3  C   UNK N   1      32.143  15.318   8.663  0.00  0.00     0.038 A 
HETATM    4  C   UNK N   1      32.573  16.244   7.703  0.00  0.00     0.076 A 
HETATM    5  C   UNK N   1      33.940  16.468   7.517  0.00  0.00     0.038 A 
HETATM    6  C   UNK N   1      34.864  15.865   8.342  0.00  0.00     0.012 A 
ENDROOT
BRANCH   1   7
HETATM    7  C   UNK N   1      35.509  14.576  10.386  0.00  0.00     0.145 C 
HETATM    8  C   UNK N   1      35.314  13.216  11.033  0.00  0.00     0.248 C 
HETATM    9  N   UNK N   1      35.847  12.974  12.260  0.00  0.00    -0.278 N 
HETATM   10  O   UNK N   1      34.874  12.281  10.381  0.00  0.00    -0.271 OA
HETATM   11  C   UNK N   1      36.338  13.972  13.043  0.00  0.00     0.329 C 
HETATM   12  H   UNK N   1      35.879  12.048  12.593  0.00  0.00     0.173 HD
HETATM   13  N   UNK N   1      36.164  15.270  12.699  0.00  0.00    -0.278 N 
HETATM   14  O   UNK N   1      36.867  13.701  14.107  0.00  0.00    -0.247 OA
HETATM   15  C   UNK N   1      35.648  15.619  11.497  0.00  0.00     0.248 C 
HETATM   16  H   UNK N   1      36.418  15.974  13.337  0.00  0.00     0.173 HD
HETATM   17  O   UNK N   1      35.311  16.781  11.319  0.00  0.00    -0.271 OA
HETATM   18  C   UNK N   1      36.852  14.485   9.669  0.00  0.00     0.041 C 
ENDBRANCH   1   7
BRANCH   4  19
HETATM   19  O   UNK N   1      31.689  17.024   7.038  0.00  0.00    -0.311 OA
BRANCH  19  20
HETATM   20  C   UNK N   1      30.566  17.464   7.678  0.00  0.00     0.076 A 
HETATM   21  C   UNK N   1      30.667  18.263   8.820  0.00  0.00     0.037 A 
HETATM   22  C   UNK N   1      29.506  18.672   9.490  0.00  0.00     0.003 A 
HETATM   23  C   UNK N   1      28.244  18.299   9.015  0.00  0.00     0.000 A 
HETATM   24  C   UNK N   1      28.134  17.521   7.863  0.00  0.00     0.003 A 
HETATM   25  C   UNK N   1      29.286  17.105   7.201  0.00  0.00     0.037 A 
ENDBRANCH  19  20
ENDBRANCH   4  19
TORSDOF 3
ENDMDL
