MODEL 1
REMARK VINA RESULT:      -7.1      0.000      0.000
REMARK  2 active torsions:
REMARK  status: ('A' for Active; 'I' for Inactive)
REMARK    1  A    between atoms: N_7  and  C_8 
REMARK    2  A    between atoms: C_17  and  C_19 
ROOT
HETATM    1 Cl   UNK N   1      37.049  14.126  15.333  0.00  0.00    -0.084 Cl
HETATM    2  C   UNK N   1      36.243  14.025  13.783  0.00  0.00     0.036 A 
HETATM    3  N   UNK N   1      35.279  16.226  11.032  0.00  0.00    -0.358 N 
ATOM      4  HN  UNK N   1      35.658  17.104  11.383  1.00  0.00     0.166 HD
HETATM    5  C   UNK N   1      35.412  15.109  11.784  0.00  0.00     0.046 A 
HETATM    6  C   UNK N   1      34.656  16.213   9.824  0.00  0.00     0.019 A 
HETATM    7  C   UNK N   1      34.256  13.828  10.075  0.00  0.00     0.047 A 
HETATM    8  C   UNK N   1      36.062  15.179  13.019  0.00  0.00     0.054 A 
HETATM    9  C   UNK N   1      35.785  12.791  13.309  0.00  0.00     0.025 A 
HETATM   10  C   UNK N   1      34.928  13.871  11.310  0.00  0.00     0.018 A 
HETATM   11  C   UNK N   1      34.729  17.456   8.979  0.00  0.00     0.066 C 
HETATM   12  C   UNK N   1      34.089  15.017   9.332  0.00  0.00    -0.004 A 
HETATM   13  C   UNK N   1      34.155  17.337   7.559  0.00  0.00     0.014 C 
HETATM   14  C   UNK N   1      32.759  17.858   7.617  0.00  0.00    -0.019 C 
HETATM   15  C   UNK N   1      34.164  15.894   7.024  0.00  0.00     0.018 C 
HETATM   16  C   UNK N   1      31.735  17.068   7.960  0.00  0.00    -0.083 C 
HETATM   17  C   UNK N   1      31.920  15.577   8.164  0.00  0.00     0.043 C 
HETATM   18  C   UNK N   1      33.364  15.033   8.001  0.00  0.00     0.027 C 
HETATM   19  C   UNK N   1      35.124  12.714  12.077  0.00  0.00     0.018 A 
ENDROOT
BRANCH   7  20
HETATM   20  N   UNK N   1      33.760  12.596   9.586  0.00  0.00    -0.398 N 
HETATM   21  H   UNK N   1      33.333  12.202   8.791  0.00  0.00     0.156 HD
HETATM   22  H   UNK N   1      33.881  11.899  10.272  0.00  0.00     0.156 HD
ENDBRANCH   7  20
BRANCH  16  23
HETATM   23  C   UNK N   1      30.369  17.662   8.072  0.00  0.00     0.029 C 
HETATM   24  C   UNK N   1      30.321  18.673   9.208  0.00  0.00     0.010 C 
ENDBRANCH  16  23
TORSDOF 2
ENDMDL
MODEL 2
REMARK VINA RESULT:      -7.0      1.871      3.376
REMARK  2 active torsions:
REMARK  status: ('A' for Active; 'I' for Inactive)
REMARK    1  A    between atoms: N_7  and  C_8 
REMARK    2  A    between atoms: C_17  and  C_19 
ROOT
HETATM    1 Cl   UNK N   1      36.262  10.938  12.038  0.00  0.00    -0.084 Cl
HETATM    2  C   UNK N   1      35.807  12.522  11.450  0.00  0.00     0.036 A 
HETATM    3  N   UNK N   1      33.372  14.018   9.176  0.00  0.00    -0.358 N 
ATOM      4  HN  UNK N   1      32.875  13.176   8.889  1.00  0.00     0.166 HD
HETATM    5  C   UNK N   1      34.406  13.905  10.041  0.00  0.00     0.046 A 
HETATM    6  C   UNK N   1      32.976  15.218   8.677  0.00  0.00     0.019 A 
HETATM    7  C   UNK N   1      34.723  16.311   9.968  0.00  0.00     0.047 A 
HETATM    8  C   UNK N   1      34.771  12.645  10.523  0.00  0.00     0.054 A 
HETATM    9  C   UNK N   1      36.476  13.661  11.909  0.00  0.00     0.025 A 
HETATM   10  C   UNK N   1      35.092  15.056  10.484  0.00  0.00     0.018 A 
HETATM   11  C   UNK N   1      31.701  15.266   7.878  0.00  0.00     0.066 C 
HETATM   12  C   UNK N   1      33.671  16.396   9.029  0.00  0.00    -0.004 A 
HETATM   13  C   UNK N   1      31.210  16.666   7.480  0.00  0.00     0.014 C 
HETATM   14  C   UNK N   1      31.699  16.911   6.092  0.00  0.00    -0.019 C 
HETATM   15  C   UNK N   1      31.710  17.773   8.425  0.00  0.00     0.018 C 
HETATM   16  C   UNK N   1      32.918  17.413   5.862  0.00  0.00    -0.083 C 
HETATM   17  C   UNK N   1      33.803  17.890   6.996  0.00  0.00     0.043 C 
HETATM   18  C   UNK N   1      33.238  17.720   8.431  0.00  0.00     0.027 C 
HETATM   19  C   UNK N   1      36.123  14.925  11.424  0.00  0.00     0.018 A 
ENDROOT
BRANCH   7  20
HETATM   20  N   UNK N   1      35.403  17.476  10.397  0.00  0.00    -0.398 N 
HETATM   21  H   UNK N   1      36.304  17.796  10.630  0.00  0.00     0.156 HD
HETATM   22  H   UNK N   1      34.758  18.214  10.498  0.00  0.00     0.156 HD
ENDBRANCH   7  20
BRANCH  16  23
HETATM   23  C   UNK N   1      33.381  17.569   4.451  0.00  0.00     0.029 C 
HETATM   24  C   UNK N   1      32.337  17.027   3.485  0.00  0.00     0.010 C 
ENDBRANCH  16  23
TORSDOF 2
ENDMDL
MODEL 3
REMARK VINA RESULT:      -6.8     15.609     18.354
REMARK  2 active torsions:
REMARK  status: ('A' for Active; 'I' for Inactive)
REMARK    1  A    between atoms: N_7  and  C_8 
REMARK    2  A    between atoms: C_17  and  C_19 
ROOT
HETATM    1 Cl   UNK N   1      34.221  22.088  -4.856  0.00  0.00    -0.084 Cl
HETATM    2  C   UNK N   1      32.589  22.506  -4.381  0.00  0.00     0.036 A 
HETATM    3  N   UNK N   1      29.687  24.251  -5.749  0.00  0.00    -0.358 N 
ATOM      4  HN  UNK N   1      30.057  24.492  -6.668  1.00  0.00     0.166 HD
HETATM    5  C   UNK N   1      30.478  23.582  -4.880  0.00  0.00     0.046 A 
HETATM    6  C   UNK N   1      28.415  24.612  -5.436  0.00  0.00     0.019 A 
HETATM    7  C   UNK N   1      28.679  23.583  -3.249  0.00  0.00     0.047 A 
HETATM    8  C   UNK N   1      31.780  23.236  -5.253  0.00  0.00     0.054 A 
HETATM    9  C   UNK N   1      32.097  22.111  -3.134  0.00  0.00     0.025 A 
HETATM   10  C   UNK N   1      29.983  23.203  -3.613  0.00  0.00     0.018 A 
HETATM   11  C   UNK N   1      27.551  25.178  -6.532  0.00  0.00     0.066 C 
HETATM   12  C   UNK N   1      27.890  24.323  -4.157  0.00  0.00    -0.004 A 
HETATM   13  C   UNK N   1      26.076  25.414  -6.170  0.00  0.00     0.014 C 
HETATM   14  C   UNK N   1      25.955  26.849  -5.786  0.00  0.00    -0.019 C 
HETATM   15  C   UNK N   1      25.584  24.511  -5.025  0.00  0.00     0.018 C 
HETATM   16  C   UNK N   1      26.194  27.258  -4.535  0.00  0.00    -0.083 C 
HETATM   17  C   UNK N   1      26.459  26.268  -3.417  0.00  0.00     0.043 C 
HETATM   18  C   UNK N   1      26.482  24.769  -3.815  0.00  0.00     0.027 C 
HETATM   19  C   UNK N   1      30.799  22.462  -2.748  0.00  0.00     0.018 A 
ENDROOT
BRANCH   7  20
HETATM   20  N   UNK N   1      28.167  23.216  -1.981  0.00  0.00    -0.398 N 
HETATM   21  H   UNK N   1      28.088  22.439  -1.382  0.00  0.00     0.156 HD
HETATM   22  H   UNK N   1      27.751  24.001  -1.556  0.00  0.00     0.156 HD
ENDBRANCH   7  20
BRANCH  16  23
HETATM   23  C   UNK N   1      26.129  28.718  -4.226  0.00  0.00     0.029 C 
HETATM   24  C   UNK N   1      27.165  29.480  -5.037  0.00  0.00     0.010 C 
ENDBRANCH  16  23
TORSDOF 2
ENDMDL
MODEL 4
REMARK VINA RESULT:      -6.8     17.466     19.614
REMARK  2 active torsions:
REMARK  status: ('A' for Active; 'I' for Inactive)
REMARK    1  A    between atoms: N_7  and  C_8 
REMARK    2  A    between atoms: C_17  and  C_19 
ROOT
HETATM    1 Cl   UNK N   1      29.984  18.690  -8.299  0.00  0.00    -0.084 Cl
HETATM    2  C   UNK N   1      29.718  20.075  -7.263  0.00  0.00     0.036 A 
HETATM    3  N   UNK N   1      27.444  22.922  -7.004  0.00  0.00    -0.358 N 
ATOM      4  HN  UNK N   1      26.840  22.724  -7.801  1.00  0.00     0.166 HD
HETATM    5  C   UNK N   1      28.472  22.084  -6.739  0.00  0.00     0.046 A 
HETATM    6  C   UNK N   1      27.191  24.019  -6.243  0.00  0.00     0.019 A 
HETATM    7  C   UNK N   1      29.085  23.452  -4.828  0.00  0.00     0.047 A 
HETATM    8  C   UNK N   1      28.687  20.970  -7.555  0.00  0.00     0.054 A 
HETATM    9  C   UNK N   1      30.532  20.284  -6.146  0.00  0.00     0.025 A 
HETATM   10  C   UNK N   1      29.305  22.312  -5.622  0.00  0.00     0.018 A 
HETATM   11  C   UNK N   1      25.916  24.777  -6.499  0.00  0.00     0.066 C 
HETATM   12  C   UNK N   1      28.034  24.337  -5.156  0.00  0.00    -0.004 A 
HETATM   13  C   UNK N   1      25.596  25.906  -5.506  0.00  0.00     0.014 C 
HETATM   14  C   UNK N   1      26.084  27.171  -6.126  0.00  0.00    -0.019 C 
HETATM   15  C   UNK N   1      26.249  25.700  -4.128  0.00  0.00     0.018 C 
HETATM   16  C   UNK N   1      27.351  27.575  -5.979  0.00  0.00    -0.083 C 
HETATM   17  C   UNK N   1      28.311  26.845  -5.060  0.00  0.00     0.043 C 
HETATM   18  C   UNK N   1      27.757  25.586  -4.343  0.00  0.00     0.027 C 
HETATM   19  C   UNK N   1      30.330  21.402  -5.329  0.00  0.00     0.018 A 
ENDROOT
BRANCH   7  20
HETATM   20  N   UNK N   1      29.913  23.699  -3.707  0.00  0.00    -0.398 N 
HETATM   21  H   UNK N   1      30.767  23.416  -3.307  0.00  0.00     0.156 HD
HETATM   22  H   UNK N   1      29.494  24.381  -3.134  0.00  0.00     0.156 HD
ENDBRANCH   7  20
BRANCH  16  23
HETATM   23  C   UNK N   1      27.802  28.813  -6.682  0.00  0.00     0.029 C 
HETATM   24  C   UNK N   1      28.096  29.917  -5.679  0.00  0.00     0.010 C 
ENDBRANCH  16  23
TORSDOF 2
ENDMDL
MODEL 5
REMARK VINA RESULT:      -6.8      8.377     12.225
REMARK  2 active torsions:
REMARK  status: ('A' for Active; 'I' for Inactive)
REMARK    1  A    between atoms: N_7  and  C_8 
REMARK    2  A    between atoms: C_17  and  C_19 
ROOT
HETATM    1 Cl   UNK N   1      19.811  19.313   2.963  0.00  0.00    -0.084 Cl
HETATM    2  C   UNK N   1      21.542  19.414   3.197  0.00  0.00     0.036 A 
HETATM    3  N   UNK N   1      24.212  17.542   4.841  0.00  0.00    -0.358 N 
ATOM      4  HN  UNK N   1      23.666  16.763   5.208  1.00  0.00     0.166 HD
HETATM    5  C   UNK N   1      23.579  18.516   4.148  0.00  0.00     0.046 A 
HETATM    6  C   UNK N   1      25.552  17.569   5.064  0.00  0.00     0.019 A 
HETATM    7  C   UNK N   1      25.698  19.659   3.831  0.00  0.00     0.047 A 
HETATM    8  C   UNK N   1      22.198  18.438   3.948  0.00  0.00     0.054 A 
HETATM    9  C   UNK N   1      22.266  20.468   2.631  0.00  0.00     0.025 A 
HETATM   10  C   UNK N   1      24.313  19.589   3.597  0.00  0.00     0.018 A 
HETATM   11  C   UNK N   1      26.192  16.350   5.673  0.00  0.00     0.066 C 
HETATM   12  C   UNK N   1      26.327  18.654   4.599  0.00  0.00    -0.004 A 
HETATM   13  C   UNK N   1      27.726  16.364   5.751  0.00  0.00     0.014 C 
HETATM   14  C   UNK N   1      28.080  16.829   7.123  0.00  0.00    -0.019 C 
HETATM   15  C   UNK N   1      28.375  17.277   4.695  0.00  0.00     0.018 C 
HETATM   16  C   UNK N   1      28.181  18.131   7.413  0.00  0.00    -0.083 C 
HETATM   17  C   UNK N   1      28.082  19.191   6.333  0.00  0.00     0.043 C 
HETATM   18  C   UNK N   1      27.813  18.684   4.892  0.00  0.00     0.027 C 
HETATM   19  C   UNK N   1      23.648  20.559   2.835  0.00  0.00     0.018 A 
ENDROOT
BRANCH   7  20
HETATM   20  N   UNK N   1      26.449  20.730   3.291  0.00  0.00    -0.398 N 
HETATM   21  H   UNK N   1      27.370  21.073   3.241  0.00  0.00     0.156 HD
HETATM   22  H   UNK N   1      25.847  21.338   2.801  0.00  0.00     0.156 HD
ENDBRANCH   7  20
BRANCH  16  23
HETATM   23  C   UNK N   1      28.466  18.539   8.821  0.00  0.00     0.029 C 
HETATM   24  C   UNK N   1      29.967  18.586   9.067  0.00  0.00     0.010 C 
ENDBRANCH  16  23
TORSDOF 2
ENDMDL
MODEL 6
REMARK VINA RESULT:      -6.6      2.894      6.612
REMARK  2 active torsions:
REMARK  status: ('A' for Active; 'I' for Inactive)
REMARK    1  A    between atoms: N_7  and  C_8 
REMARK    2  A    between atoms: C_17  and  C_19 
ROOT
HETATM    1 Cl   UNK N   1      30.329  16.686   6.033  0.00  0.00    -0.084 Cl
HETATM    2  C   UNK N   1      31.596  16.476   7.222  0.00  0.00     0.036 A 
HETATM    3  N   UNK N   1      33.386  13.762   8.887  0.00  0.00    -0.358 N 
ATOM      4  HN  UNK N   1      32.942  12.967   8.430  1.00  0.00     0.166 HD
HETATM    5  C   UNK N   1      32.988  15.012   8.557  0.00  0.00     0.046 A 
HETATM    6  C   UNK N   1      34.358  13.534   9.809  0.00  0.00     0.019 A 
HETATM    7  C   UNK N   1      34.599  15.933  10.123  0.00  0.00     0.047 A 
HETATM    8  C   UNK N   1      31.983  15.190   7.602  0.00  0.00     0.054 A 
HETATM    9  C   UNK N   1      32.220  17.592   7.788  0.00  0.00     0.025 A 
HETATM   10  C   UNK N   1      33.607  16.135   9.147  0.00  0.00     0.018 A 
HETATM   11  C   UNK N   1      34.866  12.125   9.966  0.00  0.00     0.066 C 
HETATM   12  C   UNK N   1      34.963  14.616  10.484  0.00  0.00    -0.004 A 
HETATM   13  C   UNK N   1      36.075  11.948  10.896  0.00  0.00     0.014 C 
HETATM   14  C   UNK N   1      35.534  11.548  12.228  0.00  0.00    -0.019 C 
HETATM   15  C   UNK N   1      36.928  13.222  11.027  0.00  0.00     0.018 C 
HETATM   16  C   UNK N   1      35.142  12.462  13.122  0.00  0.00    -0.083 C 
HETATM   17  C   UNK N   1      35.361  13.944  12.886  0.00  0.00     0.043 C 
HETATM   18  C   UNK N   1      36.017  14.338  11.537  0.00  0.00     0.027 C 
HETATM   19  C   UNK N   1      33.221  17.423   8.752  0.00  0.00     0.018 A 
ENDROOT
BRANCH   7  20
HETATM   20  N   UNK N   1      35.228  17.047  10.729  0.00  0.00    -0.398 N 
HETATM   21  H   UNK N   1      35.881  17.758  10.536  0.00  0.00     0.156 HD
HETATM   22  H   UNK N   1      34.904  17.143  11.654  0.00  0.00     0.156 HD
ENDBRANCH   7  20
BRANCH  16  23
HETATM   23  C   UNK N   1      34.541  12.003  14.410  0.00  0.00     0.029 C 
HETATM   24  C   UNK N   1      33.851  10.660  14.225  0.00  0.00     0.010 C 
ENDBRANCH  16  23
TORSDOF 2
ENDMDL
MODEL 7
REMARK VINA RESULT:      -6.5      5.281      7.953
REMARK  2 active torsions:
REMARK  status: ('A' for Active; 'I' for Inactive)
REMARK    1  A    between atoms: N_7  and  C_8 
REMARK    2  A    between atoms: C_17  and  C_19 
ROOT
HETATM    1 Cl   UNK N   1      32.644  15.352   9.417  0.00  0.00    -0.084 Cl
HETATM    2  C   UNK N   1      31.766  15.999   8.049  0.00  0.00     0.036 A 
HETATM    3  N   UNK N   1      28.976  18.263   7.391  0.00  0.00    -0.358 N 
ATOM      4  HN  UNK N   1      28.753  18.533   8.348  1.00  0.00     0.166 HD
HETATM    5  C   UNK N   1      29.983  17.386   7.176  0.00  0.00     0.046 A 
HETATM    6  C   UNK N   1      28.251  18.794   6.372  0.00  0.00     0.019 A 
HETATM    7  C   UNK N   1      29.591  17.530   4.784  0.00  0.00     0.047 A 
HETATM    8  C   UNK N   1      30.696  16.870   8.262  0.00  0.00     0.054 A 
HETATM    9  C   UNK N   1      32.135  15.648   6.747  0.00  0.00     0.025 A 
HETATM   10  C   UNK N   1      30.337  17.018   5.860  0.00  0.00     0.018 A 
HETATM   11  C   UNK N   1      27.285  19.902   6.694  0.00  0.00     0.066 C 
HETATM   12  C   UNK N   1      28.513  18.407   5.039  0.00  0.00    -0.004 A 
HETATM   13  C   UNK N   1      26.615  20.580   5.489  0.00  0.00     0.014 C 
HETATM   14  C   UNK N   1      25.288  19.923   5.313  0.00  0.00    -0.019 C 
HETATM   15  C   UNK N   1      27.442  20.467   4.196  0.00  0.00     0.018 C 
HETATM   16  C   UNK N   1      25.155  18.803   4.594  0.00  0.00    -0.083 C 
HETATM   17  C   UNK N   1      26.316  18.227   3.806  0.00  0.00     0.043 C 
HETATM   18  C   UNK N   1      27.667  18.981   3.919  0.00  0.00     0.027 C 
HETATM   19  C   UNK N   1      31.420  16.152   5.654  0.00  0.00     0.018 A 
ENDROOT
BRANCH   7  20
HETATM   20  N   UNK N   1      29.929  17.169   3.458  0.00  0.00    -0.398 N 
HETATM   21  H   UNK N   1      30.316  16.426   2.941  0.00  0.00     0.156 HD
HETATM   22  H   UNK N   1      29.702  17.909   2.849  0.00  0.00     0.156 HD
ENDBRANCH   7  20
BRANCH  16  23
HETATM   23  C   UNK N   1      23.815  18.149   4.512  0.00  0.00     0.029 C 
HETATM   24  C   UNK N   1      22.820  19.062   3.812  0.00  0.00     0.010 C 
ENDBRANCH  16  23
TORSDOF 2
ENDMDL
MODEL 8
REMARK VINA RESULT:      -6.4     11.746     13.000
REMARK  2 active torsions:
REMARK  status: ('A' for Active; 'I' for Inactive)
REMARK    1  A    between atoms: N_7  and  C_8 
REMARK    2  A    between atoms: C_17  and  C_19 
ROOT
HETATM    1 Cl   UNK N   1      20.555  12.033  11.829  0.00  0.00    -0.084 Cl
HETATM    2  C   UNK N   1      21.312  12.708  10.403  0.00  0.00     0.036 A 
HETATM    3  N   UNK N   1      20.942  15.595   8.197  0.00  0.00    -0.358 N 
ATOM      4  HN  UNK N   1      20.164  16.060   8.662  1.00  0.00     0.166 HD
HETATM    5  C   UNK N   1      21.405  14.429   8.703  0.00  0.00     0.046 A 
HETATM    6  C   UNK N   1      21.482  16.165   7.087  0.00  0.00     0.019 A 
HETATM    7  C   UNK N   1      23.069  14.330   6.937  0.00  0.00     0.047 A 
HETATM    8  C   UNK N   1      20.813  13.887   9.847  0.00  0.00     0.054 A 
HETATM    9  C   UNK N   1      22.413  12.071   9.824  0.00  0.00     0.025 A 
HETATM   10  C   UNK N   1      22.504  13.779   8.101  0.00  0.00     0.018 A 
HETATM   11  C   UNK N   1      21.030  17.552   6.715  0.00  0.00     0.066 C 
HETATM   12  C   UNK N   1      22.536  15.523   6.401  0.00  0.00    -0.004 A 
HETATM   13  C   UNK N   1      21.788  18.216   5.555  0.00  0.00     0.014 C 
HETATM   14  C   UNK N   1      20.977  17.980   4.325  0.00  0.00    -0.019 C 
HETATM   15  C   UNK N   1      23.212  17.663   5.369  0.00  0.00     0.018 C 
HETATM   16  C   UNK N   1      21.114  16.861   3.605  0.00  0.00    -0.083 C 
HETATM   17  C   UNK N   1      22.196  15.846   3.920  0.00  0.00     0.043 C 
HETATM   18  C   UNK N   1      23.097  16.156   5.143  0.00  0.00     0.027 C 
HETATM   19  C   UNK N   1      23.006  12.602   8.672  0.00  0.00     0.018 A 
ENDROOT
BRANCH   7  20
HETATM   20  N   UNK N   1      24.168  13.688   6.317  0.00  0.00    -0.398 N 
HETATM   21  H   UNK N   1      24.597  13.581   5.438  0.00  0.00     0.156 HD
HETATM   22  H   UNK N   1      24.673  13.179   6.992  0.00  0.00     0.156 HD
ENDBRANCH   7  20
BRANCH  16  23
HETATM   23  C   UNK N   1      20.224  16.647   2.425  0.00  0.00     0.029 C 
HETATM   24  C   UNK N   1      20.196  17.889   1.548  0.00  0.00     0.010 C 
ENDBRANCH  16  23
TORSDOF 2
ENDMDL
MODEL 9
REMARK VINA RESULT:      -6.4      6.986     11.386
REMARK  2 active torsions:
REMARK  status: ('A' for Active; 'I' for Inactive)
REMARK    1  A    between atoms: N_7  and  C_8 
REMARK    2  A    between atoms: C_17  and  C_19 
ROOT
HETATM    1 Cl   UNK N   1      35.317  13.061  12.938  0.00  0.00    -0.084 Cl
HETATM    2  C   UNK N   1      35.300  12.667  14.642  0.00  0.00     0.036 A 
HETATM    3  N   UNK N   1      34.880   9.739  16.785  0.00  0.00    -0.358 N 
ATOM      4  HN  UNK N   1      34.769   9.024  16.068  1.00  0.00     0.166 HD
HETATM    5  C   UNK N   1      35.053  11.026  16.405  0.00  0.00     0.046 A 
HETATM    6  C   UNK N   1      34.848   9.370  18.093  0.00  0.00     0.019 A 
HETATM    7  C   UNK N   1      35.191  11.690  18.737  0.00  0.00     0.047 A 
HETATM    8  C   UNK N   1      35.077  11.349  15.046  0.00  0.00     0.054 A 
HETATM    9  C   UNK N   1      35.510  13.667  15.597  0.00  0.00     0.025 A 
HETATM   10  C   UNK N   1      35.243  12.034  17.375  0.00  0.00     0.018 A 
HETATM   11  C   UNK N   1      34.847   7.900  18.412  0.00  0.00     0.066 C 
HETATM   12  C   UNK N   1      34.961  10.346  19.108  0.00  0.00    -0.004 A 
HETATM   13  C   UNK N   1      34.979   7.535  19.899  0.00  0.00     0.014 C 
HETATM   14  C   UNK N   1      33.596   7.310  20.408  0.00  0.00    -0.019 C 
HETATM   15  C   UNK N   1      35.681   8.626  20.727  0.00  0.00     0.018 C 
HETATM   16  C   UNK N   1      32.844   8.323  20.855  0.00  0.00    -0.083 C 
HETATM   17  C   UNK N   1      33.410   9.722  21.000  0.00  0.00     0.043 C 
HETATM   18  C   UNK N   1      34.884   9.919  20.560  0.00  0.00     0.027 C 
HETATM   19  C   UNK N   1      35.477  13.353  16.961  0.00  0.00     0.018 A 
ENDROOT
BRANCH   7  20
HETATM   20  N   UNK N   1      35.375  12.689  19.723  0.00  0.00    -0.398 N 
HETATM   21  H   UNK N   1      35.238  13.652  19.874  0.00  0.00     0.156 HD
HETATM   22  H   UNK N   1      35.776  12.286  20.527  0.00  0.00     0.156 HD
ENDBRANCH   7  20
BRANCH  16  23
HETATM   23  C   UNK N   1      31.440   8.048  21.285  0.00  0.00     0.029 C 
HETATM   24  C   UNK N   1      30.573   7.709  20.082  0.00  0.00     0.010 C 
ENDBRANCH  16  23
TORSDOF 2
ENDMDL
