REMARK  2 active torsions:
REMARK  status: ('A' for Active; 'I' for Inactive)
REMARK    1  A    between atoms: N_7  and  C_8 
REMARK    2  A    between atoms: C_17  and  C_19 
ROOT
HETATM    1 Cl   UNK N   1       4.042  -5.472   0.189  0.00  0.00    -0.084 Cl
HETATM    2  C   UNK N   1       3.334  -3.910  -0.159  0.00  0.00     0.036 A 
HETATM    3  N   UNK N   1       0.660  -1.760   1.093  0.00  0.00    -0.358 N 
ATOM      4  HN  UNK N   1       0.331  -2.338   1.865  1.00  0.00     0.166 HD
HETATM    5  C   UNK N   1       1.677  -2.212   0.324  0.00  0.00     0.046 A 
HETATM    6  C   UNK N   1       0.063  -0.560   0.868  0.00  0.00     0.019 A 
HETATM    7  C   UNK N   1       1.566  -0.183  -1.006  0.00  0.00     0.047 A 
HETATM    8  C   UNK N   1       2.255  -3.454   0.600  0.00  0.00     0.054 A 
HETATM    9  C   UNK N   1       3.848  -3.120  -1.192  0.00  0.00     0.025 A 
HETATM   10  C   UNK N   1       2.178  -1.419  -0.731  0.00  0.00     0.018 A 
HETATM   11  C   UNK N   1      -0.923  -0.059   1.889  0.00  0.00     0.066 C 
HETATM   12  C   UNK N   1       0.474   0.244  -0.218  0.00  0.00    -0.004 A 
HETATM   13  C   UNK N   1      -1.443   1.371   1.675  0.00  0.00     0.014 C 
HETATM   14  C   UNK N   1      -2.747   1.249   0.962  0.00  0.00    -0.019 C 
HETATM   15  C   UNK N   1      -0.473   2.251   0.867  0.00  0.00     0.018 C 
HETATM   16  C   UNK N   1      -2.806   1.165  -0.372  0.00  0.00    -0.083 C 
HETATM   17  C   UNK N   1      -1.567   1.334  -1.230  0.00  0.00     0.043 C 
HETATM   18  C   UNK N   1      -0.231   1.561  -0.475  0.00  0.00     0.027 C 
HETATM   19  C   UNK N   1       3.269  -1.879  -1.481  0.00  0.00     0.018 A 
ENDROOT
BRANCH   7  20
HETATM   20  N   UNK N   1       2.052   0.623  -2.063  0.00  0.00    -0.398 N 
HETATM   21  H   UNK N   1       2.707   0.611  -2.798  0.00  0.00     0.156 HD
HETATM   22  H   UNK N   1       1.576   1.485  -2.063  0.00  0.00     0.156 HD
ENDBRANCH   7  20
BRANCH  16  23
HETATM   23  C   UNK N   1      -4.134   0.971  -1.027  0.00  0.00     0.029 C 
HETATM   24  C   UNK N   1      -4.747  -0.355  -0.603  0.00  0.00     0.010 C 
ENDBRANCH  16  23
TORSDOF 2
