MODEL 1
REMARK VINA RESULT:      -5.8      0.000      0.000
REMARK  8 active torsions:
REMARK  status: ('A' for Active; 'I' for Inactive)
REMARK    1  A    between atoms: N_2  and  C_9 
REMARK    2  A    between atoms: N_2  and  C_11 
REMARK    3  A    between atoms: N_2  and  C_12 
REMARK    4  A    between atoms: N_3  and  C_8 
REMARK    5  A    between atoms: N_3  and  C_13 
REMARK    6  A    between atoms: C_6  and  C_7 
REMARK    7  A    between atoms: C_6  and  C_8 
REMARK    8  A    between atoms: C_7  and  C_9 
ROOT
HETATM    1 Cl   UNK N   1      36.024  15.646  11.158  0.00  0.00    -0.084 Cl
HETATM    2  N   UNK N   1      34.048  11.320  13.036  0.00  0.00    -0.365 N 
ATOM      3  HN  UNK N   1      33.580  11.206  12.137  1.00  0.00     0.165 HD
HETATM    4  C   UNK N   1      35.313  11.624  15.482  0.00  0.00     0.042 A 
HETATM    5  C   UNK N   1      35.484  12.591  14.484  0.00  0.00     0.017 A 
HETATM    6  C   UNK N   1      34.512  10.507  15.234  0.00  0.00     0.047 A 
HETATM    7  C   UNK N   1      34.831  12.411  13.244  0.00  0.00     0.046 A 
HETATM    8  C   UNK N   1      36.309  13.707  14.680  0.00  0.00     0.018 A 
HETATM    9  C   UNK N   1      33.874  10.375  14.001  0.00  0.00     0.090 A 
HETATM   10  C   UNK N   1      35.005  13.351  12.225  0.00  0.00     0.054 A 
HETATM   11  C   UNK N   1      36.475  14.643  13.656  0.00  0.00     0.025 A 
HETATM   12  C   UNK N   1      35.823  14.465  12.432  0.00  0.00     0.036 A 
ENDROOT
BRANCH   4  13
HETATM   13  N   UNK N   1      36.027  11.712  16.693  0.00  0.00    -0.385 N 
HETATM   14  H   UNK N   1      36.997  11.551  16.730  0.00  0.00     0.160 HD
BRANCH  13  15
HETATM   15  C   UNK N   1      35.278  12.048  17.868  0.00  0.00     0.077 C 
HETATM   16  C   UNK N   1      35.058  13.539  18.062  0.00  0.00     0.032 C 
BRANCH  15  17
HETATM   17  C   UNK N   1      35.591  11.143  19.057  0.00  0.00     0.026 C 
BRANCH  17  18
HETATM   18  C   UNK N   1      34.571  10.051  19.312  0.00  0.00     0.032 C 
BRANCH  18  19
HETATM   19  C   UNK N   1      34.262   9.841  20.800  0.00  0.00     0.272 C 
BRANCH  19  20
HETATM   20  N   UNK N   1      33.199   8.847  21.006  0.00  0.00     0.087 N 
BRANCH  20  21
HETATM   21  C   UNK N   1      32.532   8.574  19.726  0.00  0.00     0.268 C 
HETATM   22  C   UNK N   1      31.073   8.224  19.944  0.00  0.00     0.037 C 
ENDBRANCH  20  21
BRANCH  20  23
HETATM   23  C   UNK N   1      32.307   9.389  22.042  0.00  0.00     0.268 C 
HETATM   24  C   UNK N   1      32.818  10.627  22.770  0.00  0.00     0.037 C 
ENDBRANCH  20  23
ENDBRANCH  19  20
ENDBRANCH  18  19
ENDBRANCH  17  18
ENDBRANCH  15  17
ENDBRANCH  13  15
ENDBRANCH   4  13
TORSDOF 8
ENDMDL
MODEL 2
REMARK VINA RESULT:      -5.6      4.317      9.109
REMARK  8 active torsions:
REMARK  status: ('A' for Active; 'I' for Inactive)
REMARK    1  A    between atoms: N_2  and  C_9 
REMARK    2  A    between atoms: N_2  and  C_11 
REMARK    3  A    between atoms: N_2  and  C_12 
REMARK    4  A    between atoms: N_3  and  C_8 
REMARK    5  A    between atoms: N_3  and  C_13 
REMARK    6  A    between atoms: C_6  and  C_7 
REMARK    7  A    between atoms: C_6  and  C_8 
REMARK    8  A    between atoms: C_7  and  C_9 
ROOT
HETATM    1 Cl   UNK N   1      35.001  13.504  18.163  0.00  0.00    -0.084 Cl
HETATM    2  N   UNK N   1      34.183  11.420  13.566  0.00  0.00    -0.365 N 
ATOM      3  HN  UNK N   1      33.407  10.914  13.993  1.00  0.00     0.165 HD
HETATM    4  C   UNK N   1      36.291  12.788  12.401  0.00  0.00     0.042 A 
HETATM    5  C   UNK N   1      36.015  12.962  13.763  0.00  0.00     0.017 A 
HETATM    6  C   UNK N   1      35.495  11.932  11.636  0.00  0.00     0.047 A 
HETATM    7  C   UNK N   1      34.932  12.255  14.332  0.00  0.00     0.046 A 
HETATM    8  C   UNK N   1      36.766  13.840  14.555  0.00  0.00     0.018 A 
HETATM    9  C   UNK N   1      34.444  11.243  12.241  0.00  0.00     0.090 A 
HETATM   10  C   UNK N   1      34.624  12.430  15.684  0.00  0.00     0.054 A 
HETATM   11  C   UNK N   1      36.451  14.006  15.906  0.00  0.00     0.025 A 
HETATM   12  C   UNK N   1      35.383  13.301  16.469  0.00  0.00     0.036 A 
ENDROOT
BRANCH   4  13
HETATM   13  N   UNK N   1      37.294  13.550  11.772  0.00  0.00    -0.385 N 
HETATM   14  H   UNK N   1      38.225  13.538  12.092  0.00  0.00     0.160 HD
BRANCH  13  15
HETATM   15  C   UNK N   1      36.901  14.345  10.645  0.00  0.00     0.077 C 
HETATM   16  C   UNK N   1      37.754  14.133   9.405  0.00  0.00     0.032 C 
BRANCH  15  17
HETATM   17  C   UNK N   1      36.419  15.740  11.034  0.00  0.00     0.026 C 
BRANCH  17  18
HETATM   18  C   UNK N   1      34.943  15.993  10.798  0.00  0.00     0.032 C 
BRANCH  18  19
HETATM   19  C   UNK N   1      34.661  16.819   9.536  0.00  0.00     0.272 C 
BRANCH  19  20
HETATM   20  N   UNK N   1      33.737  16.130   8.623  0.00  0.00     0.087 N 
BRANCH  20  21
HETATM   21  C   UNK N   1      34.492  15.190   7.783  0.00  0.00     0.268 C 
HETATM   22  C   UNK N   1      33.843  13.820   7.793  0.00  0.00     0.037 C 
ENDBRANCH  20  21
BRANCH  20  23
HETATM   23  C   UNK N   1      33.032  17.175   7.866  0.00  0.00     0.268 C 
HETATM   24  C   UNK N   1      33.664  17.565   6.535  0.00  0.00     0.037 C 
ENDBRANCH  20  23
ENDBRANCH  19  20
ENDBRANCH  18  19
ENDBRANCH  17  18
ENDBRANCH  15  17
ENDBRANCH  13  15
ENDBRANCH   4  13
TORSDOF 8
ENDMDL
MODEL 3
REMARK VINA RESULT:      -5.6     11.431     15.099
REMARK  8 active torsions:
REMARK  status: ('A' for Active; 'I' for Inactive)
REMARK    1  A    between atoms: N_2  and  C_9 
REMARK    2  A    between atoms: N_2  and  C_11 
REMARK    3  A    between atoms: N_2  and  C_12 
REMARK    4  A    between atoms: N_3  and  C_8 
REMARK    5  A    between atoms: N_3  and  C_13 
REMARK    6  A    between atoms: C_6  and  C_7 
REMARK    7  A    between atoms: C_6  and  C_8 
REMARK    8  A    between atoms: C_7  and  C_9 
ROOT
HETATM    1 Cl   UNK N   1      34.555  17.903   7.904  0.00  0.00    -0.084 Cl
HETATM    2  N   UNK N   1      29.616  17.872   9.231  0.00  0.00    -0.365 N 
ATOM      3  HN  UNK N   1      29.919  18.162  10.161  1.00  0.00     0.165 HD
HETATM    4  C   UNK N   1      28.786  17.080   6.710  0.00  0.00     0.042 A 
HETATM    5  C   UNK N   1      30.150  17.254   6.972  0.00  0.00     0.017 A 
HETATM    6  C   UNK N   1      27.851  17.317   7.721  0.00  0.00     0.047 A 
HETATM    7  C   UNK N   1      30.548  17.661   8.265  0.00  0.00     0.046 A 
HETATM    8  C   UNK N   1      31.116  17.063   5.975  0.00  0.00     0.018 A 
HETATM    9  C   UNK N   1      28.287  17.704   8.987  0.00  0.00     0.090 A 
HETATM   10  C   UNK N   1      31.902  17.863   8.543  0.00  0.00     0.054 A 
HETATM   11  C   UNK N   1      32.468  17.266   6.263  0.00  0.00     0.025 A 
HETATM   12  C   UNK N   1      32.860  17.663   7.545  0.00  0.00     0.036 A 
ENDROOT
BRANCH   4  13
HETATM   13  N   UNK N   1      28.340  16.776   5.409  0.00  0.00    -0.385 N 
HETATM   14  H   UNK N   1      28.611  17.317   4.633  0.00  0.00     0.160 HD
BRANCH  13  15
HETATM   15  C   UNK N   1      27.475  15.641   5.265  0.00  0.00     0.077 C 
HETATM   16  C   UNK N   1      28.205  14.322   5.072  0.00  0.00     0.032 C 
BRANCH  15  17
HETATM   17  C   UNK N   1      26.204  15.954   4.480  0.00  0.00     0.026 C 
BRANCH  17  18
HETATM   18  C   UNK N   1      25.594  17.311   4.770  0.00  0.00     0.032 C 
BRANCH  18  19
HETATM   19  C   UNK N   1      25.623  18.263   3.568  0.00  0.00     0.272 C 
BRANCH  19  20
HETATM   20  N   UNK N   1      26.413  19.471   3.843  0.00  0.00     0.087 N 
BRANCH  20  21
HETATM   21  C   UNK N   1      26.350  19.779   5.278  0.00  0.00     0.268 C 
HETATM   22  C   UNK N   1      27.628  20.453   5.740  0.00  0.00     0.037 C 
ENDBRANCH  20  21
BRANCH  20  23
HETATM   23  C   UNK N   1      25.875  20.534   2.980  0.00  0.00     0.268 C 
HETATM   24  C   UNK N   1      24.362  20.528   2.792  0.00  0.00     0.037 C 
ENDBRANCH  20  23
ENDBRANCH  19  20
ENDBRANCH  18  19
ENDBRANCH  17  18
ENDBRANCH  15  17
ENDBRANCH  13  15
ENDBRANCH   4  13
TORSDOF 8
ENDMDL
MODEL 4
REMARK VINA RESULT:      -5.5     23.600     27.943
REMARK  8 active torsions:
REMARK  status: ('A' for Active; 'I' for Inactive)
REMARK    1  A    between atoms: N_2  and  C_9 
REMARK    2  A    between atoms: N_2  and  C_11 
REMARK    3  A    between atoms: N_2  and  C_12 
REMARK    4  A    between atoms: N_3  and  C_8 
REMARK    5  A    between atoms: N_3  and  C_13 
REMARK    6  A    between atoms: C_6  and  C_7 
REMARK    7  A    between atoms: C_6  and  C_8 
REMARK    8  A    between atoms: C_7  and  C_9 
ROOT
HETATM    1 Cl   UNK N   1      30.392  30.375  -8.233  0.00  0.00    -0.084 Cl
HETATM    2  N   UNK N   1      27.056  29.590  -4.438  0.00  0.00    -0.365 N 
ATOM      3  HN  UNK N   1      27.448  30.420  -3.994  1.00  0.00     0.165 HD
HETATM    4  C   UNK N   1      25.987  27.334  -5.639  0.00  0.00     0.042 A 
HETATM    5  C   UNK N   1      27.034  28.025  -6.262  0.00  0.00     0.017 A 
HETATM    6  C   UNK N   1      25.483  27.792  -4.420  0.00  0.00     0.047 A 
HETATM    7  C   UNK N   1      27.559  29.175  -5.631  0.00  0.00     0.046 A 
HETATM    8  C   UNK N   1      27.542  27.620  -7.502  0.00  0.00     0.018 A 
HETATM    9  C   UNK N   1      26.040  28.923  -3.824  0.00  0.00     0.090 A 
HETATM   10  C   UNK N   1      28.587  29.895  -6.245  0.00  0.00     0.054 A 
HETATM   11  C   UNK N   1      28.572  28.344  -8.107  0.00  0.00     0.025 A 
HETATM   12  C   UNK N   1      29.094  29.478  -7.478  0.00  0.00     0.036 A 
ENDROOT
BRANCH   4  13
HETATM   13  N   UNK N   1      25.367  26.245  -6.282  0.00  0.00    -0.385 N 
HETATM   14  H   UNK N   1      24.549  26.362  -6.816  0.00  0.00     0.160 HD
BRANCH  13  15
HETATM   15  C   UNK N   1      25.981  24.959  -6.125  0.00  0.00     0.077 C 
HETATM   16  C   UNK N   1      26.023  24.129  -7.398  0.00  0.00     0.032 C 
BRANCH  15  17
HETATM   17  C   UNK N   1      25.675  24.310  -4.777  0.00  0.00     0.026 C 
BRANCH  17  18
HETATM   18  C   UNK N   1      26.823  24.329  -3.787  0.00  0.00     0.032 C 
BRANCH  18  19
HETATM   19  C   UNK N   1      28.182  24.627  -4.433  0.00  0.00     0.272 C 
BRANCH  19  20
HETATM   20  N   UNK N   1      29.157  23.558  -4.180  0.00  0.00     0.087 N 
BRANCH  20  21
HETATM   21  C   UNK N   1      30.127  24.010  -3.173  0.00  0.00     0.268 C 
HETATM   22  C   UNK N   1      30.811  22.826  -2.517  0.00  0.00     0.037 C 
ENDBRANCH  20  21
BRANCH  20  23
HETATM   23  C   UNK N   1      29.759  23.218  -5.479  0.00  0.00     0.268 C 
HETATM   24  C   UNK N   1      28.991  22.198  -6.314  0.00  0.00     0.037 C 
ENDBRANCH  20  23
ENDBRANCH  19  20
ENDBRANCH  18  19
ENDBRANCH  17  18
ENDBRANCH  15  17
ENDBRANCH  13  15
ENDBRANCH   4  13
TORSDOF 8
ENDMDL
MODEL 5
REMARK VINA RESULT:      -5.2     13.143     16.654
REMARK  8 active torsions:
REMARK  status: ('A' for Active; 'I' for Inactive)
REMARK    1  A    between atoms: N_2  and  C_9 
REMARK    2  A    between atoms: N_2  and  C_11 
REMARK    3  A    between atoms: N_2  and  C_12 
REMARK    4  A    between atoms: N_3  and  C_8 
REMARK    5  A    between atoms: N_3  and  C_13 
REMARK    6  A    between atoms: C_6  and  C_7 
REMARK    7  A    between atoms: C_6  and  C_8 
REMARK    8  A    between atoms: C_7  and  C_9 
ROOT
HETATM    1 Cl   UNK N   1      19.947  19.812   2.812  0.00  0.00    -0.084 Cl
HETATM    2  N   UNK N   1      24.967  20.789   2.796  0.00  0.00    -0.365 N 
ATOM      3  HN  UNK N   1      24.757  21.577   2.183  1.00  0.00     0.165 HD
HETATM    4  C   UNK N   1      25.544  18.651   4.459  0.00  0.00     0.042 A 
HETATM    5  C   UNK N   1      24.220  18.896   4.073  0.00  0.00     0.017 A 
HETATM    6  C   UNK N   1      26.564  19.492   4.009  0.00  0.00     0.047 A 
HETATM    7  C   UNK N   1      23.952  19.995   3.227  0.00  0.00     0.046 A 
HETATM    8  C   UNK N   1      23.165  18.097   4.532  0.00  0.00     0.018 A 
HETATM    9  C   UNK N   1      26.257  20.558   3.164  0.00  0.00     0.090 A 
HETATM   10  C   UNK N   1      22.636  20.273   2.848  0.00  0.00     0.054 A 
HETATM   11  C   UNK N   1      21.853  18.382   4.146  0.00  0.00     0.025 A 
HETATM   12  C   UNK N   1      21.590  19.467   3.304  0.00  0.00     0.036 A 
ENDROOT
BRANCH   4  13
HETATM   13  N   UNK N   1      25.842  17.629   5.382  0.00  0.00    -0.385 N 
HETATM   14  H   UNK N   1      25.466  17.633   6.292  0.00  0.00     0.160 HD
BRANCH  13  15
HETATM   15  C   UNK N   1      26.716  16.583   4.937  0.00  0.00     0.077 C 
HETATM   16  C   UNK N   1      26.194  15.799   3.745  0.00  0.00     0.032 C 
BRANCH  15  17
HETATM   17  C   UNK N   1      27.436  15.877   6.084  0.00  0.00     0.026 C 
BRANCH  17  18
HETATM   18  C   UNK N   1      28.947  15.991   6.054  0.00  0.00     0.032 C 
BRANCH  18  19
HETATM   19  C   UNK N   1      29.469  17.322   6.609  0.00  0.00     0.272 C 
BRANCH  19  20
HETATM   20  N   UNK N   1      29.474  17.341   8.078  0.00  0.00     0.087 N 
BRANCH  20  21
HETATM   21  C   UNK N   1      28.325  18.118   8.561  0.00  0.00     0.268 C 
HETATM   22  C   UNK N   1      28.045  19.290   7.641  0.00  0.00     0.037 C 
ENDBRANCH  20  21
BRANCH  20  23
HETATM   23  C   UNK N   1      30.778  17.883   8.490  0.00  0.00     0.268 C 
HETATM   24  C   UNK N   1      31.971  17.442   7.649  0.00  0.00     0.037 C 
ENDBRANCH  20  23
ENDBRANCH  19  20
ENDBRANCH  18  19
ENDBRANCH  17  18
ENDBRANCH  15  17
ENDBRANCH  13  15
ENDBRANCH   4  13
TORSDOF 8
ENDMDL
MODEL 6
REMARK VINA RESULT:      -5.2     23.732     26.944
REMARK  8 active torsions:
REMARK  status: ('A' for Active; 'I' for Inactive)
REMARK    1  A    between atoms: N_2  and  C_9 
REMARK    2  A    between atoms: N_2  and  C_11 
REMARK    3  A    between atoms: N_2  and  C_12 
REMARK    4  A    between atoms: N_3  and  C_8 
REMARK    5  A    between atoms: N_3  and  C_13 
REMARK    6  A    between atoms: C_6  and  C_7 
REMARK    7  A    between atoms: C_6  and  C_8 
REMARK    8  A    between atoms: C_7  and  C_9 
ROOT
HETATM    1 Cl   UNK N   1      24.437  27.268  -5.621  0.00  0.00    -0.084 Cl
HETATM    2  N   UNK N   1      27.353  29.271  -1.929  0.00  0.00    -0.365 N 
ATOM      3  HN  UNK N   1      26.554  29.150  -1.306  1.00  0.00     0.165 HD
HETATM    4  C   UNK N   1      29.525  29.605  -3.614  0.00  0.00     0.042 A 
HETATM    5  C   UNK N   1      28.333  29.066  -4.113  0.00  0.00     0.017 A 
HETATM    6  C   UNK N   1      29.614  29.963  -2.267  0.00  0.00     0.047 A 
HETATM    7  C   UNK N   1      27.240  28.902  -3.232  0.00  0.00     0.046 A 
HETATM    8  C   UNK N   1      28.216  28.660  -5.448  0.00  0.00     0.018 A 
HETATM    9  C   UNK N   1      28.507  29.798  -1.435  0.00  0.00     0.090 A 
HETATM   10  C   UNK N   1      26.048  28.345  -3.701  0.00  0.00     0.054 A 
HETATM   11  C   UNK N   1      27.019  28.105  -5.909  0.00  0.00     0.025 A 
HETATM   12  C   UNK N   1      25.937  27.950  -5.037  0.00  0.00     0.036 A 
ENDROOT
BRANCH   4  13
HETATM   13  N   UNK N   1      30.669  29.689  -4.432  0.00  0.00    -0.385 N 
HETATM   14  H   UNK N   1      30.683  30.254  -5.238  0.00  0.00     0.160 HD
BRANCH  13  15
HETATM   15  C   UNK N   1      31.811  28.916  -4.039  0.00  0.00     0.077 C 
HETATM   16  C   UNK N   1      33.126  29.675  -4.095  0.00  0.00     0.032 C 
BRANCH  15  17
HETATM   17  C   UNK N   1      31.729  27.458  -4.484  0.00  0.00     0.026 C 
BRANCH  17  18
HETATM   18  C   UNK N   1      31.094  26.520  -3.477  0.00  0.00     0.032 C 
BRANCH  18  19
HETATM   19  C   UNK N   1      30.048  25.581  -4.093  0.00  0.00     0.272 C 
BRANCH  19  20
HETATM   20  N   UNK N   1      29.806  24.400  -3.251  0.00  0.00     0.087 N 
BRANCH  20  21
HETATM   21  C   UNK N   1      30.931  23.464  -3.389  0.00  0.00     0.268 C 
HETATM   22  C   UNK N   1      30.453  22.030  -3.275  0.00  0.00     0.037 C 
ENDBRANCH  20  21
BRANCH  20  23
HETATM   23  C   UNK N   1      28.510  23.843  -3.667  0.00  0.00     0.268 C 
HETATM   24  C   UNK N   1      27.328  24.804  -3.603  0.00  0.00     0.037 C 
ENDBRANCH  20  23
ENDBRANCH  19  20
ENDBRANCH  18  19
ENDBRANCH  17  18
ENDBRANCH  15  17
ENDBRANCH  13  15
ENDBRANCH   4  13
TORSDOF 8
ENDMDL
MODEL 7
REMARK VINA RESULT:      -5.1      3.716      9.123
REMARK  8 active torsions:
REMARK  status: ('A' for Active; 'I' for Inactive)
REMARK    1  A    between atoms: N_2  and  C_9 
REMARK    2  A    between atoms: N_2  and  C_11 
REMARK    3  A    between atoms: N_2  and  C_12 
REMARK    4  A    between atoms: N_3  and  C_8 
REMARK    5  A    between atoms: N_3  and  C_13 
REMARK    6  A    between atoms: C_6  and  C_7 
REMARK    7  A    between atoms: C_6  and  C_8 
REMARK    8  A    between atoms: C_7  and  C_9 
ROOT
HETATM    1 Cl   UNK N   1      35.368  12.307  19.557  0.00  0.00    -0.084 Cl
HETATM    2  N   UNK N   1      35.440   9.422  15.335  0.00  0.00    -0.365 N 
ATOM      3  HN  UNK N   1      35.658   8.632  15.943  1.00  0.00     0.165 HD
HETATM    4  C   UNK N   1      34.850  11.562  13.678  0.00  0.00     0.042 A 
HETATM    5  C   UNK N   1      34.981  11.764  15.057  0.00  0.00     0.017 A 
HETATM    6  C   UNK N   1      35.009  10.279  13.148  0.00  0.00     0.047 A 
HETATM    7  C   UNK N   1      35.279  10.656  15.881  0.00  0.00     0.046 A 
HETATM    8  C   UNK N   1      34.793  13.027  15.632  0.00  0.00     0.018 A 
HETATM    9  C   UNK N   1      35.316   9.216  13.995  0.00  0.00     0.090 A 
HETATM   10  C   UNK N   1      35.391  10.829  17.263  0.00  0.00     0.054 A 
HETATM   11  C   UNK N   1      34.909  13.191  17.015  0.00  0.00     0.025 A 
HETATM   12  C   UNK N   1      35.210  12.094  17.828  0.00  0.00     0.036 A 
ENDROOT
BRANCH   4  13
HETATM   13  N   UNK N   1      34.453  12.618  12.835  0.00  0.00    -0.385 N 
HETATM   14  H   UNK N   1      33.537  12.977  12.858  0.00  0.00     0.160 HD
BRANCH  13  15
HETATM   15  C   UNK N   1      35.443  13.148  11.943  0.00  0.00     0.077 C 
HETATM   16  C   UNK N   1      36.320  14.227  12.556  0.00  0.00     0.032 C 
BRANCH  15  17
HETATM   17  C   UNK N   1      34.950  13.265  10.503  0.00  0.00     0.026 C 
BRANCH  17  18
HETATM   18  C   UNK N   1      35.343  14.548   9.798  0.00  0.00     0.032 C 
BRANCH  18  19
HETATM   19  C   UNK N   1      34.196  15.560   9.689  0.00  0.00     0.272 C 
BRANCH  19  20
HETATM   20  N   UNK N   1      33.811  15.806   8.292  0.00  0.00     0.087 N 
BRANCH  20  21
HETATM   21  C   UNK N   1      34.949  15.508   7.412  0.00  0.00     0.268 C 
HETATM   22  C   UNK N   1      34.473  15.172   6.012  0.00  0.00     0.037 C 
ENDBRANCH  20  21
BRANCH  20  23
HETATM   23  C   UNK N   1      33.348  17.201   8.219  0.00  0.00     0.268 C 
HETATM   24  C   UNK N   1      34.445  18.259   8.205  0.00  0.00     0.037 C 
ENDBRANCH  20  23
ENDBRANCH  19  20
ENDBRANCH  18  19
ENDBRANCH  17  18
ENDBRANCH  15  17
ENDBRANCH  13  15
ENDBRANCH   4  13
TORSDOF 8
ENDMDL
MODEL 8
REMARK VINA RESULT:      -5.1      7.924     11.736
REMARK  8 active torsions:
REMARK  status: ('A' for Active; 'I' for Inactive)
REMARK    1  A    between atoms: N_2  and  C_9 
REMARK    2  A    between atoms: N_2  and  C_11 
REMARK    3  A    between atoms: N_2  and  C_12 
REMARK    4  A    between atoms: N_3  and  C_8 
REMARK    5  A    between atoms: N_3  and  C_13 
REMARK    6  A    between atoms: C_6  and  C_7 
REMARK    7  A    between atoms: C_6  and  C_8 
REMARK    8  A    between atoms: C_7  and  C_9 
ROOT
HETATM    1 Cl   UNK N   1      26.271  19.117   3.571  0.00  0.00    -0.084 Cl
HETATM    2  N   UNK N   1      27.907  18.836   8.408  0.00  0.00    -0.365 N 
ATOM      3  HN  UNK N   1      27.074  19.365   8.664  1.00  0.00     0.165 HD
HETATM    4  C   UNK N   1      30.173  17.400   7.719  0.00  0.00     0.042 A 
HETATM    5  C   UNK N   1      29.276  17.806   6.723  0.00  0.00     0.017 A 
HETATM    6  C   UNK N   1      29.914  17.714   9.055  0.00  0.00     0.047 A 
HETATM    7  C   UNK N   1      28.126  18.534   7.101  0.00  0.00     0.046 A 
HETATM    8  C   UNK N   1      29.480  17.478   5.377  0.00  0.00     0.018 A 
HETATM    9  C   UNK N   1      28.774  18.447   9.383  0.00  0.00     0.090 A 
HETATM   10  C   UNK N   1      27.205  18.929   6.128  0.00  0.00     0.054 A 
HETATM   11  C   UNK N   1      28.554  17.880   4.410  0.00  0.00     0.025 A 
HETATM   12  C   UNK N   1      27.420  18.605   4.786  0.00  0.00     0.036 A 
ENDROOT
BRANCH   4  13
HETATM   13  N   UNK N   1      31.276  16.585   7.398  0.00  0.00    -0.385 N 
HETATM   14  H   UNK N   1      31.158  15.655   7.097  0.00  0.00     0.160 HD
BRANCH  13  15
HETATM   15  C   UNK N   1      32.579  17.170   7.528  0.00  0.00     0.077 C 
HETATM   16  C   UNK N   1      33.274  17.444   6.205  0.00  0.00     0.032 C 
BRANCH  15  17
HETATM   17  C   UNK N   1      33.360  16.634   8.726  0.00  0.00     0.026 C 
BRANCH  17  18
HETATM   18  C   UNK N   1      33.216  15.143   8.963  0.00  0.00     0.032 C 
BRANCH  18  19
HETATM   19  C   UNK N   1      34.534  14.458   9.348  0.00  0.00     0.272 C 
BRANCH  19  20
HETATM   20  N   UNK N   1      34.526  13.999  10.744  0.00  0.00     0.087 N 
BRANCH  20  21
HETATM   21  C   UNK N   1      35.099  15.043  11.605  0.00  0.00     0.268 C 
HETATM   22  C   UNK N   1      36.263  15.728  10.915  0.00  0.00     0.037 C 
ENDBRANCH  20  21
BRANCH  20  23
HETATM   23  C   UNK N   1      35.265  12.727  10.776  0.00  0.00     0.268 C 
HETATM   24  C   UNK N   1      34.470  11.493  10.363  0.00  0.00     0.037 C 
ENDBRANCH  20  23
ENDBRANCH  19  20
ENDBRANCH  18  19
ENDBRANCH  17  18
ENDBRANCH  15  17
ENDBRANCH  13  15
ENDBRANCH   4  13
TORSDOF 8
ENDMDL
MODEL 9
REMARK VINA RESULT:      -5.0      3.351      7.483
REMARK  8 active torsions:
REMARK  status: ('A' for Active; 'I' for Inactive)
REMARK    1  A    between atoms: N_2  and  C_9 
REMARK    2  A    between atoms: N_2  and  C_11 
REMARK    3  A    between atoms: N_2  and  C_12 
REMARK    4  A    between atoms: N_3  and  C_8 
REMARK    5  A    between atoms: N_3  and  C_13 
REMARK    6  A    between atoms: C_6  and  C_7 
REMARK    7  A    between atoms: C_6  and  C_8 
REMARK    8  A    between atoms: C_7  and  C_9 
ROOT
HETATM    1 Cl   UNK N   1      35.547   6.931  17.184  0.00  0.00    -0.084 Cl
HETATM    2  N   UNK N   1      35.315  11.600  19.257  0.00  0.00    -0.365 N 
ATOM      3  HN  UNK N   1      35.391  11.142  20.165  1.00  0.00     0.165 HD
HETATM    4  C   UNK N   1      35.108  12.850  16.794  0.00  0.00     0.042 A 
HETATM    5  C   UNK N   1      35.195  11.454  16.862  0.00  0.00     0.017 A 
HETATM    6  C   UNK N   1      35.134  13.604  17.969  0.00  0.00     0.047 A 
HETATM    7  C   UNK N   1      35.304  10.841  18.130  0.00  0.00     0.046 A 
HETATM    8  C   UNK N   1      35.210  10.665  15.704  0.00  0.00     0.018 A 
HETATM    9  C   UNK N   1      35.228  12.957  19.201  0.00  0.00     0.090 A 
HETATM   10  C   UNK N   1      35.416   9.451  18.221  0.00  0.00     0.054 A 
HETATM   11  C   UNK N   1      35.320   9.276  15.806  0.00  0.00     0.025 A 
HETATM   12  C   UNK N   1      35.422   8.671  17.062  0.00  0.00     0.036 A 
ENDROOT
BRANCH   4  13
HETATM   13  N   UNK N   1      35.101  13.506  15.548  0.00  0.00    -0.385 N 
HETATM   14  H   UNK N   1      34.259  13.755  15.103  0.00  0.00     0.160 HD
BRANCH  13  15
HETATM   15  C   UNK N   1      36.375  13.796  14.956  0.00  0.00     0.077 C 
HETATM   16  C   UNK N   1      37.195  14.825  15.716  0.00  0.00     0.032 C 
BRANCH  15  17
HETATM   17  C   UNK N   1      36.341  13.795  13.430  0.00  0.00     0.026 C 
BRANCH  17  18
HETATM   18  C   UNK N   1      35.175  13.042  12.820  0.00  0.00     0.032 C 
BRANCH  18  19
HETATM   19  C   UNK N   1      35.413  12.625  11.363  0.00  0.00     0.272 C 
BRANCH  19  20
HETATM   20  N   UNK N   1      35.733  11.196  11.245  0.00  0.00     0.087 N 
BRANCH  20  21
HETATM   21  C   UNK N   1      36.833  11.019  10.287  0.00  0.00     0.268 C 
HETATM   22  C   UNK N   1      37.978  11.960  10.603  0.00  0.00     0.037 C 
ENDBRANCH  20  21
BRANCH  20  23
HETATM   23  C   UNK N   1      34.488  10.514  10.860  0.00  0.00     0.268 C 
HETATM   24  C   UNK N   1      33.682   9.915  12.007  0.00  0.00     0.037 C 
ENDBRANCH  20  23
ENDBRANCH  19  20
ENDBRANCH  18  19
ENDBRANCH  17  18
ENDBRANCH  15  17
ENDBRANCH  13  15
ENDBRANCH   4  13
TORSDOF 8
ENDMDL
