REMARK  12 active torsions:
REMARK  status: ('A' for Active; 'I' for Inactive)
REMARK    1  A    between atoms: C_2  and  C_4 
REMARK    2  A    between atoms: C_6  and  C_4 
REMARK    3  A    between atoms: C_7  and  O_39 
REMARK    4  A    between atoms: C_8  and  C_34 
REMARK    5  A    between atoms: C_11  and  C_29 
REMARK    6  A    between atoms: C_15  and  C_24 
REMARK    7  A    between atoms: C_16  and  C_18 
REMARK    8  A    between atoms: C_18  and  C_19 
REMARK    9  A    between atoms: C_19  and  C_20 
REMARK   10  A    between atoms: C_24  and  C_25 
REMARK   11  A    between atoms: C_29  and  C_30 
REMARK   12  A    between atoms: C_34  and  C_35 
ROOT
HETATM    1  C   UNK N   1       1.239   0.938  -0.233  0.00  0.00     0.139 C 
HETATM    2  C   UNK N   1      -0.137   0.472   0.342  0.00  0.00     0.078 C 
HETATM    3  C   UNK N   1      -0.595  -0.807   0.234  0.00  0.00     0.023 C 
HETATM    4  C   UNK N   1       0.272  -1.861  -0.348  0.00  0.00     0.174 C 
HETATM    5  O   UNK N   1      -0.195  -2.953  -0.639  0.00  0.00    -0.291 OA
HETATM    6  C   UNK N   1       1.735  -1.558  -0.539  0.00  0.00     0.091 C 
HETATM    7  C   UNK N   1       1.742  -0.181  -1.151  0.00  0.00     0.167 C 
HETATM    8  O   UNK N   1       2.129   0.009  -2.296  0.00  0.00    -0.295 OA
HETATM    9  C   UNK N   1       2.349  -1.479   0.892  0.00  0.00     0.031 C 
HETATM   10  C   UNK N   1       3.200  -0.222   1.134  0.00  0.00     0.001 C 
HETATM   11  C   UNK N   1       2.350   1.095   0.921  0.00  0.00    -0.012 C 
HETATM   12  C   UNK N   1       1.700   1.460   2.256  0.00  0.00     0.018 C 
ENDROOT
BRANCH  11  13
HETATM   13  C   UNK N   1       3.307   2.260   0.578  0.00  0.00     0.015 C 
BRANCH  13  14
HETATM   14  C   UNK N   1       4.406   2.544   1.598  0.00  0.00     0.028 C 
BRANCH  14  15
HETATM   15  C   UNK N   1       5.052   3.861   1.283  0.00  0.00    -0.025 C 
HETATM   16  C   UNK N   1       5.730   4.108   0.152  0.00  0.00    -0.091 C 
HETATM   17  C   UNK N   1       6.312   5.461  -0.062  0.00  0.00     0.042 C 
HETATM   18  C   UNK N   1       5.911   3.068  -0.908  0.00  0.00     0.042 C 
ENDBRANCH  14  15
ENDBRANCH  13  14
ENDBRANCH  11  13
BRANCH  10  19
HETATM   19  C   UNK N   1       4.468  -0.301   0.263  0.00  0.00     0.033 C 
BRANCH  19  20
HETATM   20  C   UNK N   1       5.330  -1.468   0.642  0.00  0.00    -0.024 C 
HETATM   21  C   UNK N   1       6.562  -1.644   0.153  0.00  0.00    -0.091 C 
HETATM   22  C   UNK N   1       7.339  -2.848   0.558  0.00  0.00     0.042 C 
HETATM   23  C   UNK N   1       7.184  -0.659  -0.785  0.00  0.00     0.042 C 
ENDBRANCH  19  20
ENDBRANCH  10  19
BRANCH   1  24
HETATM   24  C   UNK N   1       1.002   2.273  -0.988  0.00  0.00     0.153 C 
HETATM   25  O   UNK N   1       1.335   2.399  -2.158  0.00  0.00    -0.296 OA
BRANCH  24  26
HETATM   26  C   UNK N   1       0.365   3.451  -0.296  0.00  0.00     0.049 C 
HETATM   27  C   UNK N   1       1.311   4.631  -0.201  0.00  0.00     0.017 C 
HETATM   28  C   UNK N   1      -0.890   3.870  -1.044  0.00  0.00     0.017 C 
ENDBRANCH  24  26
ENDBRANCH   1  24
BRANCH   2  29
HETATM   29  O   UNK N   1      -0.917   1.374   0.979  0.00  0.00    -0.363 OA
HETATM   30  H   UNK N   1      -0.646   2.155   1.420  0.00  0.00     0.217 HD
ENDBRANCH   2  29
BRANCH   6  31
HETATM   31  C   UNK N   1       2.412  -2.598  -1.466  0.00  0.00     0.053 C 
BRANCH  31  32
HETATM   32  C   UNK N   1       3.344  -3.560  -0.784  0.00  0.00    -0.023 C 
HETATM   33  C   UNK N   1       3.046  -4.840  -0.549  0.00  0.00    -0.091 C 
HETATM   34  C   UNK N   1       4.060  -5.705   0.115  0.00  0.00     0.042 C 
HETATM   35  C   UNK N   1       1.722  -5.423  -0.920  0.00  0.00     0.042 C 
ENDBRANCH  31  32
ENDBRANCH   6  31
BRANCH   3  36
HETATM   36  C   UNK N   1      -1.970  -1.167   0.725  0.00  0.00     0.072 C 
BRANCH  36  37
HETATM   37  C   UNK N   1      -3.011  -0.466  -0.101  0.00  0.00    -0.020 C 
HETATM   38  C   UNK N   1      -4.292  -0.372   0.268  0.00  0.00    -0.091 C 
HETATM   39  C   UNK N   1      -5.249   0.350  -0.616  0.00  0.00     0.042 C 
HETATM   40  C   UNK N   1      -4.784  -0.952   1.554  0.00  0.00     0.042 C 
ENDBRANCH  36  37
ENDBRANCH   3  36
TORSDOF 12
