REMARK  0 active torsions:
REMARK  status: ('A' for Active; 'I' for Inactive)
ROOT
HETATM    1  C   UNK N   1      -0.945   0.495   0.899  0.00  0.00     0.038 C 
HETATM    2  C   UNK N   1      -1.009  -1.016   0.588  0.00  0.00     0.010 C 
HETATM    3  O   UNK N   1       1.438   0.502   0.478  0.00  0.00    -0.370 OA
HETATM    4  C   UNK N   1       2.583  -1.179  -0.800  0.00  0.00     0.046 C 
HETATM    5  C   UNK N   1       1.452  -0.900   0.180  0.00  0.00     0.058 C 
HETATM    6  C   UNK N   1       1.762  -1.673   1.452  0.00  0.00     0.046 C 
HETATM    7  C   UNK N   1       0.212   1.130   0.108  0.00  0.00     0.058 C 
HETATM    8  C   UNK N   1       0.289   2.612   0.406  0.00  0.00     0.046 C 
HETATM    9  C   UNK N   1       0.100  -1.396  -0.413  0.00  0.00     0.020 C 
HETATM   10  C   UNK N   1      -0.052   0.922  -1.395  0.00  0.00     0.038 C 
HETATM   11  C   UNK N   1      -0.165  -0.586  -1.696  0.00  0.00     0.010 C 
ENDROOT
TORSDOF 0
