REMARK  29 active torsions:
REMARK  status: ('A' for Active; 'I' for Inactive)
REMARK    1  A    between atoms: C_1  and  O_12 
REMARK    2  A    between atoms: C_2  and  O_7 
REMARK    3  A    between atoms: C_3  and  O_8 
REMARK    4  A    between atoms: C_5  and  O_9 
REMARK    5  A    between atoms: C_6  and  C_10 
REMARK    6  A    between atoms: O_11  and  C_10 
REMARK    7  A    between atoms: C_15  and  O_12 
REMARK    8  A    between atoms: C_18  and  O_37 
REMARK    9  A    between atoms: C_19  and  O_36 
REMARK   10  A    between atoms: C_20  and  O_49 
REMARK   11  A    between atoms: C_22  and  O_50 
REMARK   12  A    between atoms: C_24  and  O_51 
REMARK   13  A    between atoms: C_28  and  O_53 
REMARK   14  A    between atoms: C_29  and  O_52 
REMARK   15  A    between atoms: C_30  and  C_45 
REMARK   16  A    between atoms: C_31  and  O_55 
REMARK   17  A    between atoms: C_32  and  C_59 
REMARK   18  A    between atoms: C_35  and  C_33 
REMARK   19  A    between atoms: C_35  and  O_36 
REMARK   20  A    between atoms: C_58  and  C_35 
REMARK   21  A    between atoms: C_38  and  O_37 
REMARK   22  A    between atoms: O_44  and  C_45 
REMARK   23  A    between atoms: C_65  and  O_44 
REMARK   24  A    between atoms: C_48  and  C_60 
REMARK   25  A    between atoms: C_60  and  C_58 
REMARK   26  A    between atoms: O_62  and  C_59 
REMARK   27  A    between atoms: C_68  and  O_73 
REMARK   28  A    between atoms: C_69  and  O_72 
REMARK   29  A    between atoms: C_70  and  O_71 
ROOT
HETATM    1  C   UNK N   1       3.860  -1.993  -0.023  0.00  0.00    -0.030 C 
HETATM    2  C   UNK N   1       2.491  -2.659  -0.388  0.00  0.00    -0.032 C 
HETATM    3  C   UNK N   1       0.002  -2.756   0.325  0.00  0.00    -0.035 C 
HETATM    4  C   UNK N   1       1.429  -2.248   0.685  0.00  0.00     0.005 C 
HETATM    5  C   UNK N   1       3.651  -0.470   0.050  0.00  0.00     0.030 C 
HETATM    6  C   UNK N   1       0.031  -4.084  -0.515  0.00  0.00     0.004 C 
HETATM    7  C   UNK N   1      -1.384  -4.742  -0.619  0.00  0.00    -0.017 C 
HETATM    8  C   UNK N   1       2.732  -0.081   1.218  0.00  0.00     0.123 C 
HETATM    9  C   UNK N   1       5.036   0.186  -0.069  0.00  0.00     0.027 C 
HETATM   10  C   UNK N   1       1.372  -0.734   1.010  0.00  0.00     0.038 C 
HETATM   11  C   UNK N   1      -2.411  -3.582  -0.682  0.00  0.00     0.133 C 
HETATM   12  C   UNK N   1       4.943  -2.099  -1.078  0.00  0.00     0.011 C 
HETATM   13  C   UNK N   1       2.575  -4.219  -0.400  0.00  0.00     0.011 C 
HETATM   14  C   UNK N   1      -0.771  -1.718  -0.549  0.00  0.00     0.012 C 
HETATM   15  C   UNK N   1       1.227  -4.970  -0.152  0.00  0.00     0.007 C 
HETATM   16  C   UNK N   1       5.862  -0.905  -0.796  0.00  0.00     0.009 C 
HETATM   17  C   UNK N   1      -1.963  -2.288  -1.337  0.00  0.00     0.034 C 
HETATM   18  C   UNK N   1       4.448  -2.577   1.272  0.00  0.00     0.016 C 
HETATM   19  C   UNK N   1       2.080  -2.189  -1.796  0.00  0.00     0.016 C 
HETATM   20  C   UNK N   1      -0.741  -2.913   1.659  0.00  0.00     0.016 C 
HETATM   21  C   UNK N   1      -1.476  -5.625  -1.856  0.00  0.00     0.018 C 
HETATM   22  C   UNK N   1      -1.688  -5.604   0.597  0.00  0.00     0.018 C 
ENDROOT
BRANCH   9  23
HETATM   23  C   UNK N   1       5.097   1.540  -0.911  0.00  0.00     0.065 C 
HETATM   24  C   UNK N   1       4.625   1.296  -2.343  0.00  0.00     0.046 C 
BRANCH  23  25
HETATM   25  O   UNK N   1       4.440   2.699  -0.406  0.00  0.00    -0.348 OA
BRANCH  25  26
HETATM   26  C   UNK N   1       3.158   2.453   0.145  0.00  0.00     0.292 C 
HETATM   27  O   UNK N   1       3.040   3.068   1.412  0.00  0.00    -0.348 OA
HETATM   28  C   UNK N   1       3.147   4.490   1.302  0.00  0.00     0.180 C 
HETATM   29  C   UNK N   1       2.411   5.080   0.074  0.00  0.00     0.180 C 
HETATM   30  C   UNK N   1       1.308   4.145  -0.391  0.00  0.00     0.183 C 
HETATM   31  C   UNK N   1       1.949   2.807  -0.765  0.00  0.00     0.204 C 
BRANCH  28  32
HETATM   32  C   UNK N   1       4.618   4.904   1.396  0.00  0.00     0.205 C 
BRANCH  32  33
HETATM   33  O   UNK N   1       4.857   6.228   0.998  0.00  0.00    -0.356 OA
BRANCH  33  34
HETATM   34  C   UNK N   1       5.236   6.163  -0.361  0.00  0.00     0.290 C 
HETATM   35  O   UNK N   1       6.473   5.492  -0.549  0.00  0.00    -0.356 OA
HETATM   36  C   UNK N   1       7.491   6.202   0.120  0.00  0.00     0.205 C 
HETATM   37  C   UNK N   1       7.715   7.555  -0.548  0.00  0.00     0.173 C 
HETATM   38  C   UNK N   1       6.425   8.362  -0.438  0.00  0.00     0.182 C 
HETATM   39  C   UNK N   1       5.270   7.550  -1.018  0.00  0.00     0.204 C 
BRANCH  37  40
HETATM   40  O   UNK N   1       8.754   8.225   0.097  0.00  0.00    -0.391 OA
HETATM   41  H   UNK N   1       9.519   7.832   0.545  0.00  0.00     0.210 HD
ENDBRANCH  37  40
BRANCH  38  42
HETATM   42  O   UNK N   1       6.556   9.568  -1.128  0.00  0.00    -0.390 OA
HETATM   43  H   UNK N   1       7.327   9.909  -1.608  0.00  0.00     0.210 HD
ENDBRANCH  38  42
BRANCH  39  44
HETATM   44  O   UNK N   1       4.059   8.215  -0.826  0.00  0.00    -0.388 OA
HETATM   45  H   UNK N   1       4.038   9.176  -0.693  0.00  0.00     0.210 HD
ENDBRANCH  39  44
ENDBRANCH  33  34
ENDBRANCH  32  33
ENDBRANCH  28  32
BRANCH  29  46
HETATM   46  O   UNK N   1       1.900   6.345   0.373  0.00  0.00    -0.390 OA
HETATM   47  H   UNK N   1       2.484   7.092   0.581  0.00  0.00     0.210 HD
ENDBRANCH  29  46
BRANCH  30  48
HETATM   48  O   UNK N   1       0.375   3.955   0.632  0.00  0.00    -0.390 OA
HETATM   49  H   UNK N   1      -0.062   4.450   1.342  0.00  0.00     0.210 HD
ENDBRANCH  30  48
BRANCH  31  50
HETATM   50  O   UNK N   1       2.285   2.793  -2.112  0.00  0.00    -0.388 OA
HETATM   51  H   UNK N   1       2.394   2.585  -3.053  0.00  0.00     0.210 HD
ENDBRANCH  31  50
ENDBRANCH  25  26
ENDBRANCH  23  25
BRANCH  23  52
HETATM   52  C   UNK N   1       6.567   1.937  -1.073  0.00  0.00     0.042 C 
BRANCH  52  53
HETATM   53  C   UNK N   1       7.267   2.204   0.248  0.00  0.00     0.030 C 
BRANCH  53  54
HETATM   54  C   UNK N   1       8.712   1.862   0.086  0.00  0.00    -0.025 C 
HETATM   55  C   UNK N   1       9.273   0.815   0.701  0.00  0.00    -0.091 C 
HETATM   56  C   UNK N   1      10.716   0.527   0.473  0.00  0.00     0.042 C 
HETATM   57  C   UNK N   1       8.484  -0.088   1.594  0.00  0.00     0.042 C 
ENDBRANCH  53  54
ENDBRANCH  52  53
ENDBRANCH  23  52
ENDBRANCH   9  23
BRANCH   8  58
HETATM   58  O   UNK N   1       3.263  -0.406   2.468  0.00  0.00    -0.395 OA
HETATM   59  H   UNK N   1       3.253  -0.839   3.337  0.00  0.00     0.210 HD
ENDBRANCH   8  58
BRANCH  11  60
HETATM   60  O   UNK N   1      -3.771  -3.857  -0.836  0.00  0.00    -0.352 OA
BRANCH  60  61
HETATM   61  C   UNK N   1      -4.319  -3.829   0.464  0.00  0.00     0.292 C 
HETATM   62  O   UNK N   1      -3.965  -2.686   1.234  0.00  0.00    -0.348 OA
HETATM   63  C   UNK N   1      -4.521  -1.528   0.655  0.00  0.00     0.179 C 
HETATM   64  C   UNK N   1      -6.045  -1.568   0.831  0.00  0.00     0.180 C 
HETATM   65  C   UNK N   1      -6.585  -2.769   0.049  0.00  0.00     0.183 C 
HETATM   66  C   UNK N   1      -5.832  -4.041   0.451  0.00  0.00     0.211 C 
BRANCH  63  67
HETATM   67  C   UNK N   1      -3.888  -0.308   1.309  0.00  0.00     0.198 C 
BRANCH  67  68
HETATM   68  O   UNK N   1      -4.152   0.839   0.560  0.00  0.00    -0.398 OA
HETATM   69  H   UNK N   1      -3.553   1.397   0.040  0.00  0.00     0.209 HD
ENDBRANCH  67  68
ENDBRANCH  63  67
BRANCH  64  70
HETATM   70  O   UNK N   1      -6.645  -0.395   0.366  0.00  0.00    -0.390 OA
HETATM   71  H   UNK N   1      -6.148   0.373   0.044  0.00  0.00     0.210 HD
ENDBRANCH  64  70
BRANCH  65  72
HETATM   72  O   UNK N   1      -6.429  -2.555  -1.323  0.00  0.00    -0.390 OA
HETATM   73  H   UNK N   1      -6.246  -2.574  -2.275  0.00  0.00     0.210 HD
ENDBRANCH  65  72
BRANCH  66  74
HETATM   74  O   UNK N   1      -6.250  -4.521   1.700  0.00  0.00    -0.346 OA
BRANCH  74  75
HETATM   75  C   UNK N   1      -6.632  -5.871   1.522  0.00  0.00     0.292 C 
HETATM   76  O   UNK N   1      -7.881  -5.999   0.849  0.00  0.00    -0.348 OA
HETATM   77  C   UNK N   1      -7.627  -6.194  -0.521  0.00  0.00     0.179 C 
HETATM   78  C   UNK N   1      -7.033  -7.589  -0.806  0.00  0.00     0.180 C 
HETATM   79  C   UNK N   1      -6.104  -8.042   0.345  0.00  0.00     0.183 C 
HETATM   80  C   UNK N   1      -5.495  -6.804   1.002  0.00  0.00     0.204 C 
BRANCH  77  81
HETATM   81  C   UNK N   1      -8.796  -5.769  -1.399  0.00  0.00     0.198 C 
BRANCH  81  82
HETATM   82  O   UNK N   1      -9.953  -6.463  -1.044  0.00  0.00    -0.398 OA
HETATM   83  H   UNK N   1     -10.773  -6.007  -0.797  0.00  0.00     0.209 HD
ENDBRANCH  81  82
ENDBRANCH  77  81
BRANCH  78  84
HETATM   84  O   UNK N   1      -8.021  -8.549  -1.043  0.00  0.00    -0.390 OA
HETATM   85  H   UNK N   1      -8.940  -8.288  -1.208  0.00  0.00     0.210 HD
ENDBRANCH  78  84
BRANCH  79  86
HETATM   86  O   UNK N   1      -6.822  -8.765   1.304  0.00  0.00    -0.390 OA
HETATM   87  H   UNK N   1      -7.505  -8.585   1.969  0.00  0.00     0.210 HD
ENDBRANCH  79  86
BRANCH  80  88
HETATM   88  O   UNK N   1      -4.618  -7.142   2.033  0.00  0.00    -0.388 OA
HETATM   89  H   UNK N   1      -4.517  -7.787   2.750  0.00  0.00     0.210 HD
ENDBRANCH  80  88
ENDBRANCH  74  75
ENDBRANCH  66  74
ENDBRANCH  60  61
ENDBRANCH  11  60
TORSDOF 29
