REMARK  29 active torsions:
REMARK  status: ('A' for Active; 'I' for Inactive)
REMARK    1  A    between atoms: C_3  and  C_2 
REMARK    2  A    between atoms: C_4  and  C_3 
REMARK    3  A    between atoms: C_5  and  C_4 
REMARK    4  A    between atoms: C_5  and  O_6 
REMARK    5  A    between atoms: C_35  and  C_5 
REMARK    6  A    between atoms: C_7  and  O_6 
REMARK    7  A    between atoms: C_9  and  O_14 
REMARK    8  A    between atoms: C_10  and  O_15 
REMARK    9  A    between atoms: C_11  and  O_16 
REMARK   10  A    between atoms: C_12  and  C_17 
REMARK   11  A    between atoms: C_17  and  O_18 
REMARK   12  A    between atoms: C_50  and  O_18 
REMARK   13  A    between atoms: C_26  and  O_44 
REMARK   14  A    between atoms: C_32  and  O_38 
REMARK   15  A    between atoms: C_56  and  O_44 
REMARK   16  A    between atoms: C_46  and  C_45 
REMARK   17  A    between atoms: C_47  and  O_54 
REMARK   18  A    between atoms: C_48  and  O_52 
REMARK   19  A    between atoms: C_49  and  O_53 
REMARK   20  A    between atoms: C_57  and  O_66 
REMARK   21  A    between atoms: C_58  and  O_62 
REMARK   22  A    between atoms: C_59  and  O_63 
REMARK   23  A    between atoms: C_60  and  C_64 
REMARK   24  A    between atoms: C_64  and  O_65 
REMARK   25  A    between atoms: C_67  and  O_66 
REMARK   26  A    between atoms: C_69  and  O_73 
REMARK   27  A    between atoms: C_70  and  O_74 
REMARK   28  A    between atoms: C_71  and  C_75 
REMARK   29  A    between atoms: C_75  and  O_76 
ROOT
HETATM    1  C   UNK N   1      24.588 -10.058  -0.878  0.00  0.00     0.198 C 
HETATM    2  O   UNK N   1      24.656  -9.945   0.511  0.00  0.00    -0.398 OA
HETATM    3  H   UNK N   1      24.748  -9.946   1.477  0.00  0.00     0.209 HD
ENDROOT
BRANCH   1   4
HETATM    4  C   UNK N   1      23.138 -10.115  -1.379  0.00  0.00     0.179 C 
HETATM    5  C   UNK N   1      22.251 -11.211  -0.766  0.00  0.00     0.180 C 
HETATM    6  C   UNK N   1      21.845 -10.815   0.643  0.00  0.00     0.183 C 
HETATM    7  C   UNK N   1      21.141  -9.475   0.547  0.00  0.00     0.204 C 
HETATM    8  C   UNK N   1      22.006  -8.426  -0.185  0.00  0.00     0.291 C 
HETATM    9  O   UNK N   1      22.502  -8.846  -1.447  0.00  0.00    -0.348 OA
BRANCH   5  10
HETATM   10  O   UNK N   1      22.908 -12.443  -0.769  0.00  0.00    -0.390 OA
HETATM   11  H   UNK N   1      22.395 -13.266  -0.771  0.00  0.00     0.210 HD
ENDBRANCH   5  10
BRANCH   6  12
HETATM   12  O   UNK N   1      20.969 -11.767   1.168  0.00  0.00    -0.390 OA
HETATM   13  H   UNK N   1      20.091 -11.570   1.532  0.00  0.00     0.210 HD
ENDBRANCH   6  12
BRANCH   7  14
HETATM   14  O   UNK N   1      20.757  -9.020   1.810  0.00  0.00    -0.388 OA
HETATM   15  H   UNK N   1      20.898  -8.632   2.688  0.00  0.00     0.210 HD
ENDBRANCH   7  14
BRANCH   8  16
HETATM   16  O   UNK N   1      22.992  -7.803   0.593  0.00  0.00    -0.356 OA
BRANCH  16  17
HETATM   17  C   UNK N   1      22.415  -6.599   1.026  0.00  0.00     0.205 C 
BRANCH  17  18
HETATM   18  C   UNK N   1      22.835  -5.416   0.154  0.00  0.00     0.180 C 
HETATM   19  C   UNK N   1      23.593  -4.362   0.994  0.00  0.00     0.180 C 
HETATM   20  C   UNK N   1      23.501  -2.996   0.319  0.00  0.00     0.183 C 
HETATM   21  C   UNK N   1      22.012  -2.607   0.211  0.00  0.00     0.204 C 
HETATM   22  C   UNK N   1      21.113  -3.855   0.090  0.00  0.00     0.292 C 
HETATM   23  O   UNK N   1      21.753  -4.893  -0.623  0.00  0.00    -0.348 OA
BRANCH  19  24
HETATM   24  O   UNK N   1      24.921  -4.750   1.178  0.00  0.00    -0.390 OA
HETATM   25  H   UNK N   1      25.150  -5.684   1.306  0.00  0.00     0.210 HD
ENDBRANCH  19  24
BRANCH  20  26
HETATM   26  O   UNK N   1      24.088  -3.066  -0.950  0.00  0.00    -0.390 OA
HETATM   27  H   UNK N   1      24.249  -3.442  -1.829  0.00  0.00     0.210 HD
ENDBRANCH  20  26
BRANCH  21  28
HETATM   28  O   UNK N   1      21.813  -1.714  -0.845  0.00  0.00    -0.388 OA
HETATM   29  H   UNK N   1      22.280  -1.284  -1.578  0.00  0.00     0.210 HD
ENDBRANCH  21  28
BRANCH  22  30
HETATM   30  O   UNK N   1      19.841  -3.539  -0.453  0.00  0.00    -0.348 OA
BRANCH  30  31
HETATM   31  C   UNK N   1      18.779  -3.732   0.486  0.00  0.00     0.065 C 
HETATM   32  C   UNK N   1      19.186  -3.410   1.940  0.00  0.00     0.046 C 
BRANCH  31  33
HETATM   33  C   UNK N   1      17.665  -2.737   0.119  0.00  0.00     0.042 C 
BRANCH  33  34
HETATM   34  C   UNK N   1      16.482  -2.737   1.089  0.00  0.00     0.030 C 
BRANCH  34  35
HETATM   35  C   UNK N   1      15.329  -1.989   0.491  0.00  0.00    -0.025 C 
HETATM   36  C   UNK N   1      14.082  -2.480   0.471  0.00  0.00    -0.091 C 
HETATM   37  C   UNK N   1      12.996  -1.684  -0.163  0.00  0.00     0.042 C 
HETATM   38  C   UNK N   1      13.749  -3.807   1.075  0.00  0.00     0.042 C 
ENDBRANCH  34  35
ENDBRANCH  33  34
ENDBRANCH  31  33
BRANCH  31  39
HETATM   39  C   UNK N   1      18.250  -5.188   0.409  0.00  0.00     0.027 C 
HETATM   40  C   UNK N   1      17.600  -5.615  -0.921  0.00  0.00     0.030 C 
HETATM   41  C   UNK N   1      16.072  -5.407  -0.877  0.00  0.00     0.123 C 
HETATM   42  C   UNK N   1      18.031  -7.068  -1.146  0.00  0.00    -0.030 C 
HETATM   43  C   UNK N   1      15.219  -6.543  -1.444  0.00  0.00     0.038 C 
HETATM   44  C   UNK N   1      15.682  -7.951  -1.046  0.00  0.00     0.002 C 
HETATM   45  C   UNK N   1      14.622  -8.865  -0.418  0.00  0.00    -0.001 C 
HETATM   46  C   UNK N   1      17.086  -8.095  -0.438  0.00  0.00    -0.032 C 
HETATM   47  C   UNK N   1      14.215  -8.531   1.033  0.00  0.00    -0.011 C 
HETATM   48  C   UNK N   1      15.076 -10.341  -0.525  0.00  0.00     0.001 C 
HETATM   49  C   UNK N   1      13.154  -9.498   1.572  0.00  0.00     0.037 C 
HETATM   50  C   UNK N   1      13.707  -7.112   1.188  0.00  0.00     0.010 C 
HETATM   51  C   UNK N   1      12.762 -10.616   0.560  0.00  0.00     0.133 C 
HETATM   52  C   UNK N   1      14.063 -11.340   0.135  0.00  0.00    -0.017 C 
HETATM   53  C   UNK N   1      13.750 -12.442  -0.862  0.00  0.00     0.018 C 
HETATM   54  C   UNK N   1      14.636 -12.024   1.378  0.00  0.00     0.018 C 
HETATM   55  C   UNK N   1      16.546 -10.566  -0.091  0.00  0.00     0.007 C 
HETATM   56  C   UNK N   1      17.523  -9.547  -0.696  0.00  0.00     0.011 C 
HETATM   57  C   UNK N   1      17.046  -7.869   1.081  0.00  0.00     0.016 C 
HETATM   58  C   UNK N   1      19.425  -7.071  -0.578  0.00  0.00     0.011 C 
HETATM   59  C   UNK N   1      18.116  -7.340  -2.646  0.00  0.00     0.016 C 
HETATM   60  C   UNK N   1      19.362  -6.199   0.665  0.00  0.00     0.009 C 
BRANCH  41  61
HETATM   61  O   UNK N   1      15.742  -4.229  -1.544  0.00  0.00    -0.395 OA
HETATM   62  H   UNK N   1      16.337  -3.620  -2.008  0.00  0.00     0.210 HD
ENDBRANCH  41  61
BRANCH  51  63
HETATM   63  O   UNK N   1      12.076 -10.138  -0.592  0.00  0.00    -0.352 OA
BRANCH  63  64
HETATM   64  C   UNK N   1      11.167  -9.133  -0.226  0.00  0.00     0.292 C 
HETATM   65  C   UNK N   1       9.703  -9.583  -0.271  0.00  0.00     0.211 C 
HETATM   66  C   UNK N   1       8.765  -8.365  -0.167  0.00  0.00     0.183 C 
HETATM   67  C   UNK N   1       9.518  -7.200   0.487  0.00  0.00     0.180 C 
HETATM   68  C   UNK N   1      10.817  -6.855  -0.314  0.00  0.00     0.179 C 
HETATM   69  O   UNK N   1      11.356  -7.977  -1.003  0.00  0.00    -0.348 OA
BRANCH  65  70
HETATM   70  O   UNK N   1       9.469 -10.459   0.792  0.00  0.00    -0.346 OA
BRANCH  70  71
HETATM   71  C   UNK N   1       8.975 -11.617   0.191  0.00  0.00     0.292 C 
HETATM   72  C   UNK N   1       7.555 -11.915   0.684  0.00  0.00     0.204 C 
HETATM   73  C   UNK N   1       7.056 -13.140  -0.083  0.00  0.00     0.183 C 
HETATM   74  O   UNK N   1       7.570 -12.166   2.060  0.00  0.00    -0.388 OA
HETATM   75  C   UNK N   1       8.065 -14.289  -0.010  0.00  0.00     0.180 C 
HETATM   76  C   UNK N   1       9.448 -13.743  -0.407  0.00  0.00     0.179 C 
HETATM   77  O   UNK N   1       9.823 -12.705   0.469  0.00  0.00    -0.348 OA
HETATM   78  H   UNK N   1       7.424 -12.263   3.014  0.00  0.00     0.210 HD
BRANCH  73  79
HETATM   79  O   UNK N   1       5.807 -13.545   0.389  0.00  0.00    -0.390 OA
HETATM   80  H   UNK N   1       5.129 -12.933   0.718  0.00  0.00     0.210 HD
ENDBRANCH  73  79
BRANCH  75  81
HETATM   81  O   UNK N   1       7.676 -15.305  -0.885  0.00  0.00    -0.390 OA
HETATM   82  H   UNK N   1       6.929 -15.423  -1.493  0.00  0.00     0.210 HD
ENDBRANCH  75  81
BRANCH  76  83
HETATM   83  C   UNK N   1      10.512 -14.835  -0.394  0.00  0.00     0.198 C 
BRANCH  83  84
HETATM   84  O   UNK N   1      10.660 -15.362   0.890  0.00  0.00    -0.398 OA
HETATM   85  H   UNK N   1      10.394 -15.635   1.783  0.00  0.00     0.209 HD
ENDBRANCH  83  84
ENDBRANCH  76  83
ENDBRANCH  70  71
ENDBRANCH  65  70
BRANCH  66  86
HETATM   86  O   UNK N   1       8.341  -7.994  -1.445  0.00  0.00    -0.390 OA
HETATM   87  H   UNK N   1       8.417  -7.610  -2.333  0.00  0.00     0.210 HD
ENDBRANCH  66  86
BRANCH  67  88
HETATM   88  O   UNK N   1       8.695  -6.095   0.712  0.00  0.00    -0.390 OA
HETATM   89  H   UNK N   1       9.074  -5.216   0.869  0.00  0.00     0.210 HD
ENDBRANCH  67  88
BRANCH  68  90
HETATM   90  C   UNK N   1      10.589  -5.758  -1.348  0.00  0.00     0.198 C 
BRANCH  90  91
HETATM   91  O   UNK N   1      10.461  -4.519  -0.721  0.00  0.00    -0.398 OA
HETATM   92  H   UNK N   1      11.163  -4.011  -0.284  0.00  0.00     0.209 HD
ENDBRANCH  90  91
ENDBRANCH  68  90
ENDBRANCH  63  64
ENDBRANCH  51  63
ENDBRANCH  31  39
ENDBRANCH  30  31
ENDBRANCH  22  30
ENDBRANCH  17  18
ENDBRANCH  16  17
ENDBRANCH   8  16
ENDBRANCH   1   4
TORSDOF 29
