REMARK  3 active torsions:
REMARK  status: ('A' for Active; 'I' for Inactive)
REMARK    1  A    between atoms: C_4  and  O_20 
REMARK    2  A    between atoms: C_13  and  O_25 
REMARK    3  A    between atoms: C_17  and  C_26 
ROOT
HETATM    1  C   UNK N   1       4.271  -8.375  -0.132  0.00  0.00     0.266 C 
HETATM    2  O   UNK N   1       4.345  -9.637  -0.585  0.00  0.00    -0.312 OA
HETATM    3  C   UNK N   1       5.613 -10.040  -0.313  0.00  0.00     0.171 C 
HETATM    4  C   UNK N   1       6.495  -8.857  -0.488  0.00  0.00     0.138 C 
HETATM    5  C   UNK N   1       5.625  -7.826   0.270  0.00  0.00     0.122 C 
HETATM    6  C   UNK N   1       7.623 -10.903   0.152  0.00  0.00     0.049 C 
HETATM    7  C   UNK N   1       7.861  -9.438  -0.029  0.00  0.00     0.196 C 
HETATM    8  C   UNK N   1       8.974 -11.584  -0.118  0.00  0.00     0.063 C 
HETATM    9  C   UNK N   1       9.291 -10.713  -1.371  0.00  0.00     0.284 C 
HETATM   10  O   UNK N   1       8.833  -9.378  -1.065  0.00  0.00    -0.334 OA
HETATM   11  O   UNK N   1      10.655 -10.594  -1.391  0.00  0.00    -0.287 OA
HETATM   12  C   UNK N   1      11.162 -10.684  -0.166  0.00  0.00     0.291 C 
HETATM   13  C   UNK N   1      10.231 -11.267   0.806  0.00  0.00     0.232 C 
HETATM   14  O   UNK N   1       3.210  -7.802   0.052  0.00  0.00    -0.265 OA
HETATM   15  C   UNK N   1       6.384 -11.243  -0.743  0.00  0.00     0.052 C 
HETATM   16  C   UNK N   1       7.325 -11.201   1.607  0.00  0.00     0.145 C 
HETATM   17  C   UNK N   1       8.357 -12.946   0.269  0.00  0.00     0.013 C 
HETATM   18  C   UNK N   1       7.840 -12.652   1.706  0.00  0.00     0.040 C 
HETATM   19  O   UNK N   1      12.284 -10.299   0.116  0.00  0.00    -0.262 OA
HETATM   20  C   UNK N   1       5.874  -6.407  -0.214  0.00  0.00     0.024 C 
HETATM   21  C   UNK N   1       8.290  -9.166   1.383  0.00  0.00     0.298 C 
HETATM   22  O   UNK N   1       8.047 -10.198   2.234  0.00  0.00    -0.312 OA
HETATM   23  O   UNK N   1       8.780  -8.110   1.751  0.00  0.00    -0.262 OA
ENDROOT
BRANCH  17  24
HETATM   24  C   UNK N   1       8.836 -14.386  -0.005  0.00  0.00    -0.047 C 
HETATM   25  C   UNK N   1       9.889 -14.892   0.961  0.00  0.00     0.015 C 
HETATM   26  C   UNK N   1       9.346 -14.510  -1.424  0.00  0.00     0.015 C 
HETATM   27  C   UNK N   1       7.632 -15.302   0.135  0.00  0.00     0.015 C 
ENDBRANCH  17  24
BRANCH  13  28
HETATM   28  O   UNK N   1      10.854 -12.411   1.301  0.00  0.00    -0.385 OA
HETATM   29  H   UNK N   1      10.381 -13.185   1.646  0.00  0.00     0.210 HD
ENDBRANCH  13  28
BRANCH   4  30
HETATM   30  O   UNK N   1       6.531  -8.555  -1.862  0.00  0.00    -0.383 OA
HETATM   31  H   UNK N   1       6.724  -8.473  -2.809  0.00  0.00     0.210 HD
ENDBRANCH   4  30
TORSDOF 3
