REMARK  4 active torsions:
REMARK  status: ('A' for Active; 'I' for Inactive)
REMARK    1  A    between atoms: C_4  and  O_20 
REMARK    2  A    between atoms: C_13  and  O_26 
REMARK    3  A    between atoms: C_15  and  O_21 
REMARK    4  A    between atoms: C_17  and  C_27 
ROOT
HETATM    1  C   UNK N   1       4.548  -8.881   0.093  0.00  0.00     0.266 C 
HETATM    2  O   UNK N   1       4.605  -9.792  -0.875  0.00  0.00    -0.310 OA
HETATM    3  C   UNK N   1       5.849  -9.875  -1.459  0.00  0.00     0.200 C 
HETATM    4  C   UNK N   1       6.694  -8.739  -0.833  0.00  0.00     0.141 C 
HETATM    5  C   UNK N   1       5.825  -8.198   0.345  0.00  0.00     0.122 C 
HETATM    6  C   UNK N   1       7.673 -10.781  -0.017  0.00  0.00     0.074 C 
HETATM    7  C   UNK N   1       8.021  -9.410  -0.390  0.00  0.00     0.199 C 
HETATM    8  C   UNK N   1       9.001 -11.574  -0.110  0.00  0.00     0.066 C 
HETATM    9  C   UNK N   1       9.423 -10.939  -1.472  0.00  0.00     0.284 C 
HETATM   10  O   UNK N   1       8.945  -9.580  -1.461  0.00  0.00    -0.334 OA
HETATM   11  O   UNK N   1      10.785 -10.812  -1.419  0.00  0.00    -0.287 OA
HETATM   12  C   UNK N   1      11.226 -10.767  -0.168  0.00  0.00     0.291 C 
HETATM   13  C   UNK N   1      10.239 -11.209   0.821  0.00  0.00     0.232 C 
HETATM   14  O   UNK N   1       3.543  -8.705   0.763  0.00  0.00    -0.265 OA
HETATM   15  C   UNK N   1       6.572 -11.161  -1.057  0.00  0.00     0.166 C 
HETATM   16  C   UNK N   1       7.282 -10.841   1.436  0.00  0.00     0.148 C 
HETATM   17  C   UNK N   1       8.293 -12.831   0.418  0.00  0.00     0.013 C 
HETATM   18  C   UNK N   1       7.682 -12.309   1.754  0.00  0.00     0.040 C 
HETATM   19  O   UNK N   1      12.347 -10.383   0.122  0.00  0.00    -0.262 OA
HETATM   20  C   UNK N   1       5.669  -6.682   0.339  0.00  0.00     0.024 C 
HETATM   21  C   UNK N   1       8.503  -8.986   0.965  0.00  0.00     0.298 C 
HETATM   22  O   UNK N   1       8.100  -9.835   1.951  0.00  0.00    -0.312 OA
HETATM   23  O   UNK N   1       9.106  -7.943   1.190  0.00  0.00    -0.262 OA
ENDROOT
BRANCH  17  24
HETATM   24  C   UNK N   1       8.743 -14.306   0.357  0.00  0.00    -0.047 C 
HETATM   25  C   UNK N   1       9.403 -14.598  -0.975  0.00  0.00     0.015 C 
HETATM   26  C   UNK N   1       7.500 -15.171   0.457  0.00  0.00     0.015 C 
HETATM   27  C   UNK N   1       9.664 -14.729   1.484  0.00  0.00     0.015 C 
ENDBRANCH  17  24
BRANCH  13  28
HETATM   28  O   UNK N   1      10.800 -12.313   1.459  0.00  0.00    -0.385 OA
HETATM   29  H   UNK N   1      10.330 -13.035   1.904  0.00  0.00     0.210 HD
ENDBRANCH  13  28
BRANCH  15  30
HETATM   30  O   UNK N   1       5.716 -12.192  -0.653  0.00  0.00    -0.392 OA
HETATM   31  H   UNK N   1       4.800 -12.035  -0.374  0.00  0.00     0.210 HD
ENDBRANCH  15  30
BRANCH   4  32
HETATM   32  O   UNK N   1       6.929  -7.743  -1.787  0.00  0.00    -0.382 OA
HETATM   33  H   UNK N   1       7.609  -7.538  -2.448  0.00  0.00     0.210 HD
ENDBRANCH   4  32
TORSDOF 4
