REMARK  6 active torsions:
REMARK  status: ('A' for Active; 'I' for Inactive)
REMARK    1  A    between atoms: O_1  and  S_2 
REMARK    2  A    between atoms: S_2  and  N_5 
REMARK    3  A    between atoms: N_5  and  C_6 
REMARK       I    between atoms: N_11  and  C_12 
REMARK    4  A    between atoms: C_12  and  O_14 
REMARK    5  A    between atoms: O_14  and  C_15 
REMARK    6  A    between atoms: C_19  and  C_20 
REMARK       I    between atoms: C_20  and  N_22 
ROOT
HETATM    1  C   UNK N   1      -3.247   0.156   0.020  0.00  0.00     0.044 A 
HETATM    2  C   UNK N   1      -3.108  -1.168  -0.414  0.00  0.00     0.031 A 
HETATM    3  C   UNK N   1      -2.137   0.837   0.530  0.00  0.00     0.039 A 
HETATM    4  C   UNK N   1      -0.890   0.204   0.589  0.00  0.00    -0.032 A 
HETATM    5  C   UNK N   1       0.295   0.955   1.100  0.00  0.00     0.168 C 
HETATM    6  N   UNK N   1       1.528   0.417   0.550  0.00  0.00    -0.310 N 
HETATM    7  C   UNK N   1       2.453   1.303   0.053  0.00  0.00     0.364 C 
HETATM    8  O   UNK N   1       2.196   2.500   0.033  0.00  0.00    -0.238 OA
HETATM    9  C   UNK N   1       1.745  -1.033   0.710  0.00  0.00     0.186 C 
HETATM   10  C   UNK N   1       0.559  -1.837   0.162  0.00  0.00     0.074 C 
HETATM   11  C   UNK N   1      -0.760  -1.129   0.158  0.00  0.00    -0.048 A 
HETATM   12  C   UNK N   1      -1.873  -1.808  -0.338  0.00  0.00     0.010 A 
ENDROOT
BRANCH   1  13
HETATM   13  N   UNK N   1      -4.499   0.820  -0.073  0.00  0.00    -0.273 N 
HETATM   14  H   UNK N   1      -4.627   1.662   0.421  0.00  0.00     0.180 HD
BRANCH  13  15
HETATM   15  S   UNK N   1      -5.831   0.191  -1.041  0.00  0.00     0.199 S 
HETATM   16  O   UNK N   1      -5.952  -0.562   0.293  0.00  0.00    -0.585 OA
HETATM   17  O   UNK N   1      -6.163   1.657  -0.726  0.00  0.00    -0.585 OA
BRANCH  15  18
HETATM   18  O   UNK N   1      -7.449   0.310  -0.485  0.00  0.00    -0.279 OA
HETATM   19  H   UNK N   1      -7.848   1.137  -0.171  0.00  0.00     0.234 HD
ENDBRANCH  15  18
ENDBRANCH  13  15
ENDBRANCH   1  13
BRANCH   9  20
HETATM   20  C   UNK N   1       2.997  -1.617   0.070  0.00  0.00     0.240 C 
HETATM   21  O   UNK N   1       3.863  -2.090   0.789  0.00  0.00    -0.271 OA
HETATM   22  N   UNK N   1       3.173  -1.656  -1.281  0.00  0.00    -0.364 N 
HETATM   23  C   UNK N   1       2.208  -1.143  -2.224  0.00  0.00     0.149 C 
HETATM   24  H   UNK N   1       4.002  -2.055  -1.632  0.00  0.00     0.161 HD
ENDBRANCH   9  20
BRANCH   7  25
HETATM   25  O   UNK N   1       3.680   0.877  -0.353  0.00  0.00    -0.294 OA
BRANCH  25  26
HETATM   26  C   UNK N   1       4.874   1.547  -0.144  0.00  0.00     0.061 C 
HETATM   27  C   UNK N   1       4.869   2.949  -0.731  0.00  0.00     0.046 C 
HETATM   28  C   UNK N   1       5.987   0.760  -0.801  0.00  0.00     0.046 C 
HETATM   29  C   UNK N   1       5.160   1.615   1.347  0.00  0.00     0.046 C 
ENDBRANCH  25  26
ENDBRANCH   7  25
TORSDOF 6
