REMARK  2 active torsions:
REMARK  status: ('A' for Active; 'I' for Inactive)
REMARK    1  A    between atoms: C_1  and  O_2 
REMARK    2  A    between atoms: C_3  and  O_21 
ROOT
HETATM    1  C   UNK N   1      -3.714  -2.011   0.274  0.00  0.00     0.099 A 
HETATM    2  C   UNK N   1      -3.798  -0.686  -0.175  0.00  0.00     0.099 A 
HETATM    3  C   UNK N   1      -2.636   0.068  -0.349  0.00  0.00     0.047 A 
HETATM    4  C   UNK N   1      -2.465  -2.569   0.574  0.00  0.00     0.047 A 
HETATM    5  C   UNK N   1      -1.302  -1.808   0.416  0.00  0.00    -0.049 A 
HETATM    6  C   UNK N   1       0.032  -2.372   0.781  0.00  0.00     0.039 C 
HETATM    7  C   UNK N   1       1.015  -2.074  -0.337  0.00  0.00     0.010 C 
HETATM    8  C   UNK N   1       1.135  -0.566  -0.643  0.00  0.00    -0.001 C 
HETATM    9  C   UNK N   1       2.412   0.043  -0.019  0.00  0.00     0.001 C 
HETATM   10  C   UNK N   1       3.736  -0.403  -0.614  0.00  0.00     0.008 C 
HETATM   11  C   UNK N   1       4.695   0.765  -0.331  0.00  0.00     0.033 C 
HETATM   12  C   UNK N   1       3.858   1.906   0.268  0.00  0.00     0.126 C 
HETATM   13  O   UNK N   1       3.981   1.858   1.660  0.00  0.00    -0.395 OA
HETATM   14  C   UNK N   1       2.437   1.560  -0.164  0.00  0.00    -0.014 C 
HETATM   15  C   UNK N   1       2.264   2.009  -1.620  0.00  0.00     0.018 C 
HETATM   16  C   UNK N   1       1.324   2.198   0.692  0.00  0.00     0.013 C 
HETATM   17  C   UNK N   1       0.107   1.263   0.905  0.00  0.00     0.010 C 
HETATM   18  C   UNK N   1      -0.127   0.311  -0.283  0.00  0.00     0.024 C 
HETATM   19  C   UNK N   1      -1.382  -0.492  -0.068  0.00  0.00    -0.044 A 
HETATM   20  H   UNK N   1       3.995   1.767   2.626  0.00  0.00     0.210 HD
ENDROOT
BRANCH   2  21
HETATM   21  O   UNK N   1      -4.995  -0.134  -0.444  0.00  0.00    -0.358 OA
HETATM   22  H   UNK N   1      -5.079   0.780  -0.631  0.00  0.00     0.217 HD
ENDBRANCH   2  21
BRANCH   1  23
HETATM   23  O   UNK N   1      -4.827  -2.748   0.426  0.00  0.00    -0.358 OA
HETATM   24  H   UNK N   1      -5.660  -2.333   0.531  0.00  0.00     0.217 HD
ENDBRANCH   1  23
TORSDOF 2
