REMARK  5 active torsions:
REMARK  status: ('A' for Active; 'I' for Inactive)
REMARK    1  A    between atoms: N_5  and  C_11 
REMARK       I    between atoms: N_5  and  C_14 
REMARK    2  A    between atoms: N_6  and  C_17 
REMARK    3  A    between atoms: N_6  and  C_21 
REMARK    4  A    between atoms: N_8  and  C_27 
REMARK    5  A    between atoms: C_14  and  C_15 
ROOT
HETATM    1  O   UNK N   1       4.601   0.771   0.285  0.00  0.00    -0.268 OA
HETATM    2  N   UNK N   1       6.848   0.961   0.112  0.00  0.00    -0.302 N 
HETATM    3  N   UNK N   1       9.311   0.773  -0.059  0.00  0.00    -0.236 N 
HETATM    4  N   UNK N   1      10.152  -0.259  -0.059  0.00  0.00    -0.302 N 
ATOM      5  HN  UNK N   1      11.169  -0.190  -0.081  1.00  0.00     0.186 HD
HETATM    6  C   UNK N   1       8.046   0.286   0.009  0.00  0.00     0.146 A 
HETATM    7  C   UNK N   1       8.107  -1.087   0.029  0.00  0.00     0.054 A 
HETATM    8  C   UNK N   1       6.955  -1.866   0.108  0.00  0.00     0.053 A 
HETATM    9  C   UNK N   1       5.737  -1.169   0.171  0.00  0.00     0.105 A 
HETATM   10  C   UNK N   1       5.685   0.221   0.189  0.00  0.00     0.251 A 
HETATM   11  C   UNK N   1       9.444  -1.418  -0.024  0.00  0.00     0.125 A 
HETATM   12  C   UNK N   1       6.729   2.407   0.201  0.00  0.00     0.161 C 
ENDROOT
BRANCH   8  13
HETATM   13  N   UNK N   1       6.993  -3.303   0.086  0.00  0.00    -0.355 N 
HETATM   14  H   UNK N   1       7.867  -3.756   0.061  0.00  0.00     0.166 HD
BRANCH  13  15
HETATM   15  C   UNK N   1       5.801  -4.100   0.100  0.00  0.00     0.039 A 
HETATM   16  C   UNK N   1       4.617  -3.563   0.597  0.00  0.00     0.047 A 
HETATM   17  C   UNK N   1       3.391  -4.183   0.454  0.00  0.00     0.034 A 
HETATM   18  C   UNK N   1       3.334  -5.427  -0.187  0.00  0.00     0.017 A 
HETATM   19  C   UNK N   1       4.524  -6.037  -0.625  0.00  0.00     0.010 A 
HETATM   20  C   UNK N   1       5.759  -5.374  -0.493  0.00  0.00    -0.035 A 
HETATM   21  C   UNK N   1       6.990  -5.999  -1.054  0.00  0.00     0.050 C 
BRANCH  17  22
HETATM   22  C   UNK N   1       2.200  -3.399   0.841  0.00  0.00     0.252 C 
HETATM   23  O   UNK N   1       2.340  -2.419   1.564  0.00  0.00    -0.268 OA
HETATM   24  N   UNK N   1       0.988  -3.671   0.297  0.00  0.00    -0.352 N 
HETATM   25  H   UNK N   1       0.885  -4.476  -0.260  0.00  0.00     0.163 HD
BRANCH  24  26
HETATM   26  C   UNK N   1      -0.161  -2.811   0.510  0.00  0.00     0.084 A 
HETATM   27  C   UNK N   1       0.128  -1.388   0.038  0.00  0.00     0.027 A 
HETATM   28  C   UNK N   1      -0.664  -2.324  -0.838  0.00  0.00     0.027 A 
ENDBRANCH  24  26
ENDBRANCH  17  22
ENDBRANCH  13  15
ENDBRANCH   8  13
BRANCH   3  29
HETATM   29  C   UNK N   1       9.772   2.140  -0.105  0.00  0.00     0.097 A 
HETATM   30  C   UNK N   1      10.901   2.529   0.637  0.00  0.00     0.148 A 
HETATM   31  F   UNK N   1      11.566   1.628   1.401  0.00  0.00    -0.203 F 
HETATM   32  C   UNK N   1      11.300   3.870   0.657  0.00  0.00     0.087 A 
HETATM   33  C   UNK N   1      10.599   4.823  -0.087  0.00  0.00     0.119 A 
HETATM   34  F   UNK N   1      10.964   6.127  -0.037  0.00  0.00    -0.206 F 
HETATM   35  C   UNK N   1       9.516   4.437  -0.872  0.00  0.00     0.045 A 
HETATM   36  C   UNK N   1       9.110   3.102  -0.882  0.00  0.00     0.038 A 
ENDBRANCH   3  29
TORSDOF 5
