REMARK  1 active torsions:
REMARK  status: ('A' for Active; 'I' for Inactive)
REMARK    1  A    between atoms: C_4  and  C_8 
ROOT
HETATM    1  S   UNK N   1       4.818  -0.039   2.184  0.00  0.00    -0.126 SA
HETATM    2  O   UNK N   1       4.404  -3.077  -1.135  0.00  0.00    -0.267 OA
HETATM    3  N   UNK N   1       4.731  -1.049  -0.168  0.00  0.00    -0.320 N 
HETATM    4  C   UNK N   1       3.984  -0.069   0.578  0.00  0.00     0.140 A 
HETATM    5  C   UNK N   1       2.603  -0.706   0.572  0.00  0.00     0.001 A 
HETATM    6  C   UNK N   1       6.152  -1.055  -0.050  0.00  0.00     0.138 C 
HETATM    7  C   UNK N   1       6.409  -0.572   1.383  0.00  0.00     0.097 C 
HETATM    8  C   UNK N   1       2.617  -1.877  -0.151  0.00  0.00     0.042 A 
HETATM    9  C   UNK N   1       3.969  -2.079  -0.583  0.00  0.00     0.256 A 
HETATM   10  C   UNK N   1       1.432  -0.260   1.188  0.00  0.00     0.012 A 
HETATM   11  C   UNK N   1       1.482  -2.672  -0.296  0.00  0.00     0.018 A 
HETATM   12  C   UNK N   1       0.267  -1.033   1.050  0.00  0.00     0.001 A 
HETATM   13  C   UNK N   1       0.291  -2.234   0.309  0.00  0.00     0.001 A 
ENDROOT
BRANCH   4  14
HETATM   14  C   UNK N   1       4.002   1.308  -0.060  0.00  0.00    -0.014 A 
HETATM   15  C   UNK N   1       3.168   2.321   0.442  0.00  0.00     0.017 A 
HETATM   16  C   UNK N   1       3.168   3.592  -0.139  0.00  0.00    -0.061 A 
HETATM   17  C   UNK N   1       4.021   3.871  -1.210  0.00  0.00     0.007 A 
HETATM   18  C   UNK N   1       2.248   4.641   0.371  0.00  0.00     0.048 C 
HETATM   19  C   UNK N   1       4.865   2.876  -1.708  0.00  0.00     0.001 A 
HETATM   20  C   UNK N   1       4.846   1.597  -1.145  0.00  0.00     0.011 A 
ENDBRANCH   4  14
TORSDOF 1
