REMARK  3 active torsions:
REMARK  status: ('A' for Active; 'I' for Inactive)
REMARK    1  A    between atoms: N_4  and  C_11 
REMARK       I    between atoms: N_4  and  C_19 
REMARK    2  A    between atoms: N_5  and  C_17 
REMARK    3  A    between atoms: C_17  and  C_19 
ROOT
HETATM    1  O   UNK N   1      10.455  -1.807   0.032  0.00  0.00    -0.267 OA
HETATM    2  N   UNK N   1       8.224  -1.964  -0.054  0.00  0.00    -0.322 N 
HETATM    3  C   UNK N   1       6.889   0.036  -0.069  0.00  0.00     0.004 A 
HETATM    4  C   UNK N   1       8.060   0.815  -0.025  0.00  0.00    -0.008 A 
HETATM    5  C   UNK N   1       7.001  -1.373  -0.082  0.00  0.00     0.046 A 
HETATM    6  C   UNK N   1       9.321   0.173   0.011  0.00  0.00     0.043 A 
HETATM    7  C   UNK N   1       5.613   0.625  -0.075  0.00  0.00     0.044 A 
HETATM    8  C   UNK N   1       4.460  -0.168  -0.077  0.00  0.00     0.035 A 
HETATM    9  C   UNK N   1       5.852  -2.164  -0.110  0.00  0.00     0.033 A 
HETATM   10  C   UNK N   1       9.381  -1.231  -0.004  0.00  0.00     0.257 A 
HETATM   11  C   UNK N   1       4.591  -1.567  -0.099  0.00  0.00     0.032 A 
HETATM   12  C   UNK N   1       8.001   2.218  -0.005  0.00  0.00     0.013 A 
HETATM   13  C   UNK N   1      10.492   0.944   0.069  0.00  0.00     0.018 A 
HETATM   14  C   UNK N   1       9.174   2.975   0.051  0.00  0.00     0.001 A 
HETATM   15  C   UNK N   1      10.417   2.339   0.088  0.00  0.00     0.001 A 
HETATM   16  H   UNK N   1       8.280  -2.947  -0.069  0.00  0.00     0.169 HD
ENDROOT
BRANCH   8  17
HETATM   17  N   UNK N   1       3.186   0.470   0.005  0.00  0.00    -0.326 N 
HETATM   18  C   UNK N   1       2.019  -0.151   0.328  0.00  0.00     0.250 C 
HETATM   19  O   UNK N   1       1.995  -1.340   0.608  0.00  0.00    -0.271 OA
HETATM   20  H   UNK N   1       3.149   1.435  -0.187  0.00  0.00     0.169 HD
BRANCH  18  21
HETATM   21  C   UNK N   1       0.757   0.655   0.437  0.00  0.00     0.373 C 
BRANCH  21  22
HETATM   22  N   UNK N   1      -0.286   0.174  -0.465  0.00  0.00     0.088 N 
HETATM   23  C   UNK N   1      -1.372   1.134  -0.386  0.00  0.00     0.310 C 
HETATM   24  C   UNK N   1      -0.821  -1.078   0.050  0.00  0.00     0.310 C 
ENDBRANCH  21  22
ENDBRANCH  18  21
ENDBRANCH   8  17
TORSDOF 3
