REMARK  5 active torsions:
REMARK  status: ('A' for Active; 'I' for Inactive)
REMARK    1  A    between atoms: C_11  and  O_19 
REMARK    2  A    between atoms: C_12  and  C_11 
REMARK    3  A    between atoms: C_13  and  C_12 
REMARK    4  A    between atoms: O_20  and  C_13 
REMARK    5  A    between atoms: O_19  and  N_17 
ROOT
HETATM    1  C   UNK N   1      -2.459  -0.295  -0.001  0.00  0.00     0.004 A 
HETATM    2  C   UNK N   1      -1.208   0.468  -0.038  0.00  0.00     0.076 A 
HETATM    3  C   UNK N   1      -0.120  -0.551  -0.039  0.00  0.00     0.004 A 
HETATM    4  C   UNK N   1      -0.718  -1.806   0.003  0.00  0.00    -0.012 A 
HETATM    5  C   UNK N   1      -2.164  -1.643   0.021  0.00  0.00    -0.012 A 
HETATM    6  C   UNK N   1       0.027  -2.983   0.013  0.00  0.00     0.013 A 
HETATM    7  C   UNK N   1      -3.167  -2.610   0.039  0.00  0.00     0.013 A 
HETATM    8  C   UNK N   1      -3.778   0.158  -0.006  0.00  0.00     0.014 A 
HETATM    9  C   UNK N   1      -4.808  -0.799   0.015  0.00  0.00     0.001 A 
HETATM   10  C   UNK N   1      -4.504  -2.177   0.036  0.00  0.00     0.001 A 
HETATM   11  C   UNK N   1       1.272  -0.449  -0.083  0.00  0.00     0.014 A 
HETATM   12  C   UNK N   1       2.045  -1.621  -0.068  0.00  0.00     0.001 A 
HETATM   13  C   UNK N   1       1.425  -2.883  -0.019  0.00  0.00     0.001 A 
HETATM   14  N   UNK N   1      -1.186   1.768  -0.107  0.00  0.00    -0.265 N 
ATOM     15  HN  UNK N   1      -2.094   2.234  -0.107  1.00  0.00     0.194 HD
ENDROOT
BRANCH  14  16
HETATM   16  O   UNK N   1      -0.124   2.558  -0.178  0.00  0.00    -0.279 OA
BRANCH  16  17
HETATM   17  C   UNK N   1       1.106   2.280   0.362  0.00  0.00     0.211 C 
BRANCH  17  18
HETATM   18  C   UNK N   1       2.073   3.409   0.039  0.00  0.00     0.138 C 
BRANCH  18  19
HETATM   19  C   UNK N   1       3.506   2.960   0.018  0.00  0.00     0.141 C 
HETATM   20  O   UNK N   1       3.797   1.777   0.114  0.00  0.00    -0.650 OA
BRANCH  19  21
HETATM   21  O   UNK N   1       4.483   3.875  -0.120  0.00  0.00    -0.776 OA
HETATM   22  H   UNK N   1       5.375   3.605  -0.216  0.00  0.00     0.167 HD
ENDBRANCH  19  21
ENDBRANCH  18  19
ENDBRANCH  17  18
ENDBRANCH  16  17
ENDBRANCH  14  16
TORSDOF 5
