REMARK  0 active torsions:
REMARK  status: ('A' for Active; 'I' for Inactive)
ROOT
HETATM    1  C   UNK N   1       1.528  -0.118   1.188  0.00  0.00     0.063 C 
HETATM    2  C   UNK N   1       2.383   1.173   1.241  0.00  0.00     0.274 C 
HETATM    3  N   UNK N   1       3.562   1.141   0.347  0.00  0.00     0.084 N 
HETATM    4  C   UNK N   1       3.513   2.307  -0.531  0.00  0.00     0.309 C 
HETATM    5  C   UNK N   1       3.589  -0.047  -0.510  0.00  0.00     0.274 C 
HETATM    6  C   UNK N   1       2.248  -0.163  -1.239  0.00  0.00     0.063 C 
HETATM    7  C   UNK N   1       1.081  -0.406  -0.263  0.00  0.00     0.057 C 
HETATM    8  N   UNK N   1       0.789  -1.835  -0.405  0.00  0.00    -0.345 N 
HETATM    9  C   UNK N   1      -0.461  -2.364  -0.407  0.00  0.00     0.269 C 
HETATM   10  O   UNK N   1      -0.619  -3.559  -0.589  0.00  0.00    -0.266 OA
HETATM   11  C   UNK N   1      -1.599  -1.484  -0.160  0.00  0.00     0.112 A 
HETATM   12  N   UNK N   1      -2.888  -1.829   0.051  0.00  0.00    -0.344 N 
HETATM   13  C   UNK N   1      -3.408  -3.188   0.084  0.00  0.00     0.157 C 
HETATM   14  C   UNK N   1      -3.576  -0.669   0.159  0.00  0.00     0.069 A 
HETATM   15  C   UNK N   1      -4.963  -0.475   0.265  0.00  0.00     0.083 A 
HETATM   16 Cl   UNK N   1      -6.095  -1.827   0.266  0.00  0.00    -0.080 Cl
HETATM   17  C   UNK N   1      -5.441   0.856   0.285  0.00  0.00     0.058 A 
HETATM   18 Cl   UNK N   1      -7.163   1.195   0.303  0.00  0.00    -0.082 Cl
HETATM   19  C   UNK N   1      -4.539   1.939   0.224  0.00  0.00     0.026 A 
HETATM   20  C   UNK N   1      -3.159   1.718   0.097  0.00  0.00     0.016 A 
HETATM   21  C   UNK N   1      -2.711   0.402   0.059  0.00  0.00     0.003 A 
HETATM   22  C   UNK N   1      -1.449  -0.125  -0.167  0.00  0.00     0.007 A 
HETATM   23  C   UNK N   1      -0.159   0.500  -0.619  0.00  0.00     0.157 C 
HETATM   24  C   UNK N   1      -0.110   1.931  -0.256  0.00  0.00     0.071 C 
HETATM   25  N   UNK N   1      -0.093   3.050   0.040  0.00  0.00    -0.196 NA
HETATM   26  H   UNK N   1       1.550  -2.451  -0.506  0.00  0.00     0.163 HD
ENDROOT
TORSDOF 0
