REMARK  3 active torsions:
REMARK  status: ('A' for Active; 'I' for Inactive)
REMARK    1  A    between atoms: C_1  and  C_4 
REMARK    2  A    between atoms: C_4  and  O_6 
REMARK    3  A    between atoms: C_14  and  O_6 
ROOT
HETATM    1  O   UNK N   1       1.628  -1.602  -0.132  0.00  0.00    -0.259 OA
HETATM    2  C   UNK N   1       0.500  -1.142  -0.015  0.00  0.00     0.296 C 
ENDROOT
BRANCH   2   3
HETATM    3  C   UNK N   1      -0.662  -2.050  -0.053  0.00  0.00     0.068 A 
HETATM    4  C   UNK N   1      -0.629  -3.424  -0.083  0.00  0.00     0.026 A 
HETATM    5  C   UNK N   1      -1.921  -3.846  -0.045  0.00  0.00     0.116 A 
HETATM    6  C   UNK N   1       0.425  -4.331  -0.106  0.00  0.00     0.018 A 
HETATM    7  N   UNK N   1      -2.254  -5.161  -0.029  0.00  0.00    -0.352 N 
HETATM    8  N   UNK N   1      -2.779  -2.812   0.001  0.00  0.00    -0.351 N 
HETATM    9  C   UNK N   1      -1.256  -6.097  -0.052  0.00  0.00     0.090 A 
ATOM     10  HN  UNK N   1      -3.232  -5.448   0.000  1.00  0.00     0.166 HD
HETATM   11  C   UNK N   1       0.101  -5.699  -0.091  0.00  0.00     0.018 A 
HETATM   12  C   UNK N   1      -2.008  -1.691   0.003  0.00  0.00     0.108 A 
HETATM   13  H   UNK N   1      -3.762  -2.857   0.028  0.00  0.00     0.166 HD
ENDBRANCH   2   3
BRANCH   2  14
HETATM   14  O   UNK N   1       0.320   0.179   0.259  0.00  0.00    -0.312 OA
BRANCH  14  15
HETATM   15  C   UNK N   1       1.355   1.005   0.670  0.00  0.00     0.136 C 
HETATM   16  C   UNK N   1       2.187   1.520  -0.523  0.00  0.00     0.068 C 
HETATM   17  C   UNK N   1       1.612   2.818  -1.146  0.00  0.00     0.225 C 
HETATM   18  C   UNK N   1       0.177   2.585  -1.606  0.00  0.00     0.038 C 
HETATM   19  N   UNK N   1       1.473   3.868  -0.137  0.00  0.00     0.093 N 
HETATM   20  C   UNK N   1      -0.670   2.952  -0.382  0.00  0.00     0.038 C 
HETATM   21  C   UNK N   1       0.355   3.374   0.666  0.00  0.00     0.225 C 
HETATM   22  C   UNK N   1       0.790   2.158   1.515  0.00  0.00     0.068 C 
HETATM   23  C   UNK N   1       2.694   4.123   0.633  0.00  0.00     0.310 C 
ENDBRANCH  14  15
ENDBRANCH   2  14
TORSDOF 3
