REMARK  6 active torsions:
REMARK  status: ('A' for Active; 'I' for Inactive)
REMARK    1  A    between atoms: C_1  and  N_9 
REMARK       I    between atoms: C_4  and  N_10 
REMARK    2  A    between atoms: C_7  and  C_11 
REMARK    3  A    between atoms: C_8  and  C_15 
REMARK    4  A    between atoms: C_18  and  N_19 
REMARK    5  A    between atoms: N_19  and  C_27 
REMARK    6  A    between atoms: C_22  and  C_27 
ROOT
HETATM    1  C   UNK N   1       0.595   1.083  -0.738  0.00  0.00     0.030 A 
HETATM    2  C   UNK N   1       1.708   0.484  -0.141  0.00  0.00     0.014 A 
HETATM    3  C   UNK N   1       1.684  -0.875   0.231  0.00  0.00    -0.020 A 
HETATM    4  C   UNK N   1       0.481  -1.572   0.064  0.00  0.00     0.014 A 
HETATM    5  C   UNK N   1      -0.618  -0.992  -0.541  0.00  0.00     0.030 A 
HETATM    6  C   UNK N   1      -0.549   0.316  -0.992  0.00  0.00     0.028 A 
ENDROOT
BRANCH   3   7
HETATM    7  C   UNK N   1       2.964  -1.644   0.462  0.00  0.00     0.041 A 
HETATM    8  C   UNK N   1       4.237  -1.002   0.425  0.00  0.00     0.127 A 
HETATM    9  N   UNK N   1       5.369  -1.741   0.413  0.00  0.00    -0.176 N 
HETATM   10  C   UNK N   1       5.340  -3.095   0.449  0.00  0.00     0.677 A 
ATOM     11  HN  UNK N   1       6.271  -1.265   0.376  1.00  0.00     0.186 HD
HETATM   12  N   UNK N   1       4.154  -3.739   0.556  0.00  0.00    -0.195 N 
HETATM   13  N   UNK N   1       6.531  -3.829   0.346  0.00  0.00    -0.234 N 
HETATM   14  C   UNK N   1       2.977  -3.073   0.578  0.00  0.00     0.041 A 
ATOM     15  HN  UNK N   1       4.148  -4.757   0.623  1.00  0.00     0.184 HD
HETATM   16  H   UNK N   1       6.504  -4.810   0.273  0.00  0.00     0.174 HD
HETATM   17  H   UNK N   1       7.398  -3.361   0.346  0.00  0.00     0.174 HD
BRANCH   8  18
HETATM   18  N   UNK N   1       4.357   0.403   0.349  0.00  0.00    -0.384 N 
HETATM   19  H   UNK N   1       5.246   0.821   0.297  0.00  0.00     0.157 HD
HETATM   20  H   UNK N   1       3.549   0.966   0.349  0.00  0.00     0.157 HD
ENDBRANCH   8  18
BRANCH  14  21
HETATM   21  C   UNK N   1       1.730  -3.899   0.690  0.00  0.00     0.054 C 
HETATM   22  C   UNK N   1       1.430  -4.607  -0.617  0.00  0.00     0.011 C 
ENDBRANCH  14  21
ENDBRANCH   3   7
BRANCH   6  23
HETATM   23  N   UNK N   1      -1.621   0.809  -1.759  0.00  0.00    -0.386 N 
HETATM   24  H   UNK N   1      -2.252   0.166  -2.154  0.00  0.00     0.160 HD
BRANCH  23  25
HETATM   25  C   UNK N   1      -1.832   2.209  -1.991  0.00  0.00     0.158 C 
BRANCH  25  26
HETATM   26  C   UNK N   1      -2.871   2.664  -1.026  0.00  0.00    -0.035 A 
HETATM   27  C   UNK N   1      -2.871   3.984  -0.580  0.00  0.00     0.051 A 
HETATM   28  C   UNK N   1      -3.792   4.388   0.391  0.00  0.00     0.119 A 
HETATM   29  C   UNK N   1      -4.702   3.468   0.925  0.00  0.00     0.084 A 
HETATM   30  F   UNK N   1      -3.790   5.668   0.827  0.00  0.00    -0.206 F 
HETATM   31  C   UNK N   1      -4.700   2.144   0.480  0.00  0.00     0.119 A 
HETATM   32  C   UNK N   1      -3.789   1.746  -0.490  0.00  0.00     0.051 A 
HETATM   33  F   UNK N   1      -5.563   1.240   1.002  0.00  0.00    -0.206 F 
ENDBRANCH  25  26
ENDBRANCH  23  25
ENDBRANCH   6  23
TORSDOF 6
