REMARK  6 active torsions:
REMARK  status: ('A' for Active; 'I' for Inactive)
REMARK    1  A    between atoms: O_2  and  C_3 
REMARK    2  A    between atoms: C_7  and  C_9 
REMARK    3  A    between atoms: C_13  and  C_14 
REMARK    4  A    between atoms: C_14  and  C_15 
REMARK    5  A    between atoms: C_15  and  C_16 
REMARK    6  A    between atoms: C_20  and  N_21 
ROOT
HETATM    1  C   UNK N   1       1.287   0.247  -0.007  0.00  0.00    -0.025 A 
HETATM    2  C   UNK N   1       0.233   1.176   0.031  0.00  0.00     0.012 A 
HETATM    3  C   UNK N   1      -1.082   0.753   0.231  0.00  0.00     0.001 A 
HETATM    4  C   UNK N   1      -1.357  -0.602   0.413  0.00  0.00     0.007 A 
HETATM    5  C   UNK N   1      -0.321  -1.537   0.371  0.00  0.00    -0.057 A 
HETATM    6  C   UNK N   1       0.999  -1.117   0.160  0.00  0.00     0.019 A 
ENDROOT
BRANCH   5   7
HETATM    7  C   UNK N   1      -0.622  -2.971   0.600  0.00  0.00     0.044 C 
BRANCH   7   8
HETATM    8  C   UNK N   1      -0.658  -3.719  -0.717  0.00  0.00     0.061 C 
BRANCH   8   9
HETATM    9  C   UNK N   1      -0.253  -5.125  -0.478  0.00  0.00     0.011 A 
HETATM   10  N   UNK N   1       1.067  -5.447  -0.424  0.00  0.00    -0.346 N 
HETATM   11  C   UNK N   1       1.478  -6.723  -0.194  0.00  0.00     0.098 A 
ATOM     12  HN  UNK N   1       1.764  -4.715  -0.558  1.00  0.00     0.167 HD
HETATM   13  C   UNK N   1       0.536  -7.736  -0.001  0.00  0.00     0.048 A 
HETATM   14  C   UNK N   1      -0.824  -7.426  -0.051  0.00  0.00     0.006 A 
HETATM   15  C   UNK N   1      -1.225  -6.112  -0.294  0.00  0.00     0.025 A 
BRANCH  11  16
HETATM   16  N   UNK N   1       2.853  -7.021  -0.151  0.00  0.00    -0.385 N 
HETATM   17  H   UNK N   1       3.153  -7.958  -0.121  0.00  0.00     0.157 HD
HETATM   18  H   UNK N   1       3.514  -6.291  -0.151  0.00  0.00     0.157 HD
ENDBRANCH  11  16
ENDBRANCH   8   9
ENDBRANCH   7   8
ENDBRANCH   5   7
BRANCH   1  19
HETATM   19  C   UNK N   1       2.681   0.721  -0.168  0.00  0.00    -0.023 A 
HETATM   20  C   UNK N   1       3.753  -0.182  -0.265  0.00  0.00     0.012 A 
HETATM   21  C   UNK N   1       5.065   0.290  -0.381  0.00  0.00     0.004 A 
HETATM   22  C   UNK N   1       5.317   1.666  -0.382  0.00  0.00     0.037 A 
HETATM   23  C   UNK N   1       4.253   2.579  -0.279  0.00  0.00     0.069 A 
HETATM   24  C   UNK N   1       2.948   2.098  -0.181  0.00  0.00     0.049 A 
BRANCH  23  25
HETATM   25  O   UNK N   1       4.456   3.917  -0.258  0.00  0.00    -0.356 OA
HETATM   26  C   UNK N   1       5.704   4.494  -0.298  0.00  0.00     0.210 C 
ENDBRANCH  23  25
ENDBRANCH   1  19
TORSDOF 6
