REMARK  9 active torsions:
REMARK  status: ('A' for Active; 'I' for Inactive)
REMARK    1  A    between atoms: C_6  and  O_7 
REMARK    2  A    between atoms: O_7  and  C_8 
REMARK    3  A    between atoms: C_13  and  S_14 
REMARK    4  A    between atoms: S_14  and  C_17 
REMARK    5  A    between atoms: C_17  and  C_18 
REMARK    6  A    between atoms: C_18  and  C_19 
REMARK    7  A    between atoms: C_18  and  C_24 
REMARK    8  A    between atoms: C_18  and  N_23 
REMARK       I    between atoms: C_24  and  N_26 
REMARK    9  A    between atoms: N_26  and  O_27 
ROOT
HETATM    1  S   UNK N   1       1.130  -2.625   0.404  0.00  0.00     0.178 S 
HETATM    2  O   UNK N   1       0.699  -3.330   1.699  0.00  0.00    -0.223 OA
HETATM    3  O   UNK N   1       1.195  -3.834  -0.542  0.00  0.00    -0.223 OA
ENDROOT
BRANCH   1   4
HETATM    4  C   UNK N   1      -0.204  -1.533  -0.035  0.00  0.00     0.059 A 
HETATM    5  C   UNK N   1      -1.546  -1.921   0.076  0.00  0.00     0.026 A 
HETATM    6  C   UNK N   1      -2.563  -0.978  -0.132  0.00  0.00     0.039 A 
HETATM    7  C   UNK N   1      -2.234   0.354  -0.421  0.00  0.00     0.076 A 
HETATM    8  C   UNK N   1      -0.886   0.712  -0.572  0.00  0.00     0.039 A 
HETATM    9  C   UNK N   1       0.118  -0.223  -0.375  0.00  0.00     0.026 A 
BRANCH   7  10
HETATM   10  O   UNK N   1      -3.216   1.288  -0.526  0.00  0.00    -0.311 OA
BRANCH  10  11
HETATM   11  C   UNK N   1      -3.064   2.602  -0.191  0.00  0.00     0.076 A 
HETATM   12  C   UNK N   1      -2.017   3.030   0.652  0.00  0.00     0.037 A 
HETATM   13  C   UNK N   1      -1.885   4.374   1.000  0.00  0.00     0.003 A 
HETATM   14  C   UNK N   1      -2.801   5.308   0.515  0.00  0.00     0.000 A 
HETATM   15  C   UNK N   1      -3.851   4.894  -0.311  0.00  0.00     0.003 A 
HETATM   16  C   UNK N   1      -3.985   3.544  -0.658  0.00  0.00     0.037 A 
ENDBRANCH  10  11
ENDBRANCH   7  10
ENDBRANCH   1   4
BRANCH   1  17
HETATM   17  C   UNK N   1       2.779  -1.912   0.753  0.00  0.00     0.196 C 
BRANCH  17  18
HETATM   18  C   UNK N   1       3.768  -1.813  -0.425  0.00  0.00     0.219 C 
BRANCH  18  19
HETATM   19  C   UNK N   1       4.671  -3.065  -0.380  0.00  0.00     0.422 C 
HETATM   20  F   UNK N   1       5.591  -3.041  -1.414  0.00  0.00    -0.168 F 
HETATM   21  F   UNK N   1       5.326  -3.157   0.837  0.00  0.00    -0.168 F 
HETATM   22  F   UNK N   1       3.906  -4.208  -0.529  0.00  0.00    -0.168 F 
ENDBRANCH  18  19
BRANCH  18  23
HETATM   23  C   UNK N   1       4.438  -0.432  -0.304  0.00  0.00     0.279 C 
HETATM   24  N   UNK N   1       5.772  -0.219  -0.128  0.00  0.00    -0.235 N 
HETATM   25  H   UNK N   1       6.086   0.713  -0.078  0.00  0.00     0.197 HD
HETATM   26  O   UNK N   1       3.715   0.549  -0.378  0.00  0.00    -0.268 OA
BRANCH  24  27
HETATM   27  O   UNK N   1       6.681  -1.191  -0.018  0.00  0.00    -0.287 OA
HETATM   28  H   UNK N   1       6.400  -2.116   0.061  0.00  0.00     0.244 HD
ENDBRANCH  24  27
ENDBRANCH  18  23
BRANCH  18  29
HETATM   29  N   UNK N   1       3.053  -1.818  -1.698  0.00  0.00    -0.406 N 
HETATM   30  H   UNK N   1       2.801  -1.387  -2.587  0.00  0.00     0.151 HD
HETATM   31  H   UNK N   1       2.549  -2.705  -1.698  0.00  0.00     0.151 HD
ENDBRANCH  18  29
ENDBRANCH  17  18
ENDBRANCH   1  17
TORSDOF 9
