REMARK  5 active torsions:
REMARK  status: ('A' for Active; 'I' for Inactive)
REMARK    1  A    between atoms: C_10  and  C_11 
REMARK    2  A    between atoms: C_15  and  C_18 
REMARK    3  A    between atoms: C_16  and  O_17 
REMARK    4  A    between atoms: C_22  and  C_24 
REMARK    5  A    between atoms: C_24  and  N_25 
REMARK       I    between atoms: N_25  and  C_26 
REMARK       I    between atoms: C_26  and  N_28 
ROOT
HETATM    1  C   UNK N   1       0.392  -2.556   0.001  0.00  0.00     0.025 A 
HETATM    2  C   UNK N   1      -0.258  -3.796  -0.002  0.00  0.00     0.016 A 
HETATM    3  C   UNK N   1      -1.661  -3.859  -0.003  0.00  0.00     0.002 A 
HETATM    4  C   UNK N   1      -2.432  -2.686  -0.002  0.00  0.00     0.015 A 
HETATM    5  C   UNK N   1      -1.809  -1.431   0.001  0.00  0.00     0.008 A 
HETATM    6  C   UNK N   1      -0.383  -1.382   0.003  0.00  0.00     0.089 A 
ENDROOT
BRANCH   5   7
HETATM    7  C   UNK N   1      -2.611  -0.157   0.001  0.00  0.00    -0.023 A 
HETATM    8  C   UNK N   1      -4.015  -0.086   0.004  0.00  0.00     0.012 A 
HETATM    9  C   UNK N   1      -4.648   1.182   0.003  0.00  0.00     0.001 A 
HETATM   10  C   UNK N   1      -3.880   2.372   0.000  0.00  0.00     0.009 A 
HETATM   11  C   UNK N   1      -2.483   2.274  -0.003  0.00  0.00    -0.040 A 
HETATM   12  C   UNK N   1      -1.912   1.036  -0.003  0.00  0.00     0.021 A 
BRANCH  11  13
HETATM   13  C   UNK N   1      -1.480   3.379  -0.007  0.00  0.00     0.162 C 
BRANCH  13  14
HETATM   14  N   UNK N   1      -1.962   4.730  -0.001  0.00  0.00    -0.339 N 
HETATM   15  C   UNK N   1      -1.054   5.740   0.000  0.00  0.00     0.314 C 
HETATM   16  O   UNK N   1      -1.438   6.899   0.005  0.00  0.00    -0.248 OA
HETATM   17  N   UNK N   1       0.273   5.482  -0.003  0.00  0.00    -0.352 N 
HETATM   18  H   UNK N   1       0.593   4.550  -0.005  0.00  0.00     0.160 HD
HETATM   19  H   UNK N   1       0.919   6.224  -0.003  0.00  0.00     0.160 HD
HETATM   20  H   UNK N   1      -2.927   4.921   0.001  0.00  0.00     0.164 HD
ENDBRANCH  13  14
ENDBRANCH  11  13
ENDBRANCH   5   7
BRANCH   6  21
HETATM   21  O   UNK N   1       0.252  -0.197   0.007  0.00  0.00    -0.359 OA
HETATM   22  H   UNK N   1       1.189  -0.168   0.010  0.00  0.00     0.217 HD
ENDBRANCH   6  21
BRANCH   1  23
HETATM   23  C   UNK N   1       1.887  -2.455   0.001  0.00  0.00     0.046 A 
HETATM   24  N   UNK N   1       2.744  -3.507   0.003  0.00  0.00    -0.355 N 
HETATM   25  C   UNK N   1       3.976  -2.953   0.002  0.00  0.00     0.045 A 
HETATM   26  H   UNK N   1       2.518  -4.465   0.006  0.00  0.00     0.166 HD
HETATM   27  C   UNK N   1       5.205  -3.603   0.004  0.00  0.00     0.047 A 
HETATM   28  C   UNK N   1       3.903  -1.596  -0.002  0.00  0.00     0.008 A 
HETATM   29  C   UNK N   1       6.360  -2.792   0.002  0.00  0.00     0.090 A 
HETATM   30  N   UNK N   1       6.255  -1.423  -0.003  0.00  0.00    -0.374 N 
HETATM   31  C   UNK N   1       5.040  -0.801  -0.005  0.00  0.00     0.101 A 
ATOM     32  HN  UNK N   1       7.104  -0.857  -0.004  1.00  0.00     0.164 HD
HETATM   33  C   UNK N   1       2.592  -1.246  -0.003  0.00  0.00     0.045 A 
ENDBRANCH   1  23
TORSDOF 5
