REMARK  8 active torsions:
REMARK  status: ('A' for Active; 'I' for Inactive)
REMARK    1  A    between atoms: O_2  and  C_3 
REMARK    2  A    between atoms: C_6  and  N_7 
REMARK    3  A    between atoms: N_7  and  C_8 
REMARK    4  A    between atoms: C_25  and  O_26 
REMARK    5  A    between atoms: O_26  and  C_27 
REMARK    6  A    between atoms: C_27  and  C_28 
REMARK    7  A    between atoms: C_28  and  C_29 
REMARK    8  A    between atoms: C_29  and  N_30 
ROOT
HETATM    1  C   UNK N   1       6.081   6.179  -0.755  0.00  0.00     0.102 A 
HETATM    2  C   UNK N   1       7.330   6.778  -0.622  0.00  0.00     0.057 A 
HETATM    3  C   UNK N   1       8.455   6.030  -0.258  0.00  0.00     0.038 A 
HETATM    4  C   UNK N   1       9.689   6.647  -0.077  0.00  0.00     0.119 A 
HETATM    5  N   UNK N   1      10.747   5.906   0.349  0.00  0.00    -0.338 N 
ATOM      6  HN  UNK N   1      11.643   6.361   0.519  1.00  0.00     0.168 HD
HETATM    7  C   UNK N   1      10.627   4.565   0.551  0.00  0.00     0.182 A 
HETATM    8  N   UNK N   1       9.432   3.945   0.358  0.00  0.00    -0.351 N 
ATOM      9  HN  UNK N   1       9.353   2.939   0.508  1.00  0.00     0.166 HD
HETATM   10  C   UNK N   1       8.342   4.657  -0.032  0.00  0.00     0.050 A 
HETATM   11  C   UNK N   1       7.109   4.035  -0.184  0.00  0.00     0.070 A 
HETATM   12  C   UNK N   1       5.965   4.781  -0.541  0.00  0.00     0.104 A 
ENDROOT
BRANCH   4  13
HETATM   13  N   UNK N   1       9.762   8.050  -0.260  0.00  0.00    -0.338 N 
HETATM   14  H   UNK N   1       8.920   8.446  -0.579  0.00  0.00     0.167 HD
BRANCH  13  15
HETATM   15  C   UNK N   1      10.797   9.002  -0.078  0.00  0.00     0.092 A 
HETATM   16  C   UNK N   1      10.393  10.289   0.260  0.00  0.00     0.133 A 
HETATM   17  O   UNK N   1       9.146  10.728   0.441  0.00  0.00    -0.321 OA
HETATM   18  C   UNK N   1      11.245  11.293   0.459  0.00  0.00     0.107 A 
HETATM   19  C   UNK N   1       9.198  12.084   0.771  0.00  0.00     0.352 A 
HETATM   20  O   UNK N   1      10.563  12.393   0.771  0.00  0.00    -0.323 OA
HETATM   21  C   UNK N   1      12.619  11.131   0.337  0.00  0.00     0.041 A 
HETATM   22  C   UNK N   1      13.094   9.859  -0.029  0.00  0.00     0.029 A 
HETATM   23  C   UNK N   1      12.200   8.782  -0.245  0.00  0.00     0.063 A 
HETATM   24 Cl   UNK N   1      12.908   7.275  -0.796  0.00  0.00    -0.082 Cl
ENDBRANCH  13  15
ENDBRANCH   4  13
BRANCH   1  25
HETATM   25  O   UNK N   1       5.030   6.986  -1.061  0.00  0.00    -0.353 OA
HETATM   26  C   UNK N   1       3.707   6.610  -1.056  0.00  0.00     0.210 C 
ENDBRANCH   1  25
BRANCH  12  27
HETATM   27  O   UNK N   1       4.767   4.165  -0.666  0.00  0.00    -0.348 OA
BRANCH  27  28
HETATM   28  C   UNK N   1       4.561   2.854  -0.307  0.00  0.00     0.177 C 
BRANCH  28  29
HETATM   29  C   UNK N   1       4.578   2.737   1.212  0.00  0.00     0.057 C 
BRANCH  29  30
HETATM   30  C   UNK N   1       4.269   1.316   1.700  0.00  0.00     0.274 C 
BRANCH  30  31
HETATM   31  N   UNK N   1       3.039   0.726   1.153  0.00  0.00     0.088 N 
HETATM   32  C   UNK N   1       3.364   0.103  -0.133  0.00  0.00     0.272 C 
HETATM   33  C   UNK N   1       2.137  -0.577  -0.725  0.00  0.00     0.030 C 
HETATM   34  C   UNK N   1       1.039   0.458  -0.919  0.00  0.00     0.003 C 
HETATM   35  C   UNK N   1       0.712   1.112   0.417  0.00  0.00     0.030 C 
HETATM   36  C   UNK N   1       1.972   1.730   1.011  0.00  0.00     0.272 C 
ENDBRANCH  30  31
ENDBRANCH  29  30
ENDBRANCH  28  29
ENDBRANCH  27  28
ENDBRANCH  12  27
TORSDOF 8
