REMARK  6 active torsions:
REMARK  status: ('A' for Active; 'I' for Inactive)
REMARK    1  A    between atoms: O_2  and  C_3 
REMARK    2  A    between atoms: C_6  and  N_7 
REMARK       I    between atoms: N_7  and  C_8 
REMARK       I    between atoms: C_14  and  N_15 
REMARK    3  A    between atoms: N_15  and  C_16 
REMARK    4  A    between atoms: C_18  and  O_19 
REMARK    5  A    between atoms: C_21  and  O_22 
REMARK    6  A    between atoms: C_24  and  O_25 
ROOT
HETATM    1  N   UNK N   1       6.454   6.048   0.695  0.00  0.00    -0.191 N 
HETATM    2  C   UNK N   1       7.636   5.319   0.424  0.00  0.00     0.698 A 
HETATM    3  N   UNK N   1       8.817   5.899   0.088  0.00  0.00    -0.187 N 
ATOM      4  HN  UNK N   1       8.905   6.915   0.066  1.00  0.00     0.185 HD
HETATM    5  C   UNK N   1       9.887   5.105  -0.220  0.00  0.00     0.215 A 
HETATM    6  N   UNK N   1       9.756   3.744  -0.241  0.00  0.00    -0.187 N 
ATOM      7  HN  UNK N   1      10.551   3.154  -0.488  1.00  0.00     0.185 HD
HETATM    8  C   UNK N   1       8.558   3.185   0.068  0.00  0.00     0.698 A 
HETATM    9  N   UNK N   1       8.335   1.778  -0.040  0.00  0.00    -0.191 N 
HETATM   10  N   UNK N   1       7.533   3.985   0.419  0.00  0.00    -0.022 N 
ATOM     11  HN  UNK N   1       6.647   3.558   0.690  1.00  0.00     0.203 HD
HETATM   12  H   UNK N   1       5.741   5.534   1.139  0.00  0.00     0.184 HD
HETATM   13  H   UNK N   1       9.106   1.167  -0.070  0.00  0.00     0.184 HD
ENDROOT
BRANCH   9  14
HETATM   14  C   UNK N   1       7.006   1.241  -0.105  0.00  0.00     0.054 A 
HETATM   15  C   UNK N   1       6.770  -0.118   0.089  0.00  0.00     0.069 A 
HETATM   16  C   UNK N   1       5.463  -0.638   0.051  0.00  0.00     0.106 A 
HETATM   17  C   UNK N   1       4.351   0.251  -0.158  0.00  0.00     0.135 A 
HETATM   18  C   UNK N   1       4.610   1.625  -0.391  0.00  0.00     0.106 A 
HETATM   19  C   UNK N   1       5.917   2.075  -0.370  0.00  0.00     0.069 A 
BRANCH  16  20
HETATM   20  O   UNK N   1       5.337  -1.982   0.188  0.00  0.00    -0.353 OA
HETATM   21  C   UNK N   1       4.351  -2.739  -0.401  0.00  0.00     0.210 C 
ENDBRANCH  16  20
BRANCH  17  22
HETATM   22  O   UNK N   1       3.062  -0.167  -0.129  0.00  0.00    -0.351 OA
HETATM   23  C   UNK N   1       2.550  -0.966   0.867  0.00  0.00     0.210 C 
ENDBRANCH  17  22
BRANCH  18  24
HETATM   24  O   UNK N   1       3.646   2.560  -0.608  0.00  0.00    -0.353 OA
HETATM   25  C   UNK N   1       2.288   2.348  -0.587  0.00  0.00     0.210 C 
ENDBRANCH  18  24
ENDBRANCH   9  14
BRANCH   1  26
HETATM   26  C   UNK N   1       6.139   7.396   0.429  0.00  0.00     0.051 A 
HETATM   27  C   UNK N   1       7.079   8.321  -0.027  0.00  0.00     0.033 A 
HETATM   28  C   UNK N   1       6.673   9.629  -0.317  0.00  0.00     0.041 A 
HETATM   29  C   UNK N   1       5.332  10.025  -0.176  0.00  0.00     0.090 A 
HETATM   30  C   UNK N   1       4.381   9.065   0.274  0.00  0.00     0.069 A 
HETATM   31  C   UNK N   1       4.808   7.775   0.570  0.00  0.00     0.056 A 
HETATM   32 Cl   UNK N   1       2.660   9.375   0.477  0.00  0.00    -0.081 Cl
BRANCH  29  33
HETATM   33  O   UNK N   1       5.029  11.313  -0.485  0.00  0.00    -0.354 OA
HETATM   34  C   UNK N   1       3.793  11.908  -0.385  0.00  0.00     0.210 C 
ENDBRANCH  29  33
ENDBRANCH   1  26
TORSDOF 6
