REMARK  5 active torsions:
REMARK  status: ('A' for Active; 'I' for Inactive)
REMARK       I    between atoms: C_1  and  N_29 
REMARK    1  A    between atoms: C_6  and  N_7 
REMARK    2  A    between atoms: N_7  and  C_8 
REMARK    3  A    between atoms: N_20  and  S_21 
REMARK    4  A    between atoms: S_21  and  C_24 
REMARK    5  A    between atoms: C_28  and  N_29 
ROOT
HETATM    1  C   UNK N   1       7.133   2.291   0.105  0.00  0.00     0.684 A 
HETATM    2  N   UNK N   1       6.506   2.527  -1.084  0.00  0.00    -0.202 N 
ATOM      3  HN  UNK N   1       5.975   1.776  -1.525  1.00  0.00     0.183 HD
HETATM    4  C   UNK N   1       6.571   3.730  -1.689  0.00  0.00     0.110 A 
HETATM    5  C   UNK N   1       7.257   4.761  -1.076  0.00  0.00     0.066 A 
HETATM    6  C   UNK N   1       7.887   4.521   0.154  0.00  0.00     0.122 A 
HETATM    7  N   UNK N   1       7.828   3.286   0.715  0.00  0.00    -0.176 N 
ATOM      8  HN  UNK N   1       8.306   3.105   1.597  1.00  0.00     0.186 HD
HETATM    9  N   UNK N   1       6.917   1.061   0.756  0.00  0.00    -0.192 N 
HETATM   10  H   UNK N   1       7.640   0.598   1.239  0.00  0.00     0.184 HD
ENDROOT
BRANCH   9  11
HETATM   11  C   UNK N   1       5.613   0.525   0.682  0.00  0.00     0.050 A 
HETATM   12  C   UNK N   1       4.516   1.367   0.914  0.00  0.00     0.030 A 
HETATM   13  C   UNK N   1       3.219   0.916   0.704  0.00  0.00     0.004 A 
HETATM   14  C   UNK N   1       3.005  -0.372   0.221  0.00  0.00     0.025 A 
HETATM   15  C   UNK N   1       4.079  -1.238  -0.031  0.00  0.00     0.081 A 
HETATM   16  C   UNK N   1       5.405  -0.769   0.215  0.00  0.00     0.055 A 
BRANCH  15  17
HETATM   17  S   UNK N   1       3.653  -2.889  -0.724  0.00  0.00     0.256 S 
HETATM   18  O   UNK N   1       4.198  -3.052   0.704  0.00  0.00    -0.201 OA
HETATM   19  O   UNK N   1       4.913  -2.555  -1.540  0.00  0.00    -0.201 OA
BRANCH  17  20
HETATM   20  N   UNK N   1       4.508  -4.429  -0.686  0.00  0.00    -0.324 N 
HETATM   21  H   UNK N   1       3.984  -5.303  -0.664  0.00  0.00     0.169 HD
HETATM   22  H   UNK N   1       5.528  -4.445  -0.686  0.00  0.00     0.169 HD
ENDBRANCH  17  20
ENDBRANCH  15  17
ENDBRANCH   9  11
BRANCH   6  23
HETATM   23  N   UNK N   1       8.598   5.559   0.800  0.00  0.00    -0.338 N 
HETATM   24  H   UNK N   1       9.134   5.356   1.601  0.00  0.00     0.167 HD
BRANCH  23  25
HETATM   25  C   UNK N   1       8.549   6.885   0.309  0.00  0.00     0.092 A 
HETATM   26  C   UNK N   1       7.348   7.606   0.261  0.00  0.00     0.133 A 
HETATM   27  O   UNK N   1       6.134   7.242   0.677  0.00  0.00    -0.321 OA
HETATM   28  C   UNK N   1       7.285   8.840  -0.252  0.00  0.00     0.107 A 
HETATM   29  C   UNK N   1       5.246   8.293   0.422  0.00  0.00     0.352 A 
HETATM   30  O   UNK N   1       6.032   9.285  -0.173  0.00  0.00    -0.323 OA
HETATM   31  C   UNK N   1       8.401   9.487  -0.775  0.00  0.00     0.041 A 
HETATM   32  C   UNK N   1       9.630   8.799  -0.748  0.00  0.00     0.029 A 
HETATM   33  C   UNK N   1       9.707   7.499  -0.202  0.00  0.00     0.063 A 
HETATM   34 Cl   UNK N   1      11.236   6.637  -0.217  0.00  0.00    -0.082 Cl
ENDBRANCH  23  25
ENDBRANCH   6  23
TORSDOF 5
