REMARK  5 active torsions:
REMARK  status: ('A' for Active; 'I' for Inactive)
REMARK       I    between atoms: N_1  and  C_2 
REMARK    1  A    between atoms: N_1  and  C_30 
REMARK    2  A    between atoms: C_7  and  N_8 
REMARK    3  A    between atoms: N_8  and  C_9 
REMARK    4  A    between atoms: S_22  and  N_25 
REMARK    5  A    between atoms: N_25  and  C_26 
ROOT
HETATM    1  N   UNK N   1       5.764   1.609  -0.437  0.00  0.00    -0.192 N 
HETATM    2  C   UNK N   1       5.784   2.996  -0.516  0.00  0.00     0.684 A 
HETATM    3  N   UNK N   1       4.805   3.660  -1.198  0.00  0.00    -0.202 N 
ATOM      4  HN  UNK N   1       4.117   3.128  -1.732  1.00  0.00     0.183 HD
HETATM    5  C   UNK N   1       4.730   5.000  -1.178  0.00  0.00     0.110 A 
HETATM    6  C   UNK N   1       5.657   5.709  -0.450  0.00  0.00     0.066 A 
HETATM    7  C   UNK N   1       6.648   5.027   0.275  0.00  0.00     0.122 A 
HETATM    8  N   UNK N   1       6.694   3.685   0.213  0.00  0.00    -0.176 N 
ATOM      9  HN  UNK N   1       7.421   3.181   0.721  1.00  0.00     0.186 HD
HETATM   10  H   UNK N   1       6.617   1.118  -0.422  0.00  0.00     0.184 HD
ENDROOT
BRANCH   1  11
HETATM   11  C   UNK N   1       4.557   0.886  -0.377  0.00  0.00     0.051 A 
HETATM   12  C   UNK N   1       3.296   1.487  -0.552  0.00  0.00     0.030 A 
HETATM   13  C   UNK N   1       2.131   0.740  -0.368  0.00  0.00     0.005 A 
HETATM   14  C   UNK N   1       2.225  -0.607   0.002  0.00  0.00     0.030 A 
HETATM   15  C   UNK N   1       3.486  -1.187   0.188  0.00  0.00     0.044 A 
HETATM   16  C   UNK N   1       4.631  -0.425   0.002  0.00  0.00     0.060 A 
BRANCH  15  17
HETATM   17  N   UNK N   1       3.618  -2.559   0.512  0.00  0.00    -0.285 N 
HETATM   18  H   UNK N   1       2.812  -3.124   0.545  0.00  0.00     0.178 HD
BRANCH  17  19
HETATM   19  S   UNK N   1       5.195  -3.288   0.860  0.00  0.00     0.227 S 
HETATM   20  C   UNK N   1       6.414  -4.187  -0.132  0.00  0.00     0.186 C 
HETATM   21  O   UNK N   1       4.456  -4.618   0.675  0.00  0.00    -0.206 OA
HETATM   22  O   UNK N   1       5.322  -2.949  -0.636  0.00  0.00    -0.206 OA
ENDBRANCH  17  19
ENDBRANCH  15  17
ENDBRANCH   1  11
BRANCH   7  23
HETATM   23  N   UNK N   1       7.669   5.736   0.958  0.00  0.00    -0.338 N 
HETATM   24  H   UNK N   1       8.173   5.301   1.683  0.00  0.00     0.167 HD
BRANCH  23  25
HETATM   25  C   UNK N   1       7.956   7.068   0.591  0.00  0.00     0.092 A 
HETATM   26  C   UNK N   1       6.956   8.050   0.515  0.00  0.00     0.133 A 
HETATM   27  O   UNK N   1       5.678   7.979   0.898  0.00  0.00    -0.321 OA
HETATM   28  C   UNK N   1       7.180   9.242  -0.035  0.00  0.00     0.107 A 
HETATM   29  C   UNK N   1       5.041   9.170   0.548  0.00  0.00     0.352 A 
HETATM   30  O   UNK N   1       6.046   9.943  -0.041  0.00  0.00    -0.323 OA
HETATM   31  C   UNK N   1       8.426   9.607  -0.536  0.00  0.00     0.041 A 
HETATM   32  C   UNK N   1       9.477   8.673  -0.431  0.00  0.00     0.029 A 
HETATM   33  C   UNK N   1       9.243   7.401   0.131  0.00  0.00     0.063 A 
HETATM   34 Cl   UNK N   1      10.543   6.217   0.176  0.00  0.00    -0.082 Cl
ENDBRANCH  23  25
ENDBRANCH   7  23
TORSDOF 5
