REMARK  4 active torsions:
REMARK  status: ('A' for Active; 'I' for Inactive)
REMARK       I    between atoms: N_1  and  C_2 
REMARK    1  A    between atoms: N_1  and  C_28 
REMARK    2  A    between atoms: C_7  and  N_8 
REMARK    3  A    between atoms: N_8  and  C_9 
REMARK       I    between atoms: N_21  and  C_22 
REMARK    4  A    between atoms: C_22  and  C_24 
ROOT
HETATM    1  N   UNK N   1       5.916   0.817   0.696  0.00  0.00    -0.192 N 
HETATM    2  C   UNK N   1       6.024   2.110   0.128  0.00  0.00     0.684 A 
HETATM    3  N   UNK N   1       5.162   2.484  -0.859  0.00  0.00    -0.202 N 
ATOM      4  HN  UNK N   1       4.433   1.836  -1.157  1.00  0.00     0.183 HD
HETATM    5  C   UNK N   1       5.253   3.695  -1.451  0.00  0.00     0.110 A 
HETATM    6  C   UNK N   1       6.232   4.583  -1.041  0.00  0.00     0.066 A 
HETATM    7  C   UNK N   1       7.100   4.211  -0.009  0.00  0.00     0.122 A 
HETATM    8  N   UNK N   1       6.997   2.969   0.538  0.00  0.00    -0.176 N 
ATOM      9  HN  UNK N   1       7.655   2.679   1.262  1.00  0.00     0.186 HD
HETATM   10  H   UNK N   1       6.683   0.419   1.168  0.00  0.00     0.184 HD
ENDROOT
BRANCH   1  11
HETATM   11  C   UNK N   1       4.701   0.098   0.581  0.00  0.00     0.050 A 
HETATM   12  C   UNK N   1       3.477   0.753   0.792  0.00  0.00     0.030 A 
HETATM   13  C   UNK N   1       2.274   0.081   0.592  0.00  0.00     0.003 A 
HETATM   14  C   UNK N   1       2.284  -1.240   0.146  0.00  0.00     0.017 A 
HETATM   15  C   UNK N   1       3.499  -1.905  -0.077  0.00  0.00     0.034 A 
HETATM   16  C   UNK N   1       4.710  -1.232   0.155  0.00  0.00     0.047 A 
BRANCH  15  17
HETATM   17  C   UNK N   1       3.497  -3.285  -0.600  0.00  0.00     0.249 C 
HETATM   18  N   UNK N   1       4.660  -3.930  -0.827  0.00  0.00    -0.366 N 
HETATM   19  H   UNK N   1       4.676  -4.901  -0.993  0.00  0.00     0.159 HD
HETATM   20  H   UNK N   1       5.504  -3.424  -0.827  0.00  0.00     0.159 HD
HETATM   21  O   UNK N   1       2.441  -3.843  -0.855  0.00  0.00    -0.268 OA
ENDBRANCH  15  17
ENDBRANCH   1  11
BRANCH   7  22
HETATM   22  N   UNK N   1       8.124   5.091   0.432  0.00  0.00    -0.338 N 
HETATM   23  H   UNK N   1       8.844   4.710   0.984  0.00  0.00     0.167 HD
BRANCH  22  24
HETATM   24  C   UNK N   1       8.191   6.486   0.136  0.00  0.00     0.092 A 
HETATM   25  C   UNK N   1       7.047   7.298   0.000  0.00  0.00     0.133 A 
HETATM   26  O   UNK N   1       5.759   6.977   0.139  0.00  0.00    -0.321 OA
HETATM   27  C   UNK N   1       7.135   8.603  -0.293  0.00  0.00     0.107 A 
HETATM   28  C   UNK N   1       4.983   8.116  -0.093  0.00  0.00     0.352 A 
HETATM   29  O   UNK N   1       5.911   9.124  -0.364  0.00  0.00    -0.323 OA
HETATM   30  C   UNK N   1       8.352   9.248  -0.476  0.00  0.00     0.041 A 
HETATM   31  C   UNK N   1       9.524   8.486  -0.330  0.00  0.00     0.029 A 
HETATM   32  C   UNK N   1       9.448   7.110  -0.018  0.00  0.00     0.063 A 
HETATM   33 Cl   UNK N   1      10.933   6.188   0.148  0.00  0.00    -0.082 Cl
ENDBRANCH  22  24
ENDBRANCH   7  22
TORSDOF 4
