REMARK  4 active torsions:
REMARK  status: ('A' for Active; 'I' for Inactive)
REMARK    1  A    between atoms: C_9  and  C_10 
REMARK    2  A    between atoms: C_10  and  C_11 
REMARK    3  A    between atoms: C_11  and  O_12 
REMARK    4  A    between atoms: C_18  and  C_19 
ROOT
HETATM    1  O   UNK N   1       0.572  -3.908   0.309  0.00  0.00    -0.267 OA
HETATM    2  C   UNK N   1       0.918  -2.747   0.193  0.00  0.00     0.260 A 
HETATM    3  N   UNK N   1       2.207  -2.377   0.100  0.00  0.00    -0.289 N 
HETATM    4  C   UNK N   1       2.199  -1.022  -0.021  0.00  0.00     0.260 A 
HETATM    5  O   UNK N   1       3.224  -0.417  -0.183  0.00  0.00    -0.267 OA
HETATM    6  C   UNK N   1       0.894  -0.496   0.010  0.00  0.00     0.060 A 
HETATM    7  C   UNK N   1       0.086  -1.653   0.124  0.00  0.00     0.062 A 
HETATM    8  C   UNK N   1      -1.304  -1.582   0.141  0.00  0.00     0.015 A 
HETATM    9  C   UNK N   1      -2.340  -2.512   0.253  0.00  0.00    -0.027 A 
HETATM   10  C   UNK N   1      -3.528  -1.793   0.199  0.00  0.00     0.099 A 
HETATM   11  N   UNK N   1      -3.234  -0.484   0.056  0.00  0.00    -0.360 N 
HETATM   12  C   UNK N   1      -4.205   0.594  -0.034  0.00  0.00     0.155 C 
HETATM   13  C   UNK N   1      -1.896  -0.367   0.034  0.00  0.00     0.046 A 
HETATM   14  C   UNK N   1      -1.163   0.807  -0.055  0.00  0.00     0.044 A 
HETATM   15  C   UNK N   1       0.268   0.837  -0.052  0.00  0.00    -0.005 A 
HETATM   16  H   UNK N   1       2.996  -2.966   0.117  0.00  0.00     0.172 HD
ENDROOT
BRANCH  15  17
HETATM   17  C   UNK N   1       0.812   2.304  -0.084  0.00  0.00    -0.003 A 
HETATM   18  C   UNK N   1      -0.222   3.277  -0.211  0.00  0.00     0.014 A 
HETATM   19  C   UNK N   1      -0.011   4.650  -0.219  0.00  0.00     0.001 A 
HETATM   20  C   UNK N   1       1.270   5.142  -0.106  0.00  0.00     0.002 A 
HETATM   21  C   UNK N   1       2.326   4.257   0.024  0.00  0.00     0.024 A 
HETATM   22  C   UNK N   1       2.143   2.864   0.045  0.00  0.00     0.045 A 
HETATM   23 Cl   UNK N   1       3.648   2.055   0.301  0.00  0.00    -0.083 Cl
ENDBRANCH  15  17
BRANCH   9  24
HETATM   24  C   UNK N   1      -2.275  -3.988   0.465  0.00  0.00     0.067 C 
BRANCH  24  25
HETATM   25  C   UNK N   1      -1.911  -4.733  -0.802  0.00  0.00     0.168 C 
BRANCH  25  26
HETATM   26  O   UNK N   1      -1.684  -6.073  -0.488  0.00  0.00    -0.401 OA
HETATM   27  H   UNK N   1      -2.413  -6.675  -0.269  0.00  0.00     0.209 HD
ENDBRANCH  25  26
ENDBRANCH  24  25
ENDBRANCH   9  24
TORSDOF 4
