REMARK  7 active torsions:
REMARK  status: ('A' for Active; 'I' for Inactive)
REMARK    1  A    between atoms: C_3  and  O_16 
REMARK    2  A    between atoms: C_7  and  C_6 
REMARK    3  A    between atoms: C_7  and  O_8 
REMARK    4  A    between atoms: C_9  and  C_7 
REMARK    5  A    between atoms: C_17  and  O_16 
REMARK    6  A    between atoms: C_17  and  C_18 
REMARK    7  A    between atoms: N_19  and  C_18 
ROOT
HETATM    1  C   UNK N   1       0.283   0.766  -0.775  0.00  0.00     0.013 A 
HETATM    2  C   UNK N   1       0.300  -0.615  -0.582  0.00  0.00     0.037 A 
HETATM    3  C   UNK N   1       0.844  -1.165   0.592  0.00  0.00     0.068 A 
HETATM    4  C   UNK N   1       1.373  -0.311   1.564  0.00  0.00     0.037 A 
HETATM    5  C   UNK N   1       1.378   1.071   1.362  0.00  0.00     0.013 A 
HETATM    6  C   UNK N   1       0.829   1.616   0.192  0.00  0.00    -0.025 A 
ENDROOT
BRANCH   6   7
HETATM    7  C   UNK N   1       0.884   3.098  -0.052  0.00  0.00     0.184 C 
BRANCH   7   8
HETATM    8  O   UNK N   1       0.255   3.770   1.001  0.00  0.00    -0.386 OA
HETATM    9  H   UNK N   1       0.441   4.381   1.732  0.00  0.00     0.210 HD
ENDBRANCH   7   8
BRANCH   7  10
HETATM   10  C   UNK N   1       2.326   3.515  -0.198  0.00  0.00    -0.023 A 
HETATM   11  C   UNK N   1       2.921   4.420   0.689  0.00  0.00     0.027 A 
HETATM   12  C   UNK N   1       4.268   4.753   0.529  0.00  0.00     0.088 A 
HETATM   13  N   UNK N   1       4.994   4.204  -0.483  0.00  0.00    -0.375 N 
HETATM   14  C   UNK N   1       4.437   3.328  -1.361  0.00  0.00     0.088 A 
ATOM     15  HN  UNK N   1       5.978   4.455  -0.584  1.00  0.00     0.164 HD
HETATM   16  C   UNK N   1       3.096   2.969  -1.234  0.00  0.00     0.027 A 
ENDBRANCH   7  10
ENDBRANCH   6   7
BRANCH   3  17
HETATM   17  O   UNK N   1       0.867  -2.504   0.814  0.00  0.00    -0.349 OA
BRANCH  17  18
HETATM   18  C   UNK N   1       0.588  -3.482  -0.127  0.00  0.00     0.206 C 
BRANCH  18  19
HETATM   19  C   UNK N   1      -0.799  -3.348  -0.751  0.00  0.00     0.299 C 
BRANCH  19  20
HETATM   20  N   UNK N   1      -1.818  -3.134   0.263  0.00  0.00     0.090 N 
HETATM   21  C   UNK N   1      -2.547  -4.383   0.423  0.00  0.00     0.272 C 
HETATM   22  C   UNK N   1      -4.025  -4.054   0.518  0.00  0.00     0.032 C 
HETATM   23  C   UNK N   1      -4.133  -2.579   0.225  0.00  0.00     0.032 C 
HETATM   24  C   UNK N   1      -2.773  -2.195  -0.301  0.00  0.00     0.272 C 
ENDBRANCH  19  20
ENDBRANCH  18  19
ENDBRANCH  17  18
ENDBRANCH   3  17
TORSDOF 7
