REMARK  6 active torsions:
REMARK  status: ('A' for Active; 'I' for Inactive)
REMARK    1  A    between atoms: C_5  and  C_6 
REMARK    2  A    between atoms: C_6  and  O_7 
REMARK    3  A    between atoms: O_7  and  C_8 
REMARK    4  A    between atoms: C_11  and  N_14 
REMARK    5  A    between atoms: N_14  and  C_15 
REMARK    6  A    between atoms: C_15  and  C_16 
ROOT
HETATM    1  C   UNK N   1       0.345   1.693   0.256  0.00  0.00     0.069 A 
HETATM    2  C   UNK N   1      -1.049   1.787   0.126  0.00  0.00     0.039 A 
HETATM    3  C   UNK N   1      -1.824   0.626  -0.029  0.00  0.00     0.032 A 
HETATM    4  C   UNK N   1      -1.209  -0.633  -0.059  0.00  0.00     0.028 A 
HETATM    5  C   UNK N   1       0.185  -0.720   0.055  0.00  0.00     0.032 A 
HETATM    6  C   UNK N   1       0.952   0.428   0.210  0.00  0.00     0.039 A 
ENDROOT
BRANCH   4   7
HETATM    7  N   UNK N   1      -1.989  -1.812  -0.173  0.00  0.00    -0.386 N 
HETATM    8  H   UNK N   1      -2.968  -1.748  -0.248  0.00  0.00     0.160 HD
BRANCH   7   9
HETATM    9  C   UNK N   1      -1.349  -3.111  -0.182  0.00  0.00     0.158 C 
BRANCH   9  10
HETATM   10  C   UNK N   1      -2.304  -4.258  -0.103  0.00  0.00    -0.041 A 
HETATM   11  C   UNK N   1      -1.778  -5.554  -0.069  0.00  0.00     0.009 A 
HETATM   12  C   UNK N   1      -2.627  -6.660   0.013  0.00  0.00     0.001 A 
HETATM   13  C   UNK N   1      -4.011  -6.474   0.060  0.00  0.00     0.000 A 
HETATM   14  C   UNK N   1      -4.545  -5.181   0.027  0.00  0.00     0.001 A 
HETATM   15  C   UNK N   1      -3.694  -4.074  -0.054  0.00  0.00     0.009 A 
ENDBRANCH   9  10
ENDBRANCH   7   9
ENDBRANCH   4   7
BRANCH   1  16
HETATM   16  O   UNK N   1       1.087   2.811   0.451  0.00  0.00    -0.349 OA
BRANCH  16  17
HETATM   17  C   UNK N   1       2.448   2.735   0.679  0.00  0.00     0.200 C 
BRANCH  17  18
HETATM   18  C   UNK N   1       3.228   3.744  -0.141  0.00  0.00     0.101 C 
HETATM   19  N   UNK N   1       3.180   5.056   0.486  0.00  0.00    -0.415 N 
HETATM   20  C   UNK N   1       4.471   5.682   0.201  0.00  0.00     0.114 C 
HETATM   21  H   UNK N   1       2.406   5.457   1.015  0.00  0.00     0.153 HD
HETATM   22  C   UNK N   1       5.391   4.637  -0.405  0.00  0.00     0.021 C 
HETATM   23  C   UNK N   1       4.678   3.338  -0.163  0.00  0.00     0.028 C 
ENDBRANCH  17  18
ENDBRANCH  16  17
ENDBRANCH   1  16
TORSDOF 6
