REMARK  6 active torsions:
REMARK  status: ('A' for Active; 'I' for Inactive)
REMARK    1  A    between atoms: C_6  and  C_33 
REMARK    2  A    between atoms: C_11  and  N_32 
REMARK    3  A    between atoms: C_20  and  S_28 
REMARK    4  A    between atoms: N_22  and  C_33 
REMARK    5  A    between atoms: C_24  and  N_27 
REMARK    6  A    between atoms: N_27  and  S_28 
ROOT
HETATM    1  N   UNK N   1      -2.352   0.693  -0.714  0.00  0.00    -0.346 N 
HETATM    2  C   UNK N   1      -2.672   1.658   0.151  0.00  0.00     0.243 C 
HETATM    3  C   UNK N   1      -1.615   1.866   1.182  0.00  0.00     0.186 C 
HETATM    4  C   UNK N   1      -0.634   0.724   0.880  0.00  0.00     0.055 C 
HETATM    5  C   UNK N   1      -1.015   0.212  -0.513  0.00  0.00     0.129 C 
HETATM    6  O   UNK N   1      -3.756   2.217   0.160  0.00  0.00    -0.271 OA
ENDROOT
BRANCH   1   7
HETATM    7  C   UNK N   1      -3.315   0.026  -1.581  0.00  0.00     0.164 C 
BRANCH   7   8
HETATM    8  C   UNK N   1      -3.433  -1.386  -1.078  0.00  0.00    -0.039 A 
HETATM    9  C   UNK N   1      -4.551  -1.798  -0.339  0.00  0.00     0.010 A 
HETATM   10  C   UNK N   1      -4.514  -3.015   0.361  0.00  0.00     0.013 A 
HETATM   11  C   UNK N   1      -3.344  -3.789   0.360  0.00  0.00    -0.021 A 
HETATM   12  C   UNK N   1      -2.231  -3.376  -0.395  0.00  0.00     0.018 A 
HETATM   13  C   UNK N   1      -3.256  -4.951   1.126  0.00  0.00     0.029 A 
HETATM   14  C   UNK N   1      -2.296  -2.195  -1.121  0.00  0.00     0.025 A 
HETATM   15  C   UNK N   1      -1.050  -4.130  -0.361  0.00  0.00     0.109 A 
HETATM   16  N   UNK N   1      -0.991  -5.253   0.404  0.00  0.00    -0.352 N 
HETATM   17  C   UNK N   1      -2.058  -5.674   1.138  0.00  0.00     0.090 A 
ATOM     18  HN  UNK N   1      -0.125  -5.792   0.430  1.00  0.00     0.166 HD
BRANCH  15  19
HETATM   19  N   UNK N   1       0.090  -3.717  -1.085  0.00  0.00    -0.385 N 
HETATM   20  H   UNK N   1       0.737  -4.261  -1.590  0.00  0.00     0.157 HD
HETATM   21  H   UNK N   1       0.263  -2.748  -1.085  0.00  0.00     0.157 HD
ENDBRANCH  15  19
ENDBRANCH   7   8
ENDBRANCH   1   7
BRANCH   3  22
HETATM   22  N   UNK N   1      -0.983   3.187   1.150  0.00  0.00    -0.301 N 
HETATM   23  H   UNK N   1      -1.298   3.956   1.741  0.00  0.00     0.173 HD
BRANCH  22  24
HETATM   24  S   UNK N   1       0.379   3.361   0.006  0.00  0.00     0.266 S 
HETATM   25  O   UNK N   1       1.053   3.859   1.294  0.00  0.00    -0.200 OA
HETATM   26  O   UNK N   1       0.298   4.831  -0.425  0.00  0.00    -0.200 OA
BRANCH  24  27
HETATM   27  C   UNK N   1       2.097   2.800  -0.184  0.00  0.00     0.123 A 
HETATM   28  C   UNK N   1       2.811   1.796   0.517  0.00  0.00     0.063 A 
HETATM   29  C   UNK N   1       4.187   1.761   0.121  0.00  0.00     0.051 A 
HETATM   30  C   UNK N   1       4.529   2.694  -0.848  0.00  0.00     0.033 A 
HETATM   31  N   UNK N   1       5.133   0.928   0.631  0.00  0.00    -0.365 N 
HETATM   32  C   UNK N   1       5.825   2.817  -1.329  0.00  0.00     0.022 A 
HETATM   33  S   UNK N   1       3.173   3.548  -1.219  0.00  0.00    -0.074 SA
HETATM   34  C   UNK N   1       6.794   1.955  -0.797  0.00  0.00     0.018 A 
HETATM   35  C   UNK N   1       6.427   1.011   0.188  0.00  0.00     0.088 A 
ATOM     36  HN  UNK N   1       4.880   0.242   1.342  1.00  0.00     0.165 HD
ENDBRANCH  24  27
ENDBRANCH  22  24
ENDBRANCH   3  22
TORSDOF 6
