REMARK  5 active torsions:
REMARK  status: ('A' for Active; 'I' for Inactive)
REMARK    1  A    between atoms: C_3  and  N_5 
REMARK    2  A    between atoms: C_3  and  S_14 
REMARK       I    between atoms: N_4  and  C_11 
REMARK       I    between atoms: N_5  and  C_11 
REMARK    3  A    between atoms: C_6  and  C_15 
REMARK    4  A    between atoms: C_9  and  C_17 
REMARK    5  A    between atoms: S_14  and  C_15 
ROOT
HETATM    1  C   UNK N   1      -1.277   0.754  -0.485  0.00  0.00     0.153 C 
HETATM    2  N   UNK N   1      -0.463   1.056  -1.426  0.00  0.00    -0.379 N 
ATOM      3  HN  UNK N   1      -0.292   2.062  -1.426  1.00  0.00     0.158 HD
HETATM    4  H   UNK N   1       0.051   0.630  -2.149  0.00  0.00     0.158 HD
ENDROOT
BRANCH   1   5
HETATM    5  N   UNK N   1      -2.320  -0.175  -0.747  0.00  0.00    -0.172 N 
HETATM    6  C   UNK N   1      -3.439  -0.391   0.101  0.00  0.00     0.671 C 
HETATM    7  N   UNK N   1      -4.191  -1.405  -0.098  0.00  0.00    -0.235 N 
HETATM    8  N   UNK N   1      -3.859   0.616   1.003  0.00  0.00    -0.235 N 
HETATM    9  H   UNK N   1      -5.157  -1.293  -0.252  0.00  0.00     0.174 HD
ATOM     10  HN  UNK N   1      -3.786  -2.341  -0.098  1.00  0.00     0.174 HD
HETATM   11  H   UNK N   1      -3.398   1.219   1.630  0.00  0.00     0.174 HD
HETATM   12  H   UNK N   1      -4.835   0.742   1.003  0.00  0.00     0.174 HD
HETATM   13  H   UNK N   1      -2.263  -0.707  -1.573  0.00  0.00     0.186 HD
ENDBRANCH   1   5
BRANCH   1  14
HETATM   14  S   UNK N   1      -0.875   1.267   1.195  0.00  0.00    -0.089 SA
BRANCH  14  15
HETATM   15  C   UNK N   1      -0.174  -0.353   1.680  0.00  0.00     0.121 C 
BRANCH  15  16
HETATM   16  C   UNK N   1       1.031  -0.722   0.875  0.00  0.00    -0.048 A 
HETATM   17  C   UNK N   1       2.148   0.122   0.826  0.00  0.00     0.024 A 
HETATM   18  C   UNK N   1       3.267  -0.230   0.055  0.00  0.00     0.048 A 
HETATM   19  C   UNK N   1       3.262  -1.438  -0.656  0.00  0.00     0.016 A 
HETATM   20  C   UNK N   1       2.150  -2.283  -0.603  0.00  0.00     0.001 A 
HETATM   21  C   UNK N   1       1.036  -1.923   0.159  0.00  0.00     0.008 A 
BRANCH  18  22
HETATM   22  C   UNK N   1       4.463   0.673  -0.023  0.00  0.00     0.417 C 
HETATM   23  F   UNK N   1       4.680   1.037  -1.340  0.00  0.00    -0.166 F 
HETATM   24  F   UNK N   1       5.579   0.009   0.452  0.00  0.00    -0.166 F 
HETATM   25  F   UNK N   1       4.273   1.820   0.729  0.00  0.00    -0.166 F 
ENDBRANCH  18  22
ENDBRANCH  15  16
ENDBRANCH  14  15
ENDBRANCH   1  14
TORSDOF 5
