REMARK  7 active torsions:
REMARK  status: ('A' for Active; 'I' for Inactive)
REMARK    1  A    between atoms: C_2  and  C_23 
REMARK    2  A    between atoms: C_5  and  C_6 
REMARK    3  A    between atoms: C_12  and  C_17 
REMARK    4  A    between atoms: O_15  and  C_16 
REMARK    5  A    between atoms: C_16  and  C_17 
REMARK    6  A    between atoms: C_17  and  N_18 
REMARK       I    between atoms: N_18  and  C_19 
REMARK    7  A    between atoms: C_19  and  C_21 
ROOT
HETATM    1  C   UNK N   1       1.962  -0.140   0.754  0.00  0.00     0.102 A 
HETATM    2  C   UNK N   1       3.697   0.882  -0.006  0.00  0.00     0.101 A 
HETATM    3  C   UNK N   1       3.839  -0.416  -0.335  0.00  0.00     0.050 A 
HETATM    4  C   UNK N   1       2.790  -1.077   0.152  0.00  0.00     0.011 A 
HETATM    5  N   UNK N   1       2.527   1.087   0.630  0.00  0.00    -0.361 N 
HETATM    6  H   UNK N   1       2.160   1.946   0.939  0.00  0.00     0.165 HD
ENDROOT
BRANCH   2   7
HETATM    7  C   UNK N   1       4.719   1.883  -0.350  0.00  0.00     0.268 C 
HETATM    8  N   UNK N   1       6.063   1.585  -0.365  0.00  0.00    -0.345 N 
HETATM    9  H   UNK N   1       6.631   2.157  -0.930  0.00  0.00     0.163 HD
HETATM   10  O   UNK N   1       4.358   3.016  -0.633  0.00  0.00    -0.266 OA
BRANCH   8  11
HETATM   11  C   UNK N   1       6.750   0.503   0.373  0.00  0.00     0.141 C 
BRANCH  11  12
HETATM   12  C   UNK N   1       8.246   0.568   0.169  0.00  0.00    -0.032 A 
HETATM   13  C   UNK N   1       8.932   1.777   0.305  0.00  0.00     0.036 A 
HETATM   14  C   UNK N   1      10.322   1.811   0.144  0.00  0.00     0.073 A 
HETATM   15  C   UNK N   1      11.032   0.631  -0.127  0.00  0.00     0.138 A 
HETATM   16 Cl   UNK N   1      11.165   3.337   0.279  0.00  0.00    -0.081 Cl
HETATM   17  C   UNK N   1      10.356  -0.575  -0.254  0.00  0.00     0.044 A 
HETATM   18  F   UNK N   1      12.376   0.648  -0.271  0.00  0.00    -0.204 F 
HETATM   19  C   UNK N   1       8.981  -0.604  -0.112  0.00  0.00     0.012 A 
ENDBRANCH  11  12
BRANCH  11  20
HETATM   20  C   UNK N   1       6.320  -0.943   0.087  0.00  0.00     0.194 C 
BRANCH  20  21
HETATM   21  O   UNK N   1       6.413  -1.241  -1.276  0.00  0.00    -0.399 OA
HETATM   22  H   UNK N   1       6.266  -1.400  -2.222  0.00  0.00     0.209 HD
ENDBRANCH  20  21
ENDBRANCH  11  20
ENDBRANCH   8  11
ENDBRANCH   2   7
BRANCH   4  23
HETATM   23  C   UNK N   1       2.743  -2.548   0.075  0.00  0.00     0.072 A 
HETATM   24  N   UNK N   1       3.862  -3.290   0.006  0.00  0.00    -0.299 N 
HETATM   25  N   UNK N   1       3.517  -4.574  -0.002  0.00  0.00    -0.310 N 
ATOM     26  HN  UNK N   1       4.815  -2.929  -0.033  1.00  0.00     0.187 HD
HETATM   27  C   UNK N   1       2.174  -4.664   0.040  0.00  0.00     0.121 A 
HETATM   28  H   UNK N   1       4.141  -5.335  -0.033  0.00  0.00     0.186 HD
HETATM   29  C   UNK N   1       1.653  -3.380   0.075  0.00  0.00     0.020 A 
BRANCH  29  30
HETATM   30  C   UNK N   1       0.236  -3.010  -0.004  0.00  0.00    -0.021 A 
HETATM   31  C   UNK N   1      -0.759  -3.979   0.138  0.00  0.00     0.036 A 
HETATM   32  C   UNK N   1      -2.103  -3.621   0.002  0.00  0.00     0.034 A 
HETATM   33  C   UNK N   1      -2.456  -2.302  -0.298  0.00  0.00     0.024 A 
HETATM   34 Cl   UNK N   1      -3.346  -4.827   0.210  0.00  0.00    -0.084 Cl
HETATM   35  C   UNK N   1      -1.466  -1.337  -0.462  0.00  0.00     0.003 A 
HETATM   36  C   UNK N   1      -0.132  -1.695  -0.318  0.00  0.00     0.012 A 
ENDBRANCH  29  30
ENDBRANCH   4  23
TORSDOF 7
