REMARK  6 active torsions:
REMARK  status: ('A' for Active; 'I' for Inactive)
REMARK    1  A    between atoms: C_2  and  O_3 
REMARK    2  A    between atoms: C_2  and  C_4 
REMARK    3  A    between atoms: C_4  and  C_5 
REMARK    4  A    between atoms: C_5  and  N_6 
REMARK    5  A    between atoms: C_11  and  O_12 
REMARK    6  A    between atoms: C_23  and  C_25 
ROOT
HETATM    1  N   UNK N   1       1.268  -2.892  -0.569  0.00  0.00    -0.345 N 
HETATM    2  C   UNK N   1      -0.051  -3.140  -0.421  0.00  0.00     0.048 A 
HETATM    3  C   UNK N   1       1.881  -4.099  -0.550  0.00  0.00     0.046 A 
HETATM    4  C   UNK N   1       3.245  -4.368  -0.651  0.00  0.00     0.033 A 
HETATM    5  C   UNK N   1       3.655  -5.713  -0.577  0.00  0.00     0.039 A 
HETATM    6  C   UNK N   1       2.705  -6.747  -0.408  0.00  0.00     0.066 A 
HETATM    7  C   UNK N   1       1.334  -6.445  -0.317  0.00  0.00     0.051 A 
HETATM    8  C   UNK N   1       0.954  -5.108  -0.392  0.00  0.00     0.007 A 
HETATM    9  C   UNK N   1      -0.280  -4.494  -0.310  0.00  0.00     0.020 A 
HETATM   10  C   UNK N   1      -1.576  -4.957  -0.130  0.00  0.00     0.062 A 
HETATM   11  C   UNK N   1      -2.084  -6.229   0.018  0.00  0.00     0.260 A 
HETATM   12  O   UNK N   1      -1.439  -7.261   0.003  0.00  0.00    -0.267 OA
HETATM   13  C   UNK N   1      -2.642  -4.068  -0.053  0.00  0.00     0.060 A 
HETATM   14  C   UNK N   1      -3.768  -4.873   0.154  0.00  0.00     0.260 A 
HETATM   15  O   UNK N   1      -4.913  -4.495   0.303  0.00  0.00    -0.267 OA
HETATM   16  N   UNK N   1      -3.429  -6.193   0.194  0.00  0.00    -0.289 N 
HETATM   17  C   UNK N   1      -2.428  -2.646  -0.166  0.00  0.00    -0.007 A 
HETATM   18  C   UNK N   1      -1.089  -2.204  -0.352  0.00  0.00     0.044 A 
HETATM   19  H   UNK N   1      -4.034  -6.960   0.324  0.00  0.00     0.172 HD
ENDROOT
BRANCH   1  20
HETATM   20  C   UNK N   1       1.892  -1.581  -0.691  0.00  0.00     0.140 C 
BRANCH  20  21
HETATM   21  C   UNK N   1       2.696  -1.284   0.562  0.00  0.00     0.130 C 
BRANCH  21  22
HETATM   22  C   UNK N   1       3.475  -0.025   0.402  0.00  0.00     0.140 C 
HETATM   23  O   UNK N   1       4.693  -0.061   0.434  0.00  0.00    -0.650 OA
BRANCH  22  24
HETATM   24  O   UNK N   1       2.841   1.153   0.241  0.00  0.00    -0.776 OA
HETATM   25  H   UNK N   1       3.330   1.944   0.129  0.00  0.00     0.167 HD
ENDBRANCH  22  24
ENDBRANCH  21  22
ENDBRANCH  20  21
ENDBRANCH   1  20
BRANCH  17  26
HETATM   26  C   UNK N   1      -3.492  -1.593  -0.098  0.00  0.00    -0.025 A 
HETATM   27  C   UNK N   1      -4.857  -1.904  -0.084  0.00  0.00     0.012 A 
HETATM   28  C   UNK N   1      -5.826  -0.899  -0.026  0.00  0.00     0.001 A 
HETATM   29  C   UNK N   1      -5.440   0.440   0.023  0.00  0.00     0.000 A 
HETATM   30  C   UNK N   1      -4.086   0.773   0.008  0.00  0.00     0.001 A 
HETATM   31  C   UNK N   1      -3.120  -0.235  -0.058  0.00  0.00     0.012 A 
ENDBRANCH  17  26
BRANCH   6  32
HETATM   32  O   UNK N   1       3.113  -8.023  -0.327  0.00  0.00    -0.361 OA
HETATM   33  H   UNK N   1       2.484  -8.715  -0.271  0.00  0.00     0.217 HD
ENDBRANCH   6  32
TORSDOF 6
