REMARK  1 active torsions:
REMARK  status: ('A' for Active; 'I' for Inactive)
REMARK    1  A    between atoms: N_13  and  C_14 
ROOT
HETATM    1  C   UNK N   1      -0.017   1.014   0.018  0.00  0.00     0.044 A 
HETATM    2  C   UNK N   1      -0.080  -0.354  -0.040  0.00  0.00     0.001 A 
HETATM    3  C   UNK N   1      -1.302  -1.026  -0.055  0.00  0.00     0.044 A 
HETATM    4  C   UNK N   1       1.638  -2.251  -0.180  0.00  0.00     0.042 C 
HETATM    5  C   UNK N   1       2.020   0.330  -0.035  0.00  0.00     0.069 A 
HETATM    6  C   UNK N   1       1.217  -0.814  -0.082  0.00  0.00    -0.017 A 
HETATM    7  C   UNK N   1       3.488   0.396  -0.029  0.00  0.00     0.083 A 
HETATM    8  C   UNK N   1       4.391  -0.646  -0.097  0.00  0.00    -0.004 A 
HETATM    9  C   UNK N   1       4.117  -2.112  -0.234  0.00  0.00     0.043 C 
HETATM   10  C   UNK N   1       5.627  -0.042  -0.024  0.00  0.00     0.030 A 
HETATM   11  O   UNK N   1      -5.823   0.232   0.001  0.00  0.00    -0.272 OA
HETATM   12  C   UNK N   1      -4.602   0.393  -0.003  0.00  0.00     0.237 A 
HETATM   13  N   UNK N   1      -3.782  -0.675  -0.021  0.00  0.00    -0.317 N 
HETATM   14  C   UNK N   1      -3.866   1.792   0.014  0.00  0.00     0.063 A 
HETATM   15  C   UNK N   1      -5.144   2.632   0.017  0.00  0.00     0.030 C 
HETATM   16  C   UNK N   1      -3.396   3.246   0.031  0.00  0.00     0.030 C 
HETATM   17  C   UNK N   1      -2.427   1.160   0.016  0.00  0.00    -0.012 A 
HETATM   18  C   UNK N   1      -1.159   1.809   0.044  0.00  0.00     0.041 A 
HETATM   19  C   UNK N   1      -2.467  -0.231  -0.019  0.00  0.00     0.045 A 
HETATM   20  N   UNK N   1       1.254   1.445   0.028  0.00  0.00    -0.353 N 
HETATM   21  C   UNK N   1       2.916  -2.546   0.592  0.00  0.00     0.009 C 
HETATM   22  C   UNK N   1       6.954  -0.713  -0.060  0.00  0.00     0.070 C 
HETATM   23  N   UNK N   1       5.465   1.290   0.078  0.00  0.00    -0.304 N 
ATOM     24  HN  UNK N   1       6.214   1.979   0.145  1.00  0.00     0.186 HD
HETATM   25  N   UNK N   1       4.166   1.557   0.076  0.00  0.00    -0.298 N 
HETATM   26  H   UNK N   1       1.566   2.378   0.073  0.00  0.00     0.166 HD
HETATM   27  H   UNK N   1       3.764   2.453   0.140  0.00  0.00     0.187 HD
ENDROOT
BRANCH  13  28
HETATM   28  C   UNK N   1      -4.284  -2.046  -0.031  0.00  0.00     0.128 C 
HETATM   29  C   UNK N   1      -3.220  -3.130  -0.004  0.00  0.00     0.027 C 
ENDBRANCH  13  28
TORSDOF 1
