REMARK  3 active torsions:
REMARK  status: ('A' for Active; 'I' for Inactive)
REMARK    1  A    between atoms: C_6  and  C_9 
REMARK    2  A    between atoms: N_28  and  C_12 
REMARK    3  A    between atoms: C_13  and  N_28 
ROOT
HETATM    1  C   UNK N   1      -0.988  -0.968   0.123  0.00  0.00     0.134 A 
HETATM    2  N   UNK N   1      -0.908   0.385  -0.008  0.00  0.00    -0.326 N 
ATOM      3  HN  UNK N   1      -1.767   0.935   0.003  1.00  0.00     0.169 HD
HETATM    4  C   UNK N   1       0.286   1.026  -0.152  0.00  0.00     0.119 A 
HETATM    5  C   UNK N   1       1.472   0.248  -0.206  0.00  0.00     0.035 A 
HETATM    6  C   UNK N   1       2.739   0.801  -0.443  0.00  0.00     0.017 A 
HETATM    7  C   UNK N   1       3.876  -0.007  -0.491  0.00  0.00     0.001 A 
HETATM    8  C   UNK N   1       3.758  -1.385  -0.311  0.00  0.00     0.002 A 
HETATM    9  C   UNK N   1       2.502  -1.956  -0.098  0.00  0.00     0.030 A 
HETATM   10  C   UNK N   1       1.362  -1.148  -0.050  0.00  0.00     0.047 A 
HETATM   11  N   UNK N   1       0.145  -1.719   0.112  0.00  0.00    -0.340 N 
ATOM     12  HN  UNK N   1       0.078  -2.730   0.229  1.00  0.00     0.167 HD
ENDROOT
BRANCH   4  13
HETATM   13  N   UNK N   1       0.277   2.444  -0.335  0.00  0.00    -0.342 N 
HETATM   14  H   UNK N   1      -0.550   2.840  -0.694  0.00  0.00     0.167 HD
BRANCH  13  15
HETATM   15  C   UNK N   1       1.346   3.337  -0.049  0.00  0.00     0.036 A 
HETATM   16  C   UNK N   1       1.565   4.429  -0.889  0.00  0.00     0.046 A 
HETATM   17  C   UNK N   1       2.640   5.285  -0.638  0.00  0.00     0.090 A 
HETATM   18  N   UNK N   1       3.458   5.064   0.426  0.00  0.00    -0.375 N 
HETATM   19  C   UNK N   1       3.245   4.026   1.280  0.00  0.00     0.090 A 
ATOM     20  HN  UNK N   1       4.247   5.689   0.588  1.00  0.00     0.164 HD
HETATM   21  C   UNK N   1       2.182   3.146   1.061  0.00  0.00     0.046 A 
ENDBRANCH  13  15
ENDBRANCH   4  13
BRANCH   1  22
HETATM   22  C   UNK N   1      -2.293  -1.645   0.207  0.00  0.00     0.077 A 
HETATM   23  C   UNK N   1      -3.487  -0.912   0.166  0.00  0.00     0.033 A 
HETATM   24  C   UNK N   1      -4.708  -1.588   0.199  0.00  0.00     0.004 A 
HETATM   25  C   UNK N   1      -4.729  -2.982   0.266  0.00  0.00     0.024 A 
HETATM   26  C   UNK N   1      -3.521  -3.682   0.305  0.00  0.00     0.005 A 
HETATM   27  C   UNK N   1      -3.523  -5.166   0.371  0.00  0.00     0.068 C 
HETATM   28  N   UNK N   1      -2.342  -3.006   0.274  0.00  0.00    -0.357 N 
ATOM     29  HN  UNK N   1      -1.468  -3.532   0.301  1.00  0.00     0.166 HD
ENDBRANCH   1  22
TORSDOF 3
