REMARK  5 active torsions:
REMARK  status: ('A' for Active; 'I' for Inactive)
REMARK       I    between atoms: C_1  and  N_16 
REMARK    1  A    between atoms: C_4  and  N_9 
REMARK    2  A    between atoms: N_9  and  C_10 
REMARK    3  A    between atoms: C_11  and  C_24 
REMARK    4  A    between atoms: N_16  and  C_17 
REMARK    5  A    between atoms: C_21  and  O_23 
REMARK       I    between atoms: C_24  and  N_25 
ROOT
HETATM    1  C   UNK N   1       3.786   1.029   0.000  0.00  0.00     0.684 A 
HETATM    2  N   UNK N   1       2.722   0.197  -0.000  0.00  0.00    -0.176 N 
ATOM      3  HN  UNK N   1       1.787   0.604  -0.000  1.00  0.00     0.186 HD
HETATM    4  C   UNK N   1       2.838  -1.142  -0.000  0.00  0.00     0.122 A 
HETATM    5  C   UNK N   1       4.115  -1.713   0.000  0.00  0.00     0.066 A 
HETATM    6  C   UNK N   1       5.221  -0.851   0.000  0.00  0.00     0.110 A 
HETATM    7  N   UNK N   1       5.041   0.502   0.000  0.00  0.00    -0.202 N 
ATOM      8  HN  UNK N   1       5.852   1.121   0.000  1.00  0.00     0.183 HD
HETATM    9  N   UNK N   1       3.588   2.439   0.000  0.00  0.00    -0.192 N 
HETATM   10  H   UNK N   1       4.384   3.018   0.000  0.00  0.00     0.184 HD
ENDROOT
BRANCH   4  11
HETATM   11  N   UNK N   1       1.636  -1.891  -0.000  0.00  0.00    -0.341 N 
HETATM   12  H   UNK N   1       0.816  -1.346  -0.000  0.00  0.00     0.167 HD
BRANCH  11  13
HETATM   13  C   UNK N   1       1.412  -3.288  -0.000  0.00  0.00     0.049 A 
HETATM   14  C   UNK N   1       0.076  -3.770   0.000  0.00  0.00     0.058 A 
HETATM   15  C   UNK N   1      -0.145  -5.155   0.000  0.00  0.00     0.019 A 
HETATM   16  C   UNK N   1       0.925  -6.050  -0.000  0.00  0.00     0.001 A 
HETATM   17  C   UNK N   1       2.235  -5.572  -0.000  0.00  0.00     0.002 A 
HETATM   18  C   UNK N   1       2.479  -4.197  -0.000  0.00  0.00     0.030 A 
BRANCH  14  19
HETATM   19  C   UNK N   1      -1.114  -2.860   0.000  0.00  0.00     0.251 C 
HETATM   20  N   UNK N   1      -0.976  -1.518   0.000  0.00  0.00    -0.366 N 
HETATM   21  H   UNK N   1      -0.077  -1.115   0.000  0.00  0.00     0.159 HD
HETATM   22  H   UNK N   1      -1.774  -0.940   0.000  0.00  0.00     0.159 HD
HETATM   23  O   UNK N   1      -2.239  -3.335   0.000  0.00  0.00    -0.268 OA
ENDBRANCH  14  19
ENDBRANCH  11  13
ENDBRANCH   4  11
BRANCH   9  24
HETATM   24  C   UNK N   1       2.299   3.065   0.000  0.00  0.00     0.051 A 
HETATM   25  C   UNK N   1       1.109   2.313   0.000  0.00  0.00     0.066 A 
HETATM   26  C   UNK N   1      -0.137   2.933   0.000  0.00  0.00     0.067 A 
HETATM   27  C   UNK N   1      -0.216   4.326  -0.000  0.00  0.00     0.036 A 
HETATM   28  C   UNK N   1       0.956   5.090  -0.000  0.00  0.00     0.005 A 
HETATM   29  C   UNK N   1       2.210   4.462  -0.000  0.00  0.00     0.030 A 
BRANCH  26  30
HETATM   30  O   UNK N   1      -1.256   2.190   0.000  0.00  0.00    -0.361 OA
HETATM   31  H   UNK N   1      -2.095   2.606   0.000  0.00  0.00     0.217 HD
ENDBRANCH  26  30
ENDBRANCH   9  24
TORSDOF 5
