REMARK  6 active torsions:
REMARK  status: ('A' for Active; 'I' for Inactive)
REMARK    1  A    between atoms: C_5  and  S_7 
REMARK    2  A    between atoms: S_7  and  N_10 
REMARK    3  A    between atoms: N_10  and  C_11 
REMARK    4  A    between atoms: C_16  and  O_23 
REMARK    5  A    between atoms: C_18  and  C_29 
REMARK    6  A    between atoms: C_27  and  N_31 
ROOT
HETATM    1  C   UNK N   1      -1.248   0.181  -0.094  0.00  0.00     0.239 A 
HETATM    2  N   UNK N   1      -0.691   1.422  -0.020  0.00  0.00    -0.319 N 
ATOM      3  HN  UNK N   1      -1.155   2.331  -0.017  1.00  0.00     0.169 HD
HETATM    4  C   UNK N   1       0.634   1.147   0.050  0.00  0.00     0.073 A 
HETATM    5  C   UNK N   1       1.717   2.022   0.147  0.00  0.00     0.069 A 
HETATM    6  C   UNK N   1       3.019   1.462   0.196  0.00  0.00     0.071 A 
HETATM    7  C   UNK N   1       3.187   0.046   0.134  0.00  0.00     0.052 A 
HETATM    8  C   UNK N   1       2.070  -0.810   0.040  0.00  0.00     0.013 A 
HETATM    9  C   UNK N   1       0.816  -0.200   0.008  0.00  0.00     0.117 A 
HETATM   10  O   UNK N   1      -0.347  -0.770  -0.075  0.00  0.00    -0.276 OA
ENDROOT
BRANCH   1  11
HETATM   11  N   UNK N   1      -2.625  -0.131  -0.166  0.00  0.00    -0.245 N 
HETATM   12  H   UNK N   1      -2.842  -1.083  -0.042  0.00  0.00     0.182 HD
BRANCH  11  13
HETATM   13  S   UNK N   1      -4.005   0.913  -0.441  0.00  0.00     0.267 S 
HETATM   14  O   UNK N   1      -5.123   0.053   0.167  0.00  0.00    -0.200 OA
HETATM   15  O   UNK N   1      -4.332   0.744  -1.932  0.00  0.00    -0.200 OA
BRANCH  13  16
HETATM   16  C   UNK N   1      -4.191   2.620   0.107  0.00  0.00     0.103 A 
HETATM   17  C   UNK N   1      -3.066   3.450   0.137  0.00  0.00     0.050 A 
HETATM   18  C   UNK N   1      -3.186   4.792   0.512  0.00  0.00     0.035 A 
HETATM   19  C   UNK N   1      -4.432   5.314   0.860  0.00  0.00     0.025 A 
HETATM   20 Cl   UNK N   1      -1.777   5.827   0.532  0.00  0.00    -0.084 Cl
HETATM   21  C   UNK N   1      -5.562   4.499   0.828  0.00  0.00     0.027 A 
HETATM   22  C   UNK N   1      -5.457   3.159   0.451  0.00  0.00     0.057 A 
HETATM   23 Cl   UNK N   1      -6.942   2.217   0.398  0.00  0.00    -0.083 Cl
ENDBRANCH  13  16
ENDBRANCH  11  13
ENDBRANCH   1  11
BRANCH   8  24
HETATM   24  C   UNK N   1       2.204  -2.292  -0.040  0.00  0.00    -0.021 A 
HETATM   25  C   UNK N   1       1.056  -3.103  -0.070  0.00  0.00     0.041 A 
HETATM   26  C   UNK N   1       1.154  -4.488  -0.160  0.00  0.00     0.026 A 
HETATM   27  C   UNK N   1       2.411  -5.091  -0.229  0.00  0.00     0.029 A 
HETATM   28  C   UNK N   1       3.565  -4.300  -0.202  0.00  0.00     0.003 A 
HETATM   29  C   UNK N   1       3.465  -2.906  -0.105  0.00  0.00     0.012 A 
BRANCH  26  30
HETATM   30  N   UNK N   1      -0.014  -5.274  -0.181  0.00  0.00    -0.399 N 
HETATM   31  H   UNK N   1      -0.899  -4.842  -0.196  0.00  0.00     0.156 HD
HETATM   32  H   UNK N   1       0.053  -6.257  -0.181  0.00  0.00     0.156 HD
ENDBRANCH  26  30
ENDBRANCH   8  24
BRANCH   6  33
HETATM   33  O   UNK N   1       4.087   2.290   0.299  0.00  0.00    -0.356 OA
HETATM   34  C   UNK N   1       5.387   1.838   0.361  0.00  0.00     0.210 C 
ENDBRANCH   6  33
TORSDOF 6
