REMARK  8 active torsions:
REMARK  status: ('A' for Active; 'I' for Inactive)
REMARK    1  A    between atoms: C_2  and  O_20 
REMARK    2  A    between atoms: C_3  and  C_7 
REMARK    3  A    between atoms: C_5  and  O_18 
REMARK    4  A    between atoms: C_7  and  C_8 
REMARK       I    between atoms: C_8  and  N_9 
REMARK    5  A    between atoms: N_9  and  C_10 
REMARK    6  A    between atoms: C_14  and  O_24 
REMARK    7  A    between atoms: C_16  and  N_22 
REMARK    8  A    between atoms: O_24  and  C_25 
ROOT
HETATM    1  C   UNK N   1       1.955  -0.883  -0.069  0.00  0.00     0.111 C 
HETATM    2  N   UNK N   1       2.876  -1.850  -0.242  0.00  0.00    -0.322 N 
ATOM      3  HN  UNK N   1       3.819  -1.588  -0.527  1.00  0.00     0.169 HD
HETATM    4  C   UNK N   1       2.590  -3.156  -0.051  0.00  0.00     0.167 C 
HETATM    5  C   UNK N   1       1.264  -3.532   0.281  0.00  0.00     0.121 C 
HETATM    6  C   UNK N   1       0.322  -2.529   0.564  0.00  0.00     0.054 C 
HETATM    7  C   UNK N   1       0.669  -1.208   0.382  0.00  0.00     0.079 C 
HETATM    8  C   UNK N   1       0.838  -4.904   0.254  0.00  0.00     0.106 C 
HETATM    9  N   UNK N   1       0.455  -5.994   0.244  0.00  0.00    -0.191 NA
ENDROOT
BRANCH   4  10
HETATM   10  O   UNK N   1       3.595  -4.038  -0.217  0.00  0.00    -0.335 OA
BRANCH  10  11
HETATM   11  C   UNK N   1       3.737  -5.171   0.541  0.00  0.00     0.173 C 
HETATM   12  C   UNK N   1       5.140  -5.692   0.344  0.00  0.00     0.034 C 
ENDBRANCH  10  11
ENDBRANCH   4  10
BRANCH   6  13
HETATM   13  N   UNK N   1      -0.997  -2.841   0.964  0.00  0.00    -0.398 N 
HETATM   14  H   UNK N   1      -1.644  -2.153   1.242  0.00  0.00     0.156 HD
HETATM   15  H   UNK N   1      -1.280  -3.784   0.964  0.00  0.00     0.156 HD
ENDBRANCH   6  13
BRANCH   1  16
HETATM   16  N   UNK N   1       2.214   0.385  -0.611  0.00  0.00    -0.313 N 
HETATM   17  C   UNK N   1       1.253   1.313  -0.615  0.00  0.00     0.227 C 
HETATM   18  O   UNK N   1       0.639   1.518  -1.657  0.00  0.00    -0.273 OA
HETATM   19  H   UNK N   1       3.100   0.591  -0.987  0.00  0.00     0.170 HD
BRANCH  17  20
HETATM   20  C   UNK N   1       0.806   1.900   0.703  0.00  0.00     0.144 C 
BRANCH  20  21
HETATM   21  C   UNK N   1      -0.399   2.710   0.480  0.00  0.00    -0.013 A 
HETATM   22  C   UNK N   1      -0.369   4.010  -0.087  0.00  0.00     0.076 A 
HETATM   23  C   UNK N   1      -1.579   4.602  -0.434  0.00  0.00     0.059 A 
HETATM   24  C   UNK N   1      -2.786   3.913  -0.282  0.00  0.00     0.047 A 
HETATM   25  C   UNK N   1      -2.792   2.600   0.255  0.00  0.00     0.086 A 
HETATM   26 Br   UNK N   1      -4.361   4.856  -0.748  0.00  0.00    -0.048 Br
HETATM   27  C   UNK N   1      -1.598   2.043   0.657  0.00  0.00     0.048 A 
BRANCH  22  28
HETATM   28  O   UNK N   1       0.772   4.704  -0.350  0.00  0.00    -0.355 OA
HETATM   29  C   UNK N   1       2.059   4.250  -0.167  0.00  0.00     0.210 C 
ENDBRANCH  22  28
BRANCH  25  30
HETATM   30  O   UNK N   1      -3.894   1.823   0.376  0.00  0.00    -0.355 OA
HETATM   31  C   UNK N   1      -4.830   1.676  -0.619  0.00  0.00     0.210 C 
ENDBRANCH  25  30
ENDBRANCH  20  21
ENDBRANCH  17  20
ENDBRANCH   1  16
TORSDOF 8
