REMARK  6 active torsions:
REMARK  status: ('A' for Active; 'I' for Inactive)
REMARK    1  A    between atoms: O_11  and  C_1 
REMARK    2  A    between atoms: C_10  and  C_27 
REMARK    3  A    between atoms: C_12  and  O_11 
REMARK    4  A    between atoms: O_23  and  C_20 
REMARK    5  A    between atoms: O_24  and  C_21 
REMARK       I    between atoms: C_27  and  N_28 
REMARK    6  A    between atoms: N_28  and  C_29 
ROOT
HETATM    1  C   UNK N   1       0.269   1.245  -0.081  0.00  0.00     0.076 A 
HETATM    2  C   UNK N   1       0.304   2.623   0.209  0.00  0.00     0.049 A 
HETATM    3  C   UNK N   1      -0.886   3.382   0.150  0.00  0.00    -0.022 A 
HETATM    4  C   UNK N   1      -2.106   2.745  -0.184  0.00  0.00    -0.010 A 
HETATM    5  C   UNK N   1      -2.085   1.405  -0.542  0.00  0.00     0.016 A 
HETATM    6  C   UNK N   1      -0.929   0.677  -0.505  0.00  0.00     0.038 A 
HETATM    7  C   UNK N   1      -0.886   4.739   0.478  0.00  0.00     0.012 A 
HETATM    8  C   UNK N   1      -2.087   5.459   0.477  0.00  0.00     0.002 A 
HETATM    9  C   UNK N   1      -3.302   4.818   0.196  0.00  0.00     0.018 A 
HETATM   10  C   UNK N   1      -3.333   3.455  -0.129  0.00  0.00     0.043 A 
ENDROOT
BRANCH   1  11
HETATM   11  O   UNK N   1       1.375   0.465   0.083  0.00  0.00    -0.310 OA
BRANCH  11  12
HETATM   12  C   UNK N   1       1.378  -0.909   0.153  0.00  0.00     0.090 A 
HETATM   13  C   UNK N   1       0.190  -1.657   0.288  0.00  0.00     0.055 A 
HETATM   14  C   UNK N   1       0.221  -3.046   0.339  0.00  0.00     0.091 A 
HETATM   15  N   UNK N   1       1.407  -3.698   0.265  0.00  0.00    -0.365 N 
HETATM   16  C   UNK N   1       2.578  -3.020   0.154  0.00  0.00     0.048 A 
ATOM     17  HN  UNK N   1       1.419  -4.718   0.292  1.00  0.00     0.165 HD
HETATM   18  C   UNK N   1       2.588  -1.608   0.104  0.00  0.00     0.027 A 
HETATM   19  C   UNK N   1       3.774  -3.723   0.086  0.00  0.00     0.070 A 
HETATM   20  C   UNK N   1       3.802  -0.929   0.002  0.00  0.00     0.056 A 
HETATM   21  C   UNK N   1       5.013  -1.624  -0.054  0.00  0.00     0.102 A 
HETATM   22  C   UNK N   1       5.001  -3.047  -0.020  0.00  0.00     0.103 A 
BRANCH  21  23
HETATM   23  O   UNK N   1       6.148  -0.884  -0.139  0.00  0.00    -0.353 OA
HETATM   24  C   UNK N   1       7.428  -1.385  -0.163  0.00  0.00     0.210 C 
ENDBRANCH  21  23
BRANCH  22  25
HETATM   25  O   UNK N   1       6.158  -3.749  -0.093  0.00  0.00    -0.353 OA
HETATM   26  C   UNK N   1       6.210  -5.125  -0.100  0.00  0.00     0.210 C 
ENDBRANCH  22  25
ENDBRANCH  11  12
ENDBRANCH   1  11
BRANCH  10  27
HETATM   27  C   UNK N   1      -4.650   2.753  -0.297  0.00  0.00     0.252 C 
HETATM   28  O   UNK N   1      -5.697   3.389  -0.261  0.00  0.00    -0.268 OA
HETATM   29  N   UNK N   1      -4.680   1.400  -0.378  0.00  0.00    -0.352 N 
HETATM   30  H   UNK N   1      -3.814   0.938  -0.450  0.00  0.00     0.163 HD
BRANCH  29  31
HETATM   31  C   UNK N   1      -5.856   0.580  -0.368  0.00  0.00     0.084 A 
HETATM   32  C   UNK N   1      -5.417  -0.868  -0.516  0.00  0.00     0.027 A 
HETATM   33  C   UNK N   1      -5.787  -0.332   0.845  0.00  0.00     0.027 A 
ENDBRANCH  29  31
ENDBRANCH  10  27
TORSDOF 6
