REMARK  5 active torsions:
REMARK  status: ('A' for Active; 'I' for Inactive)
REMARK    1  A    between atoms: C_10  and  C_12 
REMARK    2  A    between atoms: C_13  and  O_22 
REMARK    3  A    between atoms: N_16  and  C_24 
REMARK    4  A    between atoms: C_24  and  C_25 
REMARK    5  A    between atoms: C_25  and  C_26 
ROOT
HETATM    1  C   UNK N   1      -0.146  -0.237  -0.110  0.00  0.00     0.111 A 
HETATM    2  C   UNK N   1       1.056  -0.949   0.090  0.00  0.00     0.097 A 
HETATM    3  C   UNK N   1       2.269  -0.266   0.178  0.00  0.00     0.025 A 
HETATM    4  C   UNK N   1       2.301   1.141   0.050  0.00  0.00     0.050 A 
HETATM    5  N   UNK N   1       1.146   1.850  -0.176  0.00  0.00    -0.313 N 
HETATM    6  C   UNK N   1      -0.076   1.179  -0.253  0.00  0.00     0.265 A 
HETATM    7  C   UNK N   1       3.458  -0.974   0.414  0.00  0.00     0.016 A 
HETATM    8  C   UNK N   1       4.674  -0.302   0.529  0.00  0.00     0.001 A 
HETATM    9  C   UNK N   1       4.717   1.086   0.406  0.00  0.00     0.002 A 
HETATM   10  C   UNK N   1       3.543   1.801   0.165  0.00  0.00     0.031 A 
HETATM   11  O   UNK N   1      -1.105   1.805  -0.436  0.00  0.00    -0.267 OA
ENDROOT
BRANCH   1  12
HETATM   12  C   UNK N   1      -1.477  -0.957  -0.120  0.00  0.00     0.134 A 
HETATM   13  N   UNK N   1      -2.566  -0.259  -0.106  0.00  0.00    -0.265 N 
HETATM   14  S   UNK N   1      -4.140  -0.983   0.040  0.00  0.00     0.266 S 
ATOM     15  HN  UNK N   1      -2.499   0.756  -0.184  1.00  0.00     0.180 HD
HETATM   16  C   UNK N   1      -3.955  -2.725  -0.006  0.00  0.00     0.106 A 
HETATM   17  O   UNK N   1      -4.665  -0.437   1.376  0.00  0.00    -0.200 OA
HETATM   18  O   UNK N   1      -5.006  -0.317  -1.039  0.00  0.00    -0.200 OA
HETATM   19  C   UNK N   1      -2.658  -3.244  -0.036  0.00  0.00     0.057 A 
HETATM   20  C   UNK N   1      -5.067  -3.571   0.020  0.00  0.00     0.027 A 
HETATM   21  C   UNK N   1      -2.480  -4.633  -0.035  0.00  0.00     0.031 A 
HETATM   22  N   UNK N   1      -1.510  -2.396  -0.059  0.00  0.00    -0.340 N 
HETATM   23  C   UNK N   1      -3.588  -5.487  -0.009  0.00  0.00     0.002 A 
HETATM   24  C   UNK N   1      -4.882  -4.956   0.015  0.00  0.00     0.002 A 
HETATM   25  H   UNK N   1      -0.636  -2.848  -0.030  0.00  0.00     0.167 HD
ENDBRANCH   1  12
BRANCH   2  26
HETATM   26  O   UNK N   1       1.051  -2.290   0.227  0.00  0.00    -0.359 OA
HETATM   27  H   UNK N   1       0.242  -2.753   0.323  0.00  0.00     0.217 HD
ENDBRANCH   2  26
BRANCH   5  28
HETATM   28  C   UNK N   1       1.275   3.327  -0.309  0.00  0.00     0.133 C 
BRANCH  28  29
HETATM   29  C   UNK N   1       0.019   4.122  -0.662  0.00  0.00     0.024 C 
BRANCH  29  30
HETATM   30  C   UNK N   1      -0.325   5.110   0.438  0.00  0.00    -0.021 C 
HETATM   31  C   UNK N   1      -1.743   5.601   0.241  0.00  0.00     0.009 C 
HETATM   32  C   UNK N   1       0.620   6.295   0.392  0.00  0.00     0.009 C 
ENDBRANCH  29  30
ENDBRANCH  28  29
ENDBRANCH   5  28
TORSDOF 5
