REMARK  8 active torsions:
REMARK  status: ('A' for Active; 'I' for Inactive)
REMARK       I    between atoms: C_2  and  N_3 
REMARK    1  A    between atoms: C_2  and  C_9 
REMARK    2  A    between atoms: N_3  and  C_4 
REMARK    3  A    between atoms: N_3  and  C_6 
REMARK    4  A    between atoms: C_11  and  O_16 
REMARK    5  A    between atoms: O_16  and  C_17 
REMARK    6  A    between atoms: C_17  and  C_18 
REMARK    7  A    between atoms: C_18  and  N_20 
REMARK    8  A    between atoms: N_20  and  C_21 
ROOT
HETATM    1  C   UNK N   1       0.892   0.430   0.012  0.00  0.00     0.035 A 
HETATM    2  C   UNK N   1       1.988  -0.425   0.215  0.00  0.00     0.053 A 
HETATM    3  C   UNK N   1       1.824  -1.808   0.281  0.00  0.00     0.070 A 
HETATM    4  C   UNK N   1       0.552  -2.367   0.127  0.00  0.00     0.043 A 
HETATM    5  C   UNK N   1      -0.549  -1.535  -0.089  0.00  0.00    -0.058 A 
HETATM    6  C   UNK N   1      -1.903  -2.122  -0.272  0.00  0.00     0.048 C 
HETATM    7  C   UNK N   1      -0.376  -0.149  -0.141  0.00  0.00     0.024 A 
ENDROOT
BRANCH   3   8
HETATM    8  O   UNK N   1       2.893  -2.594   0.500  0.00  0.00    -0.349 OA
BRANCH   8   9
HETATM    9  C   UNK N   1       3.632  -3.072  -0.556  0.00  0.00     0.200 C 
BRANCH   9  10
HETATM   10  C   UNK N   1       5.111  -3.213  -0.208  0.00  0.00     0.102 C 
HETATM   11  C   UNK N   1       5.287  -4.035   1.061  0.00  0.00     0.034 C 
BRANCH  10  12
HETATM   12  N   UNK N   1       5.749  -1.918  -0.072  0.00  0.00    -0.384 N 
HETATM   13  H   UNK N   1       5.184  -1.113  -0.027  0.00  0.00     0.160 HD
BRANCH  12  14
HETATM   14  C   UNK N   1       7.164  -1.769  -0.000  0.00  0.00     0.030 A 
HETATM   15  C   UNK N   1       7.722  -0.494   0.131  0.00  0.00     0.046 A 
HETATM   16  C   UNK N   1       9.114  -0.351   0.165  0.00  0.00     0.089 A 
HETATM   17  N   UNK N   1       9.918  -1.445   0.065  0.00  0.00    -0.375 N 
HETATM   18  C   UNK N   1       9.400  -2.695  -0.065  0.00  0.00     0.089 A 
ATOM     19  HN  UNK N   1      10.931  -1.324   0.089  1.00  0.00     0.164 HD
HETATM   20  C   UNK N   1       8.017  -2.878  -0.102  0.00  0.00     0.046 A 
ENDBRANCH  12  14
ENDBRANCH  10  12
ENDBRANCH   9  10
ENDBRANCH   8   9
ENDBRANCH   3   8
BRANCH   1  21
HETATM   21  C   UNK N   1       1.165   1.910  -0.046  0.00  0.00     0.254 C 
HETATM   22  O   UNK N   1       2.343   2.241  -0.084  0.00  0.00    -0.267 OA
HETATM   23  N   UNK N   1       0.205   2.909  -0.036  0.00  0.00    -0.344 N 
BRANCH  23  24
HETATM   24  C   UNK N   1       0.684   4.289  -0.094  0.00  0.00     0.122 C 
HETATM   25  C   UNK N   1      -0.414   5.347  -0.038  0.00  0.00     0.026 C 
ENDBRANCH  23  24
BRANCH  23  26
HETATM   26  C   UNK N   1      -1.231   2.685   0.081  0.00  0.00     0.079 C 
HETATM   27  C   UNK N   1      -1.864   2.082  -1.162  0.00  0.00     0.032 C 
HETATM   28  C   UNK N   1      -1.636   2.018   1.387  0.00  0.00     0.032 C 
ENDBRANCH  23  26
ENDBRANCH   1  21
TORSDOF 8
