REMARK  7 active torsions:
REMARK  status: ('A' for Active; 'I' for Inactive)
REMARK    1  A    between atoms: C_4  and  C_28 
REMARK    2  A    between atoms: C_5  and  C_9 
REMARK    3  A    between atoms: C_6  and  N_33 
REMARK    4  A    between atoms: C_12  and  N_30 
REMARK    5  A    between atoms: C_18  and  N_27 
REMARK    6  A    between atoms: C_21  and  C_29 
REMARK    7  A    between atoms: C_28  and  C_29 
ROOT
HETATM    1  C   UNK N   1      -0.442   4.683  -0.684  0.00  0.00     0.183 A 
HETATM    2  N   UNK N   1       0.740   4.138  -0.378  0.00  0.00    -0.345 N 
ATOM      3  HN  UNK N   1       1.597   4.678  -0.500  1.00  0.00     0.167 HD
HETATM    4  C   UNK N   1       0.799   2.889   0.088  0.00  0.00     0.090 A 
HETATM    5  C   UNK N   1      -0.353   2.070   0.170  0.00  0.00     0.052 A 
HETATM    6  C   UNK N   1      -1.563   2.671  -0.147  0.00  0.00     0.113 A 
HETATM    7  N   UNK N   1      -1.578   3.963  -0.539  0.00  0.00    -0.338 N 
ATOM      8  HN  UNK N   1      -2.474   4.410  -0.732  1.00  0.00     0.168 HD
ENDROOT
BRANCH   4   9
HETATM    9  C   UNK N   1       2.039   2.453   0.419  0.00  0.00    -0.125 C 
BRANCH   9  10
HETATM   10  C   UNK N   1       3.070   2.037   0.708  0.00  0.00     0.101 C 
BRANCH  10  11
HETATM   11  C   UNK N   1       3.931   1.053   0.863  0.00  0.00     0.057 C 
HETATM   12  C   UNK N   1       5.026   1.350   0.100  0.00  0.00     0.067 C 
HETATM   13  N   UNK N   1       5.581   0.384  -0.629  0.00  0.00    -0.378 N 
HETATM   14  C   UNK N   1       5.162  -0.900  -0.489  0.00  0.00     0.202 C 
ATOM     15  HN  UNK N   1       6.323   0.608  -1.293  1.00  0.00     0.161 HD
HETATM   16  C   UNK N   1       3.913  -1.170   0.035  0.00  0.00     0.016 C 
HETATM   17  C   UNK N   1       3.326  -0.187   0.758  0.00  0.00    -0.016 C 
BRANCH  14  18
HETATM   18  N   UNK N   1       6.122  -1.719   0.072  0.00  0.00    -0.385 N 
HETATM   19  C   UNK N   1       7.227  -1.037   0.708  0.00  0.00     0.145 C 
HETATM   20  C   UNK N   1       8.393  -1.933   0.541  0.00  0.00     0.187 C 
HETATM   21  O   UNK N   1       8.085  -3.126   1.218  0.00  0.00    -0.388 OA
HETATM   22  C   UNK N   1       7.077  -3.808   0.499  0.00  0.00     0.187 C 
HETATM   23  C   UNK N   1       5.790  -3.028   0.571  0.00  0.00     0.145 C 
ENDBRANCH  14  18
ENDBRANCH  10  11
ENDBRANCH   9  10
ENDBRANCH   4   9
BRANCH   5  24
HETATM   24  C   UNK N   1      -0.281   0.616   0.325  0.00  0.00    -0.019 A 
HETATM   25  C   UNK N   1       0.795   0.089  -0.335  0.00  0.00     0.014 A 
HETATM   26  C   UNK N   1       0.826  -1.185  -0.750  0.00  0.00     0.030 A 
HETATM   27  C   UNK N   1      -0.242  -2.015  -0.511  0.00  0.00     0.029 A 
HETATM   28  C   UNK N   1      -1.393  -1.520   0.129  0.00  0.00     0.030 A 
HETATM   29  C   UNK N   1      -1.416  -0.191   0.530  0.00  0.00     0.014 A 
BRANCH  27  30
HETATM   30  N   UNK N   1       0.020  -3.389  -0.544  0.00  0.00    -0.390 N 
HETATM   31  C   UNK N   1       1.409  -3.794  -0.515  0.00  0.00     0.149 C 
HETATM   32  C   UNK N   1      -0.931  -4.282   0.046  0.00  0.00     0.149 C 
ENDBRANCH  27  30
ENDBRANCH   5  24
BRANCH   6  33
HETATM   33  N   UNK N   1      -2.768   1.943  -0.177  0.00  0.00    -0.385 N 
HETATM   34  H   UNK N   1      -3.630   2.418  -0.198  0.00  0.00     0.157 HD
HETATM   35  H   UNK N   1      -2.749   0.959  -0.177  0.00  0.00     0.157 HD
ENDBRANCH   6  33
TORSDOF 7
