REMARK  4 active torsions:
REMARK  status: ('A' for Active; 'I' for Inactive)
REMARK    1  A    between atoms: N_1  and  C_2 
REMARK    2  A    between atoms: C_8  and  N_9 
REMARK    3  A    between atoms: N_9  and  C_10 
REMARK    4  A    between atoms: C_10  and  C_11 
ROOT
HETATM    1  C   UNK N   1       3.313  -0.803   0.000  0.00  0.00     0.125 A 
HETATM    2  N   UNK N   1       4.626  -1.161   0.000  0.00  0.00    -0.351 N 
ATOM      3  HN  UNK N   1       5.338  -0.430   0.000  1.00  0.00     0.166 HD
HETATM    4  C   UNK N   1       5.019  -2.460   0.000  0.00  0.00     0.090 A 
HETATM    5  C   UNK N   1       4.067  -3.478   0.000  0.00  0.00     0.019 A 
HETATM    6  C   UNK N   1       2.711  -3.148  -0.000  0.00  0.00     0.034 A 
HETATM    7  C   UNK N   1       2.308  -1.810  -0.000  0.00  0.00     0.072 A 
ENDROOT
BRANCH   7   8
HETATM    8  N   UNK N   1       0.909  -1.521  -0.000  0.00  0.00    -0.383 N 
HETATM    9  H   UNK N   1       0.273  -2.272  -0.000  0.00  0.00     0.160 HD
BRANCH   8  10
HETATM   10  C   UNK N   1       0.388  -0.175  -0.000  0.00  0.00     0.158 C 
BRANCH  10  11
HETATM   11  C   UNK N   1      -1.105  -0.085  -0.000  0.00  0.00    -0.041 A 
HETATM   12  C   UNK N   1      -1.933  -1.218   0.000  0.00  0.00     0.009 A 
HETATM   13  C   UNK N   1      -3.325  -1.066   0.000  0.00  0.00     0.001 A 
HETATM   14  C   UNK N   1      -3.891   0.214   0.000  0.00  0.00     0.000 A 
HETATM   15  C   UNK N   1      -3.068   1.342  -0.000  0.00  0.00     0.001 A 
HETATM   16  C   UNK N   1      -1.680   1.190  -0.000  0.00  0.00     0.009 A 
ENDBRANCH  10  11
ENDBRANCH   8  10
ENDBRANCH   7   8
BRANCH   1  17
HETATM   17  N   UNK N   1       2.989   0.569   0.000  0.00  0.00    -0.384 N 
HETATM   18  H   UNK N   1       3.705   1.244   0.000  0.00  0.00     0.157 HD
HETATM   19  H   UNK N   1       2.046   0.852   0.000  0.00  0.00     0.157 HD
ENDBRANCH   1  17
TORSDOF 4
