REMARK  5 active torsions:
REMARK  status: ('A' for Active; 'I' for Inactive)
REMARK    1  A    between atoms: N_1  and  C_2 
REMARK    2  A    between atoms: C_8  and  N_9 
REMARK    3  A    between atoms: N_9  and  C_10 
REMARK    4  A    between atoms: C_10  and  C_11 
REMARK    5  A    between atoms: C_15  and  C_17 
ROOT
HETATM    1  C   UNK N   1       1.924   0.844  -0.503  0.00  0.00    -0.040 A 
HETATM    2  C   UNK N   1       1.835   2.126   0.046  0.00  0.00     0.009 A 
HETATM    3  C   UNK N   1       0.637   2.556   0.626  0.00  0.00     0.001 A 
HETATM    4  C   UNK N   1      -0.474   1.705   0.653  0.00  0.00     0.012 A 
HETATM    5  C   UNK N   1      -0.387   0.410   0.115  0.00  0.00    -0.024 A 
HETATM    6  C   UNK N   1       0.817  -0.006  -0.466  0.00  0.00     0.021 A 
ENDROOT
BRANCH   1   7
HETATM    7  C   UNK N   1       3.168   0.408  -1.195  0.00  0.00     0.158 C 
BRANCH   7   8
HETATM    8  N   UNK N   1       3.600  -0.884  -0.719  0.00  0.00    -0.383 N 
HETATM    9  H   UNK N   1       2.942  -1.616  -0.721  0.00  0.00     0.160 HD
BRANCH   8  10
HETATM   10  C   UNK N   1       4.909  -1.174  -0.248  0.00  0.00     0.072 A 
HETATM   11  C   UNK N   1       5.886  -0.181   0.010  0.00  0.00     0.125 A 
HETATM   12  N   UNK N   1       7.124  -0.547   0.436  0.00  0.00    -0.351 N 
HETATM   13  C   UNK N   1       7.463  -1.851   0.624  0.00  0.00     0.090 A 
ATOM     14  HN  UNK N   1       7.818   0.177   0.620  1.00  0.00     0.166 HD
HETATM   15  C   UNK N   1       6.529  -2.857   0.389  0.00  0.00     0.019 A 
HETATM   16  C   UNK N   1       5.252  -2.514  -0.045  0.00  0.00     0.034 A 
BRANCH  11  17
HETATM   17  N   UNK N   1       5.601   1.191  -0.156  0.00  0.00    -0.384 N 
HETATM   18  H   UNK N   1       6.331   1.842  -0.272  0.00  0.00     0.157 HD
HETATM   19  H   UNK N   1       4.666   1.500  -0.156  0.00  0.00     0.157 HD
ENDBRANCH  11  17
ENDBRANCH   8  10
ENDBRANCH   7   8
ENDBRANCH   1   7
BRANCH   5  20
HETATM   20  C   UNK N   1      -1.545  -0.511   0.140  0.00  0.00    -0.011 A 
HETATM   21  C   UNK N   1      -1.394  -1.848  -0.260  0.00  0.00     0.099 A 
HETATM   22  N   UNK N   1      -2.455  -2.698  -0.241  0.00  0.00    -0.374 N 
HETATM   23  C   UNK N   1      -3.689  -2.282   0.149  0.00  0.00     0.087 A 
ATOM     24  HN  UNK N   1      -2.322  -3.669  -0.525  1.00  0.00     0.164 HD
HETATM   25  C   UNK N   1      -3.889  -0.960   0.550  0.00  0.00     0.018 A 
HETATM   26  C   UNK N   1      -2.810  -0.074   0.551  0.00  0.00     0.015 A 
ENDBRANCH   5  20
TORSDOF 5
