REMARK  5 active torsions:
REMARK  status: ('A' for Active; 'I' for Inactive)
REMARK    1  A    between atoms: C_7  and  N_8 
REMARK       I    between atoms: C_9  and  N_8 
REMARK    2  A    between atoms: C_9  and  C_11 
REMARK    3  A    between atoms: N_17  and  C_12 
REMARK    4  A    between atoms: C_18  and  N_17 
REMARK    5  A    between atoms: C_18  and  C_19 
ROOT
HETATM    1  C   UNK N   1      -0.921  -1.921  -0.276  0.00  0.00     0.058 A 
HETATM    2  C   UNK N   1       0.140  -2.873  -0.348  0.00  0.00     0.044 A 
HETATM    3  C   UNK N   1      -0.157  -4.240  -0.290  0.00  0.00     0.030 A 
HETATM    4  C   UNK N   1      -1.472  -4.679  -0.137  0.00  0.00     0.002 A 
HETATM    5  C   UNK N   1      -2.509  -3.754  -0.042  0.00  0.00     0.001 A 
HETATM    6  C   UNK N   1      -2.236  -2.388  -0.118  0.00  0.00     0.019 A 
ENDROOT
BRANCH   1   7
HETATM    7  C   UNK N   1      -0.703  -0.447  -0.362  0.00  0.00     0.258 C 
HETATM    8  N   UNK N   1      -1.761   0.400  -0.202  0.00  0.00    -0.323 N 
HETATM    9  H   UNK N   1      -2.658  -0.001  -0.139  0.00  0.00     0.169 HD
HETATM   10  O   UNK N   1       0.406  -0.002  -0.598  0.00  0.00    -0.267 OA
BRANCH   8  11
HETATM   11  C   UNK N   1      -1.670   1.820  -0.120  0.00  0.00     0.035 A 
HETATM   12  C   UNK N   1      -2.839   2.584  -0.217  0.00  0.00     0.031 A 
HETATM   13  C   UNK N   1      -2.788   3.976  -0.086  0.00  0.00     0.026 A 
HETATM   14  C   UNK N   1      -1.567   4.612   0.157  0.00  0.00     0.034 A 
HETATM   15 Cl   UNK N   1      -1.503   6.351   0.338  0.00  0.00    -0.084 Cl
HETATM   16  C   UNK N   1      -0.397   3.858   0.264  0.00  0.00     0.026 A 
HETATM   17  C   UNK N   1      -0.447   2.469   0.128  0.00  0.00     0.031 A 
ENDBRANCH   8  11
ENDBRANCH   1   7
BRANCH   2  18
HETATM   18  N   UNK N   1       1.502  -2.492  -0.427  0.00  0.00    -0.385 N 
HETATM   19  H   UNK N   1       2.032  -2.714  -1.227  0.00  0.00     0.160 HD
BRANCH  18  20
HETATM   20  C   UNK N   1       2.110  -1.776   0.668  0.00  0.00     0.158 C 
BRANCH  20  21
HETATM   21  C   UNK N   1       3.318  -1.019   0.233  0.00  0.00    -0.038 A 
HETATM   22  C   UNK N   1       3.324   0.373   0.339  0.00  0.00     0.025 A 
HETATM   23  C   UNK N   1       4.467   1.084  -0.030  0.00  0.00     0.088 A 
HETATM   24  N   UNK N   1       5.567   0.422  -0.479  0.00  0.00    -0.375 N 
HETATM   25  C   UNK N   1       5.584  -0.935  -0.585  0.00  0.00     0.088 A 
ATOM     26  HN  UNK N   1       6.396   0.954  -0.743  1.00  0.00     0.164 HD
HETATM   27  C   UNK N   1       4.458  -1.683  -0.228  0.00  0.00     0.025 A 
ENDBRANCH  20  21
ENDBRANCH  18  20
ENDBRANCH   2  18
TORSDOF 5
