REMARK  10 active torsions:
REMARK  status: ('A' for Active; 'I' for Inactive)
REMARK    1  A    between atoms: C_2  and  C_6 
REMARK    2  A    between atoms: C_3  and  O_16 
REMARK    3  A    between atoms: C_5  and  C_9 
REMARK    4  A    between atoms: C_6  and  O_7 
REMARK    5  A    between atoms: C_11  and  N_21 
REMARK    6  A    between atoms: O_16  and  C_17 
REMARK    7  A    between atoms: C_17  and  C_18 
REMARK    8  A    between atoms: C_18  and  O_19 
REMARK    9  A    between atoms: N_21  and  C_22 
REMARK   10  A    between atoms: C_22  and  C_23 
ROOT
HETATM    1  S   UNK N   1       1.302  -2.306   0.272  0.00  0.00    -0.079 SA
HETATM    2  C   UNK N   1       0.696  -3.827   0.087  0.00  0.00     0.114 A 
HETATM    3  C   UNK N   1      -0.662  -3.703  -0.240  0.00  0.00     0.112 A 
HETATM    4  C   UNK N   1      -1.103  -2.330  -0.319  0.00  0.00     0.064 A 
HETATM    5  C   UNK N   1      -0.068  -1.416  -0.014  0.00  0.00     0.036 A 
HETATM    6 Br   UNK N   1      -2.908  -1.786  -0.737  0.00  0.00    -0.047 Br
ENDROOT
BRANCH   5   7
HETATM    7  C   UNK N   1      -0.140   0.047   0.166  0.00  0.00    -0.015 A 
HETATM    8  C   UNK N   1      -1.354   0.728   0.042  0.00  0.00     0.042 A 
HETATM    9  C   UNK N   1      -1.448   2.086   0.331  0.00  0.00     0.029 A 
HETATM   10  C   UNK N   1      -0.304   2.765   0.783  0.00  0.00     0.029 A 
HETATM   11  C   UNK N   1       0.917   2.104   0.897  0.00  0.00     0.003 A 
HETATM   12  C   UNK N   1       0.999   0.748   0.588  0.00  0.00     0.013 A 
BRANCH   9  13
HETATM   13  N   UNK N   1      -2.699   2.740   0.129  0.00  0.00    -0.386 N 
HETATM   14  H   UNK N   1      -3.486   2.158   0.018  0.00  0.00     0.160 HD
BRANCH  13  15
HETATM   15  C   UNK N   1      -2.938   4.175   0.068  0.00  0.00     0.158 C 
BRANCH  15  16
HETATM   16  C   UNK N   1      -1.715   4.967  -0.265  0.00  0.00    -0.041 A 
HETATM   17  C   UNK N   1      -1.254   5.923   0.644  0.00  0.00     0.009 A 
HETATM   18  C   UNK N   1      -0.055   6.597   0.402  0.00  0.00     0.001 A 
HETATM   19  C   UNK N   1       0.695   6.302  -0.741  0.00  0.00     0.000 A 
HETATM   20  C   UNK N   1       0.234   5.351  -1.656  0.00  0.00     0.001 A 
HETATM   21  C   UNK N   1      -0.974   4.687  -1.424  0.00  0.00     0.009 A 
ENDBRANCH  15  16
ENDBRANCH  13  15
ENDBRANCH   9  13
ENDBRANCH   5   7
BRANCH   2  22
HETATM   22  C   UNK N   1       1.453  -5.070   0.307  0.00  0.00     0.186 C 
HETATM   23  O   UNK N   1       2.638  -5.017   0.598  0.00  0.00    -0.646 OA
BRANCH  22  24
HETATM   24  O   UNK N   1       0.840  -6.265   0.233  0.00  0.00    -0.772 OA
HETATM   25  H   UNK N   1      -0.095  -6.311   0.181  0.00  0.00     0.167 HD
ENDBRANCH  22  24
ENDBRANCH   2  22
BRANCH   3  26
HETATM   26  O   UNK N   1      -1.436  -4.804  -0.408  0.00  0.00    -0.338 OA
BRANCH  26  27
HETATM   27  C   UNK N   1      -2.801  -4.799  -0.561  0.00  0.00     0.285 C 
BRANCH  27  28
HETATM   28  C   UNK N   1      -3.355  -6.177  -0.401  0.00  0.00     0.164 C 
HETATM   29  O   UNK N   1      -4.559  -6.355  -0.479  0.00  0.00    -0.648 OA
BRANCH  28  30
HETATM   30  O   UNK N   1      -2.539  -7.221  -0.159  0.00  0.00    -0.775 OA
HETATM   31  H   UNK N   1      -2.883  -8.076   0.010  0.00  0.00     0.167 HD
ENDBRANCH  28  30
ENDBRANCH  27  28
ENDBRANCH  26  27
ENDBRANCH   3  26
TORSDOF 10
