REMARK  5 active torsions:
REMARK  status: ('A' for Active; 'I' for Inactive)
REMARK    1  A    between atoms: C_2  and  C_4 
REMARK    2  A    between atoms: C_4  and  N_5 
REMARK       I    between atoms: N_5  and  C_6 
REMARK    3  A    between atoms: C_6  and  O_8 
REMARK    4  A    between atoms: O_8  and  C_9 
REMARK    5  A    between atoms: C_9  and  C_10 
ROOT
HETATM    1  N   UNK N   1      -2.205   0.403   0.148  0.00  0.00    -0.330 N 
HETATM    2  C   UNK N   1      -1.065   1.113  -0.009  0.00  0.00     0.361 C 
HETATM    3  O   UNK N   1      -1.100   2.320  -0.201  0.00  0.00    -0.238 OA
HETATM    4  H   UNK N   1      -2.137  -0.566   0.306  0.00  0.00     0.165 HD
ENDROOT
BRANCH   2   5
HETATM    5  O   UNK N   1       0.111   0.448   0.026  0.00  0.00    -0.299 OA
BRANCH   5   6
HETATM    6  C   UNK N   1       1.341   1.047  -0.118  0.00  0.00     0.219 C 
BRANCH   6   7
HETATM    7  C   UNK N   1       2.420   0.008  -0.070  0.00  0.00    -0.034 A 
HETATM    8  C   UNK N   1       3.753   0.406   0.069  0.00  0.00     0.009 A 
HETATM    9  C   UNK N   1       4.767  -0.555   0.149  0.00  0.00     0.001 A 
HETATM   10  C   UNK N   1       4.452  -1.916   0.084  0.00  0.00     0.000 A 
HETATM   11  C   UNK N   1       3.123  -2.319  -0.064  0.00  0.00     0.001 A 
HETATM   12  C   UNK N   1       2.109  -1.361  -0.138  0.00  0.00     0.009 A 
ENDBRANCH   6   7
ENDBRANCH   5   6
ENDBRANCH   2   5
BRANCH   1  13
HETATM   13  C   UNK N   1      -3.517   0.999   0.096  0.00  0.00     0.202 C 
BRANCH  13  14
HETATM   14  C   UNK N   1      -4.575  -0.065   0.033  0.00  0.00     0.140 C 
HETATM   15  O   UNK N   1      -5.747   0.262  -0.040  0.00  0.00    -0.297 OA
HETATM   16  C   UNK N   1      -4.223  -1.520   0.037  0.00  0.00     0.092 C 
ENDBRANCH  13  14
ENDBRANCH   1  13
TORSDOF 5
