REMARK  3 active torsions:
REMARK  status: ('A' for Active; 'I' for Inactive)
REMARK    1  A    between atoms: C_10  and  C_11 
REMARK    2  A    between atoms: C_13  and  O_25 
REMARK    3  A    between atoms: C_14  and  C_18 
ROOT
HETATM    1  C   UNK N   1      -0.678  -0.449  -0.760  0.00  0.00     0.052 C 
HETATM    2  C   UNK N   1       0.475   0.143  -0.428  0.00  0.00     0.114 A 
HETATM    3  C   UNK N   1       0.746   1.581  -0.437  0.00  0.00     0.117 A 
HETATM    4  C   UNK N   1       1.996   1.756  -0.006  0.00  0.00     0.086 A 
HETATM    5  C   UNK N   1       2.500   0.408   0.290  0.00  0.00     0.302 A 
HETATM    6  O   UNK N   1       3.605   0.138   0.738  0.00  0.00    -0.259 OA
HETATM    7  O   UNK N   1       1.569  -0.521   0.009  0.00  0.00    -0.272 OA
ENDROOT
BRANCH   1   8
HETATM    8  C   UNK N   1      -0.816  -1.922  -0.802  0.00  0.00    -0.022 A 
HETATM    9  C   UNK N   1      -1.975  -2.556  -0.314  0.00  0.00    -0.016 A 
HETATM   10  C   UNK N   1      -3.031  -1.813   0.237  0.00  0.00     0.013 A 
HETATM   11  C   UNK N   1      -2.067  -3.969  -0.350  0.00  0.00    -0.025 A 
HETATM   12  C   UNK N   1      -4.156  -2.463   0.749  0.00  0.00     0.001 A 
HETATM   13  C   UNK N   1      -4.238  -3.858   0.714  0.00  0.00     0.001 A 
HETATM   14  C   UNK N   1      -3.197  -4.609   0.164  0.00  0.00     0.012 A 
HETATM   15  C   UNK N   1      -1.022  -4.727  -0.884  0.00  0.00     0.012 A 
HETATM   16  C   UNK N   1       0.120  -4.095  -1.375  0.00  0.00     0.002 A 
HETATM   17  C   UNK N   1       0.227  -2.705  -1.326  0.00  0.00     0.012 A 
ENDBRANCH   1   8
BRANCH   3  18
HETATM   18  O   UNK N   1      -0.106   2.548  -0.832  0.00  0.00    -0.357 OA
HETATM   19  H   UNK N   1       0.181   3.397  -1.107  0.00  0.00     0.217 HD
ENDBRANCH   3  18
BRANCH   4  20
HETATM   20  C   UNK N   1       2.744   3.031   0.118  0.00  0.00    -0.017 A 
HETATM   21  C   UNK N   1       2.160   4.251  -0.256  0.00  0.00     0.014 A 
HETATM   22  C   UNK N   1       2.898   5.436  -0.190  0.00  0.00     0.024 A 
HETATM   23  C   UNK N   1       4.225   5.410   0.247  0.00  0.00     0.034 A 
HETATM   24 Cl   UNK N   1       5.159   6.888   0.301  0.00  0.00    -0.084 Cl
HETATM   25  C   UNK N   1       4.810   4.202   0.630  0.00  0.00     0.024 A 
HETATM   26  C   UNK N   1       4.073   3.018   0.564  0.00  0.00     0.014 A 
ENDBRANCH   4  20
TORSDOF 3
