REMARK  6 active torsions:
REMARK  status: ('A' for Active; 'I' for Inactive)
REMARK    1  A    between atoms: C_6  and  N_12 
REMARK    2  A    between atoms: C_10  and  C_22 
REMARK    3  A    between atoms: C_11  and  C_16 
REMARK    4  A    between atoms: N_12  and  C_13 
REMARK    5  A    between atoms: C_13  and  C_14 
REMARK    6  A    between atoms: C_14  and  N_15 
ROOT
HETATM    1  C   UNK N   1       2.822   2.135  -0.248  0.00  0.00     0.184 A 
HETATM    2  N   UNK N   1       1.572   2.665  -0.136  0.00  0.00    -0.332 N 
ATOM      3  HN  UNK N   1       1.437   3.675  -0.097  1.00  0.00     0.168 HD
HETATM    4  C   UNK N   1       0.515   1.823  -0.076  0.00  0.00     0.164 A 
HETATM    5  C   UNK N   1       0.644   0.463  -0.121  0.00  0.00     0.073 A 
HETATM    6  C   UNK N   1       1.940  -0.081  -0.198  0.00  0.00     0.117 A 
HETATM    7  N   UNK N   1       2.998   0.779  -0.273  0.00  0.00    -0.338 N 
ATOM      8  HN  UNK N   1       3.943   0.401  -0.349  1.00  0.00     0.168 HD
HETATM    9  O   UNK N   1      -0.736   2.180   0.025  0.00  0.00    -0.291 OA
HETATM   10  C   UNK N   1      -1.490   1.095   0.037  0.00  0.00     0.100 A 
HETATM   11  C   UNK N   1      -0.658  -0.049  -0.053  0.00  0.00     0.027 A 
ENDROOT
BRANCH   6  12
HETATM   12  N   UNK N   1       2.192  -1.468  -0.137  0.00  0.00    -0.374 N 
HETATM   13  H   UNK N   1       2.594  -1.930  -0.908  0.00  0.00     0.161 HD
BRANCH  12  14
HETATM   14  C   UNK N   1       1.860  -2.210   1.055  0.00  0.00     0.151 C 
BRANCH  14  15
HETATM   15  C   UNK N   1       2.083  -3.713   0.870  0.00  0.00     0.292 C 
BRANCH  15  16
HETATM   16  N   UNK N   1       3.272  -4.040   0.085  0.00  0.00     0.093 N 
HETATM   17  C   UNK N   1       4.461  -3.461   0.716  0.00  0.00     0.291 C 
HETATM   18  C   UNK N   1       5.705  -3.885  -0.060  0.00  0.00     0.144 C 
HETATM   19  N   UNK N   1       5.833  -5.339  -0.010  0.00  0.00    -0.418 N 
HETATM   20  C   UNK N   1       4.653  -5.938  -0.632  0.00  0.00     0.144 C 
HETATM   21  H   UNK N   1       6.616  -5.852   0.393  0.00  0.00     0.153 HD
HETATM   22  C   UNK N   1       3.389  -5.498   0.108  0.00  0.00     0.291 C 
ENDBRANCH  15  16
ENDBRANCH  14  15
ENDBRANCH  12  14
ENDBRANCH   6  12
BRANCH  11  23
HETATM   23  C   UNK N   1      -1.072  -1.480  -0.093  0.00  0.00    -0.022 A 
HETATM   24  C   UNK N   1      -0.388  -2.400  -0.902  0.00  0.00     0.012 A 
HETATM   25  C   UNK N   1      -0.778  -3.742  -0.942  0.00  0.00     0.001 A 
HETATM   26  C   UNK N   1      -1.852  -4.182  -0.166  0.00  0.00     0.000 A 
HETATM   27  C   UNK N   1      -2.539  -3.278   0.646  0.00  0.00     0.001 A 
HETATM   28  C   UNK N   1      -2.150  -1.937   0.679  0.00  0.00     0.012 A 
ENDBRANCH  11  23
BRANCH  10  29
HETATM   29  C   UNK N   1      -2.972   1.211   0.031  0.00  0.00    -0.001 A 
HETATM   30  C   UNK N   1      -3.809   0.120  -0.236  0.00  0.00     0.014 A 
HETATM   31  C   UNK N   1      -5.196   0.277  -0.285  0.00  0.00     0.001 A 
HETATM   32  C   UNK N   1      -5.762   1.535  -0.077  0.00  0.00     0.000 A 
HETATM   33  C   UNK N   1      -4.940   2.635   0.174  0.00  0.00     0.001 A 
HETATM   34  C   UNK N   1      -3.551   2.474   0.221  0.00  0.00     0.014 A 
ENDBRANCH  10  29
TORSDOF 6
