REMARK  7 active torsions:
REMARK  status: ('A' for Active; 'I' for Inactive)
REMARK    1  A    between atoms: C_2  and  O_8 
REMARK    2  A    between atoms: C_2  and  C_9 
REMARK    3  A    between atoms: C_4  and  O_15 
REMARK    4  A    between atoms: C_9  and  O_10 
REMARK    5  A    between atoms: O_10  and  C_11 
REMARK    6  A    between atoms: C_18  and  N_26 
REMARK    7  A    between atoms: C_21  and  N_25 
ROOT
HETATM    1  C   UNK N   1       0.696  -2.096   0.069  0.00  0.00     0.046 A 
HETATM    2  C   UNK N   1       1.946   0.426  -0.087  0.00  0.00     0.102 A 
HETATM    3  C   UNK N   1      -2.242   0.143  -0.088  0.00  0.00     0.062 A 
HETATM    4  C   UNK N   1      -2.089  -2.265   0.053  0.00  0.00     0.034 A 
HETATM    5  C   UNK N   1       2.740  -0.759  -0.011  0.00  0.00     0.104 A 
HETATM    6  C   UNK N   1       2.094  -2.008   0.081  0.00  0.00     0.070 A 
HETATM    7  C   UNK N   1      -0.070  -0.922  -0.027  0.00  0.00     0.005 A 
HETATM    8  C   UNK N   1       0.564   0.317  -0.106  0.00  0.00     0.054 A 
HETATM    9  C   UNK N   1      -1.464  -1.009  -0.027  0.00  0.00    -0.005 A 
HETATM   10  C   UNK N   1      -3.627   0.056  -0.066  0.00  0.00     0.114 A 
HETATM   11  N   UNK N   1      -4.227  -1.170   0.000  0.00  0.00    -0.328 N 
ATOM     12  HN  UNK N   1      -5.245  -1.226   0.009  1.00  0.00     0.169 HD
HETATM   13  C   UNK N   1      -3.496  -2.323   0.055  0.00  0.00     0.113 A 
HETATM   14  C   UNK N   1      -1.287  -3.415   0.133  0.00  0.00     0.104 A 
HETATM   15  N   UNK N   1       0.074  -3.307   0.144  0.00  0.00    -0.364 N 
ATOM     16  HN  UNK N   1       0.640  -4.154   0.210  1.00  0.00     0.165 HD
ENDROOT
BRANCH  10  17
HETATM   17  N   UNK N   1      -4.405   1.260  -0.079  0.00  0.00    -0.303 N 
HETATM   18  C   UNK N   1      -3.916   2.514  -0.115  0.00  0.00     0.116 A 
HETATM   19  C   UNK N   1      -4.985   3.382  -0.089  0.00  0.00     0.106 A 
HETATM   20  N   UNK N   1      -6.124   2.658  -0.035  0.00  0.00    -0.360 N 
HETATM   21  C   UNK N   1      -5.742   1.365  -0.029  0.00  0.00     0.189 A 
ATOM     22  HN  UNK N   1      -7.078   3.017  -0.005  1.00  0.00     0.166 HD
ENDBRANCH  10  17
BRANCH  13  23
HETATM   23  N   UNK N   1      -4.164  -3.566   0.128  0.00  0.00    -0.385 N 
HETATM   24  H   UNK N   1      -5.147  -3.596   0.179  0.00  0.00     0.157 HD
HETATM   25  H   UNK N   1      -3.646  -4.403   0.128  0.00  0.00     0.157 HD
ENDBRANCH  13  23
BRANCH   2  26
HETATM   26  O   UNK N   1       2.454   1.679  -0.117  0.00  0.00    -0.353 OA
HETATM   27  C   UNK N   1       3.426   2.112   0.750  0.00  0.00     0.210 C 
ENDBRANCH   2  26
BRANCH   5  28
HETATM   28  O   UNK N   1       4.096  -0.747  -0.056  0.00  0.00    -0.346 OA
BRANCH  28  29
HETATM   29  C   UNK N   1       4.811   0.135  -0.838  0.00  0.00     0.201 C 
BRANCH  29  30
HETATM   30  C   UNK N   1       6.221   0.317  -0.301  0.00  0.00     0.193 C 
BRANCH  30  31
HETATM   31  O   UNK N   1       6.246   1.325   0.667  0.00  0.00    -0.394 OA
HETATM   32  C   UNK N   1       6.676   2.469  -0.011  0.00  0.00     0.201 C 
ENDBRANCH  30  31
ENDBRANCH  29  30
ENDBRANCH  28  29
ENDBRANCH   5  28
TORSDOF 7
