REMARK  6 active torsions:
REMARK  status: ('A' for Active; 'I' for Inactive)
REMARK    1  A    between atoms: O_2  and  C_3 
REMARK    2  A    between atoms: C_8  and  C_10 
REMARK    3  A    between atoms: C_14  and  C_15 
REMARK    4  A    between atoms: C_15  and  N_16 
REMARK    5  A    between atoms: N_16  and  C_17 
REMARK    6  A    between atoms: C_23  and  N_24 
ROOT
HETATM    1  C   UNK N   1       1.673   1.056  -0.054  0.00  0.00    -0.024 A 
HETATM    2  C   UNK N   1       0.631   1.899  -0.476  0.00  0.00     0.012 A 
HETATM    3  C   UNK N   1      -0.695   1.451  -0.448  0.00  0.00     0.001 A 
HETATM    4  C   UNK N   1      -0.994   0.170   0.032  0.00  0.00     0.009 A 
HETATM    5  C   UNK N   1       0.039  -0.670   0.463  0.00  0.00    -0.040 A 
HETATM    6  C   UNK N   1       1.360  -0.226   0.417  0.00  0.00     0.021 A 
ENDROOT
BRANCH   5   7
HETATM    7  C   UNK N   1      -0.252  -1.981   1.106  0.00  0.00     0.158 C 
BRANCH   7   8
HETATM    8  N   UNK N   1      -0.776  -2.958   0.185  0.00  0.00    -0.383 N 
HETATM    9  H   UNK N   1      -1.604  -2.753  -0.307  0.00  0.00     0.160 HD
BRANCH   8  10
HETATM   10  C   UNK N   1      -0.135  -4.210  -0.037  0.00  0.00     0.072 A 
HETATM   11  C   UNK N   1       1.261  -4.400   0.121  0.00  0.00     0.125 A 
HETATM   12  N   UNK N   1       1.800  -5.635  -0.074  0.00  0.00    -0.351 N 
HETATM   13  C   UNK N   1       1.036  -6.706  -0.412  0.00  0.00     0.090 A 
ATOM     14  HN  UNK N   1       2.806  -5.760   0.038  1.00  0.00     0.166 HD
HETATM   15  C   UNK N   1      -0.339  -6.558  -0.588  0.00  0.00     0.019 A 
HETATM   16  C   UNK N   1      -0.920  -5.304  -0.405  0.00  0.00     0.034 A 
BRANCH  11  17
HETATM   17  N   UNK N   1       2.115  -3.330   0.454  0.00  0.00    -0.384 N 
HETATM   18  H   UNK N   1       3.061  -3.473   0.686  0.00  0.00     0.157 HD
HETATM   19  H   UNK N   1       1.756  -2.413   0.454  0.00  0.00     0.157 HD
ENDBRANCH  11  17
ENDBRANCH   8  10
ENDBRANCH   7   8
ENDBRANCH   5   7
BRANCH   1  20
HETATM   20  C   UNK N   1       3.080   1.518  -0.042  0.00  0.00    -0.008 A 
HETATM   21  C   UNK N   1       4.120   0.617   0.234  0.00  0.00     0.100 A 
HETATM   22  N   UNK N   1       5.410   1.044   0.278  0.00  0.00    -0.372 N 
HETATM   23  C   UNK N   1       5.731   2.350   0.086  0.00  0.00     0.124 A 
ATOM     24  HN  UNK N   1       6.153   0.368   0.458  1.00  0.00     0.164 HD
HETATM   25  C   UNK N   1       4.727   3.294  -0.181  0.00  0.00     0.084 A 
HETATM   26  C   UNK N   1       3.400   2.865  -0.257  0.00  0.00     0.051 A 
BRANCH  25  27
HETATM   27  O   UNK N   1       5.010   4.608  -0.346  0.00  0.00    -0.355 OA
HETATM   28  C   UNK N   1       6.279   5.125  -0.215  0.00  0.00     0.210 C 
ENDBRANCH  25  27
ENDBRANCH   1  20
TORSDOF 6
