REMARK  5 active torsions:
REMARK  status: ('A' for Active; 'I' for Inactive)
REMARK    1  A    between atoms: O_1  and  C_2 
REMARK    2  A    between atoms: C_2  and  C_4 
REMARK    3  A    between atoms: C_8  and  C_9 
REMARK    4  A    between atoms: C_14  and  O_15 
REMARK    5  A    between atoms: O_15  and  C_16 
ROOT
HETATM    1  C   UNK N   1       0.798  -0.478  -0.075  0.00  0.00     0.031 A 
HETATM    2  C   UNK N   1       2.172  -0.215   0.034  0.00  0.00     0.017 A 
HETATM    3  C   UNK N   1       3.095  -1.261   0.077  0.00  0.00     0.001 A 
HETATM    4  C   UNK N   1       2.656  -2.583   0.013  0.00  0.00     0.003 A 
HETATM    5  C   UNK N   1       1.291  -2.861  -0.094  0.00  0.00     0.038 A 
HETATM    6  C   UNK N   1       0.350  -1.818  -0.137  0.00  0.00     0.091 A 
ENDROOT
BRANCH   1   7
HETATM    7  C   UNK N   1      -0.145   0.663  -0.086  0.00  0.00     0.089 A 
HETATM    8  O   UNK N   1       0.230   1.917  -0.031  0.00  0.00    -0.303 OA
HETATM    9  C   UNK N   1      -0.836   2.677  -0.036  0.00  0.00     0.149 A 
HETATM   10  C   UNK N   1      -1.977   1.900  -0.096  0.00  0.00     0.047 A 
HETATM   11  C   UNK N   1      -1.531   0.594  -0.128  0.00  0.00     0.041 A 
BRANCH   9  12
HETATM   12  C   UNK N   1      -0.807   4.142   0.013  0.00  0.00     0.201 C 
HETATM   13  O   UNK N   1       0.263   4.729   0.051  0.00  0.00    -0.645 OA
BRANCH  12  14
HETATM   14  O   UNK N   1      -1.955   4.844   0.016  0.00  0.00    -0.771 OA
HETATM   15  H   UNK N   1      -1.932   5.781   0.018  0.00  0.00     0.167 HD
ENDBRANCH  12  14
ENDBRANCH   9  12
ENDBRANCH   1   7
BRANCH   6  16
HETATM   16  O   UNK N   1      -0.982  -2.067  -0.250  0.00  0.00    -0.254 OA
BRANCH  16  17
HETATM   17  C   UNK N   1      -1.672  -3.216   0.092  0.00  0.00     0.530 C 
HETATM   18  F   UNK N   1      -2.187  -3.800  -1.048  0.00  0.00    -0.144 F 
HETATM   19  F   UNK N   1      -2.719  -2.854   0.918  0.00  0.00    -0.144 F 
HETATM   20  F   UNK N   1      -0.886  -4.133   0.767  0.00  0.00    -0.144 F 
ENDBRANCH  16  17
ENDBRANCH   6  16
TORSDOF 5
