REMARK  4 active torsions:
REMARK  status: ('A' for Active; 'I' for Inactive)
REMARK    1  A    between atoms: O_1  and  C_2 
REMARK    2  A    between atoms: C_2  and  C_4 
REMARK    3  A    between atoms: C_8  and  C_9 
REMARK    4  A    between atoms: C_12  and  N_13 
ROOT
HETATM    1  C   UNK N   1       0.078  -0.390  -0.000  0.00  0.00     0.020 A 
HETATM    2  C   UNK N   1       1.454  -0.124  -0.000  0.00  0.00     0.018 A 
HETATM    3  C   UNK N   1       2.385  -1.154  -0.000  0.00  0.00     0.037 A 
HETATM    4  C   UNK N   1       1.959  -2.484   0.000  0.00  0.00     0.104 A 
HETATM    5  C   UNK N   1       0.584  -2.766   0.000  0.00  0.00     0.060 A 
HETATM    6  C   UNK N   1      -0.362  -1.736  -0.000  0.00  0.00     0.049 A 
HETATM    7 Cl   UNK N   1      -2.060  -2.192  -0.000  0.00  0.00    -0.083 Cl
ENDROOT
BRANCH   1   8
HETATM    8  C   UNK N   1      -0.815   0.782  -0.000  0.00  0.00     0.088 A 
HETATM    9  O   UNK N   1      -0.338   1.998   0.000  0.00  0.00    -0.303 OA
HETATM   10  C   UNK N   1      -1.326   2.846   0.000  0.00  0.00     0.149 A 
HETATM   11  C   UNK N   1      -2.533   2.172  -0.000  0.00  0.00     0.047 A 
HETATM   12  C   UNK N   1      -2.201   0.824  -0.000  0.00  0.00     0.041 A 
BRANCH  10  13
HETATM   13  C   UNK N   1      -1.123   4.296   0.000  0.00  0.00     0.201 C 
HETATM   14  O   UNK N   1       0.012   4.747   0.000  0.00  0.00    -0.645 OA
BRANCH  13  15
HETATM   15  O   UNK N   1      -2.175   5.133  -0.000  0.00  0.00    -0.771 OA
HETATM   16  H   UNK N   1      -2.037   6.060  -0.000  0.00  0.00     0.167 HD
ENDBRANCH  13  15
ENDBRANCH  10  13
ENDBRANCH   1   8
BRANCH   4  17
HETATM   17  N   UNK N   1       2.915  -3.532   0.000  0.00  0.00    -0.116 N 
HETATM   18  O   UNK N   1       4.202  -3.255   0.000  0.00  0.00    -0.532 OA
HETATM   19  O   UNK N   1       2.560  -4.673   0.000  0.00  0.00    -0.532 OA
ENDBRANCH   4  17
TORSDOF 4
