REMARK  4 active torsions:
REMARK  status: ('A' for Active; 'I' for Inactive)
REMARK    1  A    between atoms: C_2  and  C_4 
REMARK    2  A    between atoms: C_2  and  O_3 
REMARK    3  A    between atoms: C_8  and  C_9 
REMARK    4  A    between atoms: C_9  and  C_10 
ROOT
HETATM    1  C   UNK N   1      -0.055   3.081  -0.229  0.00  0.00     0.148 A 
HETATM    2  O   UNK N   1       0.725   2.229   0.380  0.00  0.00    -0.308 OA
HETATM    3  C   UNK N   1      -0.631   2.486  -1.340  0.00  0.00     0.047 A 
HETATM    4  C   UNK N   1      -0.129   1.191  -1.371  0.00  0.00     0.036 A 
HETATM    5  C   UNK N   1       0.702   1.092  -0.267  0.00  0.00     0.058 A 
ENDROOT
BRANCH   5   6
HETATM    6  C   UNK N   1       1.513  -0.089   0.164  0.00  0.00     0.105 C 
BRANCH   6   7
HETATM    7  C   UNK N   1       0.879  -1.455   0.099  0.00  0.00    -0.030 A 
HETATM    8  C   UNK N   1       1.699  -2.505  -0.334  0.00  0.00     0.009 A 
HETATM    9  C   UNK N   1       1.223  -3.816  -0.371  0.00  0.00     0.001 A 
HETATM   10  C   UNK N   1      -0.086  -4.094   0.021  0.00  0.00     0.002 A 
HETATM   11  C   UNK N   1      -0.917  -3.059   0.455  0.00  0.00     0.024 A 
HETATM   12  C   UNK N   1      -0.449  -1.741   0.505  0.00  0.00     0.040 A 
HETATM   13 Cl   UNK N   1      -1.555  -0.507   1.091  0.00  0.00    -0.084 Cl
ENDBRANCH   6   7
ENDBRANCH   5   6
BRANCH   1  14
HETATM   14  C   UNK N   1      -0.247   4.469   0.217  0.00  0.00     0.201 C 
HETATM   15  O   UNK N   1      -1.010   5.210  -0.377  0.00  0.00    -0.645 OA
BRANCH  14  16
HETATM   16  O   UNK N   1       0.439   4.929   1.282  0.00  0.00    -0.771 OA
HETATM   17  H   UNK N   1       0.955   4.676   2.023  0.00  0.00     0.167 HD
ENDBRANCH  14  16
ENDBRANCH   1  14
TORSDOF 4
