REMARK  5 active torsions:
REMARK  status: ('A' for Active; 'I' for Inactive)
REMARK    1  A    between atoms: C_5  and  S_8 
REMARK    2  A    between atoms: S_8  and  N_11 
REMARK    3  A    between atoms: N_11  and  C_12 
REMARK    4  A    between atoms: C_17  and  C_19 
REMARK    5  A    between atoms: C_19  and  O_20 
ROOT
HETATM    1  N   UNK N   1       1.312  -1.168  -0.930  0.00  0.00    -0.280 N 
HETATM    2  H   UNK N   1       1.619  -1.169  -1.865  0.00  0.00     0.179 HD
ENDROOT
BRANCH   1   3
HETATM    3  S   UNK N   1       2.105  -0.130   0.249  0.00  0.00     0.263 S 
HETATM    4  O   UNK N   1       1.757  -0.719   1.625  0.00  0.00    -0.200 OA
HETATM    5  O   UNK N   1       3.595  -0.484   0.134  0.00  0.00    -0.200 OA
BRANCH   3   6
HETATM    6  C   UNK N   1       1.826   1.636   0.153  0.00  0.00     0.080 A 
HETATM    7  C   UNK N   1       2.607   2.417  -0.705  0.00  0.00     0.027 A 
HETATM    8  C   UNK N   1       2.386   3.794  -0.797  0.00  0.00     0.025 A 
HETATM    9  C   UNK N   1       1.380   4.393  -0.034  0.00  0.00     0.034 A 
HETATM   10 Cl   UNK N   1       1.101   6.118  -0.159  0.00  0.00    -0.084 Cl
HETATM   11  C   UNK N   1       0.597   3.615   0.826  0.00  0.00     0.025 A 
HETATM   12  C   UNK N   1       0.821   2.237   0.920  0.00  0.00     0.027 A 
ENDBRANCH   3   6
ENDBRANCH   1   3
BRANCH   1  13
HETATM   13  C   UNK N   1       0.236  -2.000  -0.544  0.00  0.00     0.059 A 
HETATM   14  C   UNK N   1       0.502  -3.344  -0.257  0.00  0.00     0.032 A 
HETATM   15  C   UNK N   1      -0.516  -4.192   0.179  0.00  0.00     0.021 A 
HETATM   16  C   UNK N   1      -1.811  -3.701   0.339  0.00  0.00     0.012 A 
HETATM   17  C   UNK N   1      -2.093  -2.365   0.045  0.00  0.00     0.039 A 
HETATM   18 Br   UNK N   1      -3.197  -4.852   0.959  0.00  0.00    -0.051 Br
HETATM   19  C   UNK N   1      -1.085  -1.499  -0.404  0.00  0.00     0.066 A 
BRANCH  19  20
HETATM   20  C   UNK N   1      -1.458  -0.097  -0.727  0.00  0.00     0.178 C 
HETATM   21  O   UNK N   1      -0.652   0.668  -1.230  0.00  0.00    -0.646 OA
BRANCH  20  22
HETATM   22  O   UNK N   1      -2.716   0.332  -0.503  0.00  0.00    -0.773 OA
HETATM   23  H   UNK N   1      -2.895   1.239  -0.347  0.00  0.00     0.167 HD
ENDBRANCH  20  22
ENDBRANCH  19  20
ENDBRANCH   1  13
TORSDOF 5
