REMARK  3 active torsions:
REMARK  status: ('A' for Active; 'I' for Inactive)
REMARK    1  A    between atoms: C_5  and  S_7 
REMARK    2  A    between atoms: S_7  and  N_10 
REMARK    3  A    between atoms: N_10  and  C_11 
ROOT
HETATM    1  N   UNK N   1      -1.078   1.706   0.557  0.00  0.00    -0.245 N 
HETATM    2  H   UNK N   1      -1.464   2.311   1.230  0.00  0.00     0.182 HD
ENDROOT
BRANCH   1   3
HETATM    3  S   UNK N   1      -2.152   0.699  -0.410  0.00  0.00     0.267 S 
HETATM    4  O   UNK N   1      -1.634   0.815  -1.851  0.00  0.00    -0.200 OA
HETATM    5  O   UNK N   1      -3.395   1.595  -0.527  0.00  0.00    -0.200 OA
BRANCH   3   6
HETATM    6  C   UNK N   1      -2.713  -0.978  -0.016  0.00  0.00     0.103 A 
HETATM    7  C   UNK N   1      -4.095  -1.211   0.001  0.00  0.00     0.050 A 
HETATM    8  C   UNK N   1      -4.602  -2.491   0.233  0.00  0.00     0.035 A 
HETATM    9  C   UNK N   1      -3.732  -3.557   0.450  0.00  0.00     0.025 A 
HETATM   10 Cl   UNK N   1      -6.330  -2.763   0.228  0.00  0.00    -0.084 Cl
HETATM   11  C   UNK N   1      -2.355  -3.344   0.435  0.00  0.00     0.027 A 
HETATM   12  C   UNK N   1      -1.835  -2.067   0.200  0.00  0.00     0.057 A 
HETATM   13 Cl   UNK N   1      -0.098  -1.910   0.162  0.00  0.00    -0.083 Cl
ENDBRANCH   3   6
ENDBRANCH   1   3
BRANCH   1  14
HETATM   14  C   UNK N   1       0.325   1.665   0.390  0.00  0.00     0.239 A 
HETATM   15  N   UNK N   1       1.163   2.658   0.788  0.00  0.00    -0.319 N 
HETATM   16  C   UNK N   1       2.372   2.201   0.411  0.00  0.00     0.071 A 
ATOM     17  HN  UNK N   1       0.933   3.534   1.258  1.00  0.00     0.169 HD
HETATM   18  C   UNK N   1       3.615   2.811   0.546  0.00  0.00     0.056 A 
HETATM   19  C   UNK N   1       2.232   0.979  -0.173  0.00  0.00     0.106 A 
HETATM   20  C   UNK N   1       4.739   2.106   0.063  0.00  0.00     0.036 A 
HETATM   21 Cl   UNK N   1       6.333   2.821   0.169  0.00  0.00    -0.084 Cl
HETATM   22  C   UNK N   1       4.587   0.825  -0.521  0.00  0.00     0.026 A 
HETATM   23  C   UNK N   1       3.312   0.246  -0.646  0.00  0.00     0.041 A 
HETATM   24  O   UNK N   1       0.967   0.672  -0.192  0.00  0.00    -0.277 OA
ENDBRANCH   1  14
TORSDOF 3
