REMARK  6 active torsions:
REMARK  status: ('A' for Active; 'I' for Inactive)
REMARK    1  A    between atoms: N_2  and  C_1 
REMARK       I    between atoms: C_3  and  N_2 
REMARK    2  A    between atoms: C_4  and  C_3 
REMARK    3  A    between atoms: C_17  and  C_20 
REMARK    4  A    between atoms: C_20  and  C_21 
REMARK    5  A    between atoms: C_20  and  O_22 
REMARK    6  A    between atoms: O_23  and  C_21 
ROOT
HETATM    1  N   UNK N   1       0.768  -0.749  -0.119  0.00  0.00    -0.322 N 
HETATM    2  C   UNK N   1       1.453   0.431  -0.088  0.00  0.00     0.272 C 
HETATM    3  O   UNK N   1       0.854   1.496  -0.076  0.00  0.00    -0.266 OA
HETATM    4  H   UNK N   1       1.273  -1.587  -0.230  0.00  0.00     0.169 HD
ENDROOT
BRANCH   1   5
HETATM    5  C   UNK N   1      -0.650  -0.816   0.004  0.00  0.00     0.035 A 
HETATM    6  C   UNK N   1      -1.363  -1.846  -0.623  0.00  0.00     0.030 A 
HETATM    7  C   UNK N   1      -2.765  -1.859  -0.575  0.00  0.00     0.012 A 
HETATM    8  C   UNK N   1      -3.460  -0.851   0.119  0.00  0.00    -0.028 A 
HETATM    9  C   UNK N   1      -2.737   0.141   0.788  0.00  0.00     0.012 A 
HETATM   10  C   UNK N   1      -1.351   0.162   0.725  0.00  0.00     0.030 A 
BRANCH   8  11
HETATM   11  C   UNK N   1      -4.963  -0.787   0.141  0.00  0.00     0.174 C 
BRANCH  11  12
HETATM   12  C   UNK N   1      -5.411   0.551  -0.443  0.00  0.00     0.200 C 
BRANCH  12  13
HETATM   13  O   UNK N   1      -6.787   0.720  -0.291  0.00  0.00    -0.398 OA
HETATM   14  H   UNK N   1      -7.163   1.607  -0.184  0.00  0.00     0.209 HD
ENDBRANCH  12  13
ENDBRANCH  11  12
BRANCH  11  15
HETATM   15  O   UNK N   1      -5.526  -1.829  -0.600  0.00  0.00    -0.389 OA
HETATM   16  H   UNK N   1      -6.348  -1.851  -1.115  0.00  0.00     0.210 HD
ENDBRANCH  11  15
ENDBRANCH   8  11
ENDBRANCH   1   5
BRANCH   2  17
HETATM   17  C   UNK N   1       2.921   0.451  -0.097  0.00  0.00     0.102 A 
HETATM   18  N   UNK N   1       3.711  -0.649  -0.058  0.00  0.00    -0.351 N 
HETATM   19  C   UNK N   1       4.968  -0.173  -0.040  0.00  0.00     0.043 A 
HETATM   20  H   UNK N   1       3.426  -1.591  -0.045  0.00  0.00     0.166 HD
HETATM   21  C   UNK N   1       4.974   1.194  -0.070  0.00  0.00    -0.005 A 
HETATM   22  C   UNK N   1       6.149  -0.908   0.014  0.00  0.00     0.032 A 
HETATM   23  C   UNK N   1       3.675   1.623  -0.106  0.00  0.00     0.049 A 
HETATM   24  C   UNK N   1       6.153   1.930  -0.052  0.00  0.00     0.037 A 
HETATM   25  C   UNK N   1       7.364   1.221   0.001  0.00  0.00     0.035 A 
HETATM   26  C   UNK N   1       7.363  -0.194   0.035  0.00  0.00     0.026 A 
HETATM   27 Cl   UNK N   1       8.878   2.098   0.032  0.00  0.00    -0.084 Cl
ENDBRANCH   2  17
TORSDOF 6
