REMARK  9 active torsions:
REMARK  status: ('A' for Active; 'I' for Inactive)
REMARK    1  A    between atoms: C_2  and  C_4 
REMARK       I    between atoms: N_3  and  C_2 
REMARK    2  A    between atoms: C_7  and  C_4 
REMARK    3  A    between atoms: C_7  and  N_8 
REMARK    4  A    between atoms: C_13  and  N_14 
REMARK    5  A    between atoms: N_14  and  C_15 
REMARK       I    between atoms: N_14  and  C_18 
REMARK    6  A    between atoms: C_20  and  C_18 
REMARK    7  A    between atoms: C_26  and  C_25 
REMARK    8  A    between atoms: C_26  and  O_28 
REMARK    9  A    between atoms: C_29  and  C_26 
ROOT
HETATM    1  N   UNK N   1      -0.191  -0.297  -0.245  0.00  0.00    -0.338 N 
HETATM    2  C   UNK N   1       0.834   0.620  -0.358  0.00  0.00     0.254 C 
HETATM    3  O   UNK N   1       0.560   1.781  -0.670  0.00  0.00    -0.267 OA
ENDROOT
BRANCH   1   4
HETATM    4  C   UNK N   1      -1.549   0.189  -0.191  0.00  0.00     0.091 C 
HETATM    5  C   UNK N   1      -1.972   0.825  -1.525  0.00  0.00     0.055 C 
HETATM    6  C   UNK N   1      -3.253   1.663  -1.373  0.00  0.00     0.274 C 
HETATM    7  N   UNK N   1      -3.345   2.464  -0.126  0.00  0.00     0.089 N 
HETATM    8  C   UNK N   1      -2.051   2.564   0.547  0.00  0.00     0.274 C 
HETATM    9  C   UNK N   1      -1.611   1.168   0.996  0.00  0.00     0.055 C 
BRANCH   7  10
HETATM   10  C   UNK N   1      -4.249   1.876   0.874  0.00  0.00     0.291 C 
BRANCH  10  11
HETATM   11  C   UNK N   1      -5.476   1.198   0.317  0.00  0.00     0.067 A 
HETATM   12  C   UNK N   1      -5.829   0.029   1.221  0.00  0.00     0.022 A 
HETATM   13  C   UNK N   1      -5.387  -0.224  -0.206  0.00  0.00     0.022 A 
BRANCH  11  14
HETATM   14  C   UNK N   1      -6.649   2.053  -0.047  0.00  0.00     0.226 C 
HETATM   15  O   UNK N   1      -6.485   3.014  -0.780  0.00  0.00    -0.273 OA
HETATM   16  N   UNK N   1      -7.876   1.795   0.451  0.00  0.00    -0.369 N 
HETATM   17  H   UNK N   1      -8.486   2.477   0.814  0.00  0.00     0.159 HD
HETATM   18  H   UNK N   1      -8.182   0.860   0.451  0.00  0.00     0.159 HD
ENDBRANCH  11  14
ENDBRANCH  10  11
ENDBRANCH   7  10
ENDBRANCH   1   4
BRANCH   1  19
HETATM   19  C   UNK N   1       0.025  -1.723  -0.006  0.00  0.00     0.088 A 
HETATM   20  C   UNK N   1       0.682  -2.376  -1.222  0.00  0.00     0.027 A 
HETATM   21  C   UNK N   1      -0.790  -2.567  -0.983  0.00  0.00     0.027 A 
ENDBRANCH   1  19
BRANCH   2  22
HETATM   22  C   UNK N   1       2.248   0.332  -0.075  0.00  0.00     0.032 A 
HETATM   23  C   UNK N   1       3.180   1.351  -0.291  0.00  0.00     0.017 A 
HETATM   24  C   UNK N   1       4.534   1.099  -0.172  0.00  0.00     0.011 A 
HETATM   25  C   UNK N   1       4.981  -0.172   0.206  0.00  0.00    -0.015 A 
HETATM   26  C   UNK N   1       4.045  -1.159   0.543  0.00  0.00     0.011 A 
HETATM   27  C   UNK N   1       2.688  -0.903   0.415  0.00  0.00     0.017 A 
BRANCH  25  28
HETATM   28  C   UNK N   1       6.400  -0.543  -0.126  0.00  0.00     0.179 C 
HETATM   29  C   UNK N   1       6.452  -0.579  -1.651  0.00  0.00     0.061 C 
BRANCH  28  30
HETATM   30  O   UNK N   1       7.270   0.452   0.325  0.00  0.00    -0.376 OA
HETATM   31  H   UNK N   1       8.171   0.274   0.638  0.00  0.00     0.211 HD
ENDBRANCH  28  30
BRANCH  28  32
HETATM   32  C   UNK N   1       6.870  -1.910   0.407  0.00  0.00     0.422 C 
HETATM   33  F   UNK N   1       6.003  -2.930   0.049  0.00  0.00    -0.167 F 
HETATM   34  F   UNK N   1       6.977  -1.869   1.785  0.00  0.00    -0.167 F 
HETATM   35  F   UNK N   1       8.113  -2.201  -0.127  0.00  0.00    -0.167 F 
ENDBRANCH  28  32
ENDBRANCH  25  28
ENDBRANCH   2  22
TORSDOF 9
