REMARK  2 active torsions:
REMARK  status: ('A' for Active; 'I' for Inactive)
REMARK    1  A    between atoms: C_7  and  N_8 
REMARK    2  A    between atoms: N_8  and  C_9 
ROOT
HETATM    1  N   UNK N   1       0.210   0.198   0.001  0.00  0.00    -0.365 N 
HETATM    2  H   UNK N   1       0.653   1.077   0.001  0.00  0.00     0.165 HD
ENDROOT
BRANCH   1   3
HETATM    3  C   UNK N   1      -1.206   0.119   0.001  0.00  0.00     0.101 C 
HETATM    4  C   UNK N   1      -1.988   1.198   0.000  0.00  0.00     0.034 A 
HETATM    5  C   UNK N   1      -1.569   2.622  -0.000  0.00  0.00     0.073 A 
HETATM    6  C   UNK N   1      -3.413   1.152   0.000  0.00  0.00     0.290 A 
HETATM    7  C   UNK N   1      -2.947   3.355  -0.001  0.00  0.00     0.184 A 
HETATM    8  O   UNK N   1      -3.933   2.378  -0.000  0.00  0.00    -0.317 OA
HETATM    9  O   UNK N   1      -4.086   0.135   0.000  0.00  0.00    -0.260 OA
ENDBRANCH   1   3
BRANCH   1  10
HETATM   10  C   UNK N   1       0.988  -0.988   0.000  0.00  0.00     0.031 A 
HETATM   11  C   UNK N   1       2.385  -0.907  -0.000  0.00  0.00     0.029 A 
HETATM   12  C   UNK N   1       3.155  -2.076  -0.001  0.00  0.00     0.002 A 
HETATM   13  C   UNK N   1       2.532  -3.329  -0.001  0.00  0.00     0.000 A 
HETATM   14  C   UNK N   1       1.138  -3.415  -0.000  0.00  0.00     0.002 A 
HETATM   15  C   UNK N   1       0.370  -2.251   0.000  0.00  0.00     0.029 A 
ENDBRANCH   1  10
TORSDOF 2
