REMARK  5 active torsions:
REMARK  status: ('A' for Active; 'I' for Inactive)
REMARK    1  A    between atoms: C_9  and  N_14 
REMARK    2  A    between atoms: C_10  and  C_11 
REMARK    3  A    between atoms: C_11  and  O_12 
REMARK    4  A    between atoms: N_14  and  S_15 
REMARK    5  A    between atoms: S_15  and  C_16 
ROOT
HETATM    1  C   UNK N   1      -4.699  -1.367   0.469  0.00  0.00     0.005 C 
HETATM    2  C   UNK N   1      -3.386  -2.068   0.130  0.00  0.00     0.039 C 
HETATM    3  C   UNK N   1      -2.206  -1.141  -0.022  0.00  0.00    -0.051 A 
HETATM    4  C   UNK N   1      -2.351   0.269  -0.043  0.00  0.00    -0.033 A 
HETATM    5  C   UNK N   1      -3.729   0.872   0.107  0.00  0.00     0.040 C 
HETATM    6  C   UNK N   1      -4.836  -0.080  -0.318  0.00  0.00     0.005 C 
HETATM    7  C   UNK N   1      -0.946  -1.714  -0.150  0.00  0.00     0.010 A 
HETATM    8  C   UNK N   1       0.182  -0.916  -0.289  0.00  0.00     0.032 A 
HETATM    9  C   UNK N   1       0.075   0.475  -0.321  0.00  0.00     0.060 A 
HETATM   10  C   UNK N   1      -1.197   1.099  -0.196  0.00  0.00     0.071 A 
ENDROOT
BRANCH   9  11
HETATM   11  N   UNK N   1       1.249   1.256  -0.471  0.00  0.00    -0.280 N 
HETATM   12  H   UNK N   1       1.223   2.034  -1.074  0.00  0.00     0.179 HD
BRANCH  11  13
HETATM   13  S   UNK N   1       2.747   0.899   0.372  0.00  0.00     0.263 S 
HETATM   14  O   UNK N   1       2.362   0.953   1.857  0.00  0.00    -0.200 OA
HETATM   15  O   UNK N   1       3.543   2.207   0.251  0.00  0.00    -0.200 OA
BRANCH  13  16
HETATM   16  C   UNK N   1       3.798  -0.513   0.034  0.00  0.00     0.079 A 
HETATM   17  C   UNK N   1       5.188  -0.348   0.033  0.00  0.00     0.025 A 
HETATM   18  C   UNK N   1       6.029  -1.451  -0.141  0.00  0.00     0.002 A 
HETATM   19  C   UNK N   1       5.480  -2.726  -0.304  0.00  0.00     0.000 A 
HETATM   20  C   UNK N   1       4.092  -2.895  -0.298  0.00  0.00     0.002 A 
HETATM   21  C   UNK N   1       3.251  -1.791  -0.122  0.00  0.00     0.025 A 
ENDBRANCH  13  16
ENDBRANCH  11  13
ENDBRANCH   9  11
BRANCH  10  22
HETATM   22  C   UNK N   1      -1.307   2.605  -0.195  0.00  0.00     0.179 C 
HETATM   23  O   UNK N   1      -2.386   3.156  -0.063  0.00  0.00    -0.646 OA
BRANCH  22  24
HETATM   24  O   UNK N   1      -0.209   3.377  -0.320  0.00  0.00    -0.773 OA
HETATM   25  H   UNK N   1       0.637   2.984  -0.406  0.00  0.00     0.167 HD
ENDBRANCH  22  24
ENDBRANCH  10  22
TORSDOF 5
