REMARK  6 active torsions:
REMARK  status: ('A' for Active; 'I' for Inactive)
REMARK       I    between atoms: C_4  and  N_10 
REMARK    1  A    between atoms: C_7  and  C_11 
REMARK    2  A    between atoms: C_11  and  N_12 
REMARK    3  A    between atoms: N_12  and  S_13 
REMARK    4  A    between atoms: S_13  and  C_28 
REMARK    5  A    between atoms: C_22  and  N_23 
REMARK    6  A    between atoms: N_23  and  C_24 
ROOT
HETATM    1  S   UNK N   1      -0.751  -2.096   0.530  0.00  0.00     0.259 S 
HETATM    2  O   UNK N   1      -0.514  -1.961  -0.983  0.00  0.00    -0.201 OA
HETATM    3  O   UNK N   1      -0.332  -0.736   1.122  0.00  0.00    -0.201 OA
ENDROOT
BRANCH   1   4
HETATM    4  N   UNK N   1      -2.049  -1.053  -0.097  0.00  0.00    -0.310 N 
HETATM    5  H   UNK N   1      -2.158  -0.790  -1.076  0.00  0.00     0.172 HD
BRANCH   4   6
HETATM    6  C   UNK N   1      -2.936  -0.622   0.981  0.00  0.00     0.189 C 
BRANCH   6   7
HETATM    7  C   UNK N   1      -4.334  -0.562   0.493  0.00  0.00     0.046 A 
HETATM    8  N   UNK N   1      -4.936   0.641   0.288  0.00  0.00    -0.194 N 
HETATM    9  C   UNK N   1      -6.223   0.705  -0.144  0.00  0.00     0.676 A 
ATOM     10  HN  UNK N   1      -4.418   1.502   0.461  1.00  0.00     0.184 HD
HETATM   11  N   UNK N   1      -6.927  -0.436  -0.366  0.00  0.00    -0.196 N 
HETATM   12  N   UNK N   1      -6.831   1.958  -0.360  0.00  0.00    -0.234 N 
HETATM   13  C   UNK N   1      -6.357  -1.654  -0.165  0.00  0.00     0.024 A 
ATOM     14  HN  UNK N   1      -7.894  -0.378  -0.686  1.00  0.00     0.184 HD
HETATM   15  C   UNK N   1      -5.039  -1.741   0.268  0.00  0.00     0.052 A 
HETATM   16  C   UNK N   1      -7.141  -2.893  -0.399  0.00  0.00     0.068 C 
HETATM   17  H   UNK N   1      -6.285   2.764  -0.511  0.00  0.00     0.174 HD
HETATM   18  H   UNK N   1      -7.813   2.029  -0.360  0.00  0.00     0.174 HD
ENDBRANCH   6   7
ENDBRANCH   4   6
ENDBRANCH   1   4
BRANCH   1  19
HETATM   19  C   UNK N   1       1.069  -1.988   0.180  0.00  0.00     0.081 A 
HETATM   20  C   UNK N   1       1.864  -3.105   0.478  0.00  0.00     0.025 A 
HETATM   21  C   UNK N   1       3.255  -3.056   0.312  0.00  0.00     0.004 A 
HETATM   22  C   UNK N   1       3.874  -1.878  -0.119  0.00  0.00     0.029 A 
HETATM   23  C   UNK N   1       3.098  -0.756  -0.438  0.00  0.00     0.033 A 
HETATM   24  C   UNK N   1       1.720  -0.815  -0.300  0.00  0.00     0.054 A 
BRANCH  23  25
HETATM   25  N   UNK N   1       3.675   0.490  -0.767  0.00  0.00    -0.365 N 
HETATM   26  H   UNK N   1       3.118   1.164  -1.220  0.00  0.00     0.165 HD
BRANCH  25  27
HETATM   27  C   UNK N   1       5.019   0.808  -0.473  0.00  0.00     0.101 C 
HETATM   28  C   UNK N   1       5.365   2.084  -0.290  0.00  0.00     0.034 A 
HETATM   29  C   UNK N   1       4.448   3.254  -0.356  0.00  0.00     0.073 A 
HETATM   30  C   UNK N   1       6.657   2.559   0.079  0.00  0.00     0.290 A 
HETATM   31  C   UNK N   1       5.397   4.428   0.020  0.00  0.00     0.184 A 
HETATM   32  O   UNK N   1       6.651   3.881   0.250  0.00  0.00    -0.317 OA
HETATM   33  O   UNK N   1       7.643   1.863   0.256  0.00  0.00    -0.260 OA
ENDBRANCH  25  27
ENDBRANCH  23  25
ENDBRANCH   1  19
TORSDOF 6
