REMARK  5 active torsions:
REMARK  status: ('A' for Active; 'I' for Inactive)
REMARK    1  A    between atoms: C_4  and  N_9 
REMARK       I    between atoms: N_9  and  C_10 
REMARK    2  A    between atoms: C_10  and  C_11 
REMARK    3  A    between atoms: C_21  and  N_23 
REMARK    4  A    between atoms: N_23  and  C_24 
REMARK    5  A    between atoms: C_28  and  C_30 
ROOT
HETATM    1  C   UNK N   1       2.223  -0.830  -0.067  0.00  0.00     0.090 A 
HETATM    2  C   UNK N   1       1.045  -0.080  -0.151  0.00  0.00     0.130 A 
HETATM    3  C   UNK N   1       1.001   1.270   0.042  0.00  0.00     0.047 A 
HETATM    4  C   UNK N   1       2.144   2.007   0.323  0.00  0.00     0.020 A 
HETATM    5  C   UNK N   1       3.363   1.304   0.406  0.00  0.00     0.026 A 
HETATM    6  C   UNK N   1       3.419  -0.102   0.222  0.00  0.00     0.052 A 
HETATM    7  O   UNK N   1      -0.170  -0.517  -0.388  0.00  0.00    -0.234 OA
HETATM    8  N   UNK N   1      -1.023   0.466  -0.358  0.00  0.00    -0.243 N 
ATOM      9  HN  UNK N   1      -2.029   0.398  -0.511  1.00  0.00     0.196 HD
HETATM   10  C   UNK N   1      -0.331   1.594  -0.086  0.00  0.00     0.139 A 
HETATM   11 Cl   UNK N   1       4.993  -0.873   0.367  0.00  0.00    -0.083 Cl
ENDROOT
BRANCH   1  12
HETATM   12  C   UNK N   1       2.136  -2.314  -0.244  0.00  0.00     0.260 C 
HETATM   13  N   UNK N   1       3.216  -3.121  -0.051  0.00  0.00    -0.320 N 
HETATM   14  H   UNK N   1       4.086  -2.689   0.109  0.00  0.00     0.169 HD
HETATM   15  O   UNK N   1       1.055  -2.807  -0.535  0.00  0.00    -0.267 OA
BRANCH  13  16
HETATM   16  C   UNK N   1       3.176  -4.549  -0.063  0.00  0.00     0.066 A 
HETATM   17  C   UNK N   1       1.972  -5.268  -0.102  0.00  0.00     0.119 A 
HETATM   18  N   UNK N   1       1.980  -6.624  -0.073  0.00  0.00    -0.360 N 
HETATM   19  C   UNK N   1       3.152  -7.306  -0.003  0.00  0.00     0.180 A 
ATOM     20  HN  UNK N   1       1.099  -7.136  -0.105  1.00  0.00     0.166 HD
HETATM   21  N   UNK N   1       4.332  -6.633   0.041  0.00  0.00    -0.360 N 
HETATM   22  C   UNK N   1       4.363  -5.274   0.018  0.00  0.00     0.119 A 
ATOM     23  HN  UNK N   1       5.207  -7.155   0.093  1.00  0.00     0.166 HD
ENDBRANCH  13  16
ENDBRANCH   1  12
BRANCH  10  24
HETATM   24  N   UNK N   1      -0.921   2.881   0.054  0.00  0.00    -0.340 N 
HETATM   25  H   UNK N   1      -0.328   3.664   0.127  0.00  0.00     0.167 HD
BRANCH  24  26
HETATM   26  C   UNK N   1      -2.332   3.090   0.093  0.00  0.00     0.034 A 
HETATM   27  C   UNK N   1      -3.228   2.011   0.187  0.00  0.00     0.029 A 
HETATM   28  C   UNK N   1      -4.604   2.224   0.219  0.00  0.00     0.003 A 
HETATM   29  C   UNK N   1      -5.105   3.523   0.155  0.00  0.00     0.016 A 
HETATM   30  C   UNK N   1      -4.230   4.613   0.068  0.00  0.00     0.050 A 
HETATM   31  C   UNK N   1      -2.842   4.392   0.042  0.00  0.00     0.045 A 
BRANCH  30  32
HETATM   32  C   UNK N   1      -4.796   5.999  -0.010  0.00  0.00     0.417 C 
HETATM   33  F   UNK N   1      -5.591   6.106  -1.137  0.00  0.00    -0.166 F 
HETATM   34  F   UNK N   1      -3.791   6.947  -0.080  0.00  0.00    -0.166 F 
HETATM   35  F   UNK N   1      -5.568   6.246   1.112  0.00  0.00    -0.166 F 
ENDBRANCH  30  32
ENDBRANCH  24  26
ENDBRANCH  10  24
TORSDOF 5
