REMARK  8 active torsions:
REMARK  status: ('A' for Active; 'I' for Inactive)
REMARK    1  A    between atoms: C_2  and  C_1 
REMARK       I    between atoms: C_1  and  N_9 
REMARK    2  A    between atoms: C_5  and  C_6 
REMARK    3  A    between atoms: C_6  and  N_15 
REMARK    4  A    between atoms: C_10  and  C_14 
REMARK    5  A    between atoms: C_14  and  N_18 
REMARK       I    between atoms: N_15  and  C_16 
REMARK       I    between atoms: C_16  and  N_19 
REMARK    6  A    between atoms: N_19  and  C_20 
REMARK    7  A    between atoms: C_23  and  C_26 
REMARK    8  A    between atoms: C_26  and  O_28 
ROOT
HETATM    1  C   UNK N   1      -2.806   1.524   0.392  0.00  0.00     0.170 C 
HETATM    2  C   UNK N   1      -2.398   2.110  -0.942  0.00  0.00     0.036 C 
HETATM    3  C   UNK N   1      -0.902   2.129  -0.813  0.00  0.00     0.029 C 
HETATM    4  C   UNK N   1      -0.622   0.834  -0.081  0.00  0.00     0.095 C 
HETATM    5  N   UNK N   1      -1.788   0.538   0.750  0.00  0.00    -0.404 N 
HETATM    6  H   UNK N   1      -1.873  -0.208   1.441  0.00  0.00     0.154 HD
ENDROOT
BRANCH   4   7
HETATM    7  C   UNK N   1      -0.437  -0.278  -1.106  0.00  0.00     0.149 C 
BRANCH   7   8
HETATM    8  N   UNK N   1      -0.133  -1.536  -0.466  0.00  0.00    -0.341 N 
HETATM    9  C   UNK N   1       1.131  -1.874  -0.119  0.00  0.00     0.320 C 
HETATM   10  O   UNK N   1       1.338  -2.975   0.366  0.00  0.00    -0.247 OA
HETATM   11  N   UNK N   1       2.152  -0.992  -0.314  0.00  0.00    -0.309 N 
HETATM   12  H   UNK N   1       1.911  -0.083  -0.607  0.00  0.00     0.170 HD
HETATM   13  H   UNK N   1      -0.865  -2.165  -0.276  0.00  0.00     0.164 HD
BRANCH  11  14
HETATM   14  C   UNK N   1       3.536  -1.268  -0.133  0.00  0.00     0.036 A 
HETATM   15  C   UNK N   1       4.449  -0.208  -0.162  0.00  0.00     0.030 A 
HETATM   16  C   UNK N   1       5.822  -0.456  -0.072  0.00  0.00     0.020 A 
HETATM   17  C   UNK N   1       6.296  -1.772   0.032  0.00  0.00     0.039 A 
HETATM   18  C   UNK N   1       5.382  -2.831   0.065  0.00  0.00     0.020 A 
HETATM   19  C   UNK N   1       4.013  -2.582  -0.016  0.00  0.00     0.030 A 
BRANCH  17  20
HETATM   20  C   UNK N   1       7.743  -2.054   0.072  0.00  0.00     0.292 C 
HETATM   21  O   UNK N   1       8.548  -1.131   0.052  0.00  0.00    -0.259 OA
BRANCH  20  22
HETATM   22  O   UNK N   1       8.171  -3.341   0.105  0.00  0.00    -0.323 OA
HETATM   23  C   UNK N   1       9.503  -3.678   0.089  0.00  0.00     0.213 C 
ENDBRANCH  20  22
ENDBRANCH  17  20
ENDBRANCH  11  14
ENDBRANCH   7   8
ENDBRANCH   4   7
BRANCH   1  24
HETATM   24  C   UNK N   1      -4.191   0.913   0.359  0.00  0.00     0.242 C 
HETATM   25  O   UNK N   1      -4.319  -0.283   0.590  0.00  0.00    -0.271 OA
HETATM   26  N   UNK N   1      -5.298   1.681   0.117  0.00  0.00    -0.344 N 
HETATM   27  C   UNK N   1      -6.644   1.166   0.177  0.00  0.00     0.104 C 
HETATM   28  C   UNK N   1      -5.214   3.095  -0.125  0.00  0.00     0.126 C 
HETATM   29  C   UNK N   1      -7.528   2.355  -0.165  0.00  0.00     0.028 C 
HETATM   30  C   UNK N   1      -6.645   3.592  -0.056  0.00  0.00     0.022 C 
BRANCH  27  31
HETATM   31  C   UNK N   1      -6.874   0.044  -0.832  0.00  0.00     0.136 C 
BRANCH  31  32
HETATM   32  N   UNK N   1      -8.211  -0.507  -0.677  0.00  0.00    -0.428 N 
HETATM   33  H   UNK N   1      -9.015   0.112  -0.568  0.00  0.00     0.149 HD
HETATM   34  H   UNK N   1      -8.346  -1.518  -0.677  0.00  0.00     0.149 HD
ENDBRANCH  31  32
ENDBRANCH  27  31
ENDBRANCH   1  24
TORSDOF 8
