REMARK  13 active torsions:
REMARK  status: ('A' for Active; 'I' for Inactive)
REMARK    1  A    between atoms: C_3  and  C_10 
REMARK    2  A    between atoms: C_6  and  N_7 
REMARK    3  A    between atoms: C_10  and  N_11 
REMARK    4  A    between atoms: N_11  and  C_12 
REMARK    5  A    between atoms: N_11  and  C_17 
REMARK    6  A    between atoms: C_12  and  P_13 
REMARK    7  A    between atoms: P_13  and  O_15 
REMARK    8  A    between atoms: P_13  and  O_16 
REMARK    9  A    between atoms: C_17  and  C_18 
REMARK   10  A    between atoms: C_18  and  C_19 
REMARK   11  A    between atoms: C_19  and  C_20 
REMARK   12  A    between atoms: C_20  and  C_21 
REMARK   13  A    between atoms: C_21  and  O_22 
ROOT
HETATM    1  N   UNK N   1      -0.708   1.403  -0.184  0.00  0.00     0.103 N 
ENDROOT
BRANCH   1   2
HETATM    2  C   UNK N   1      -1.764   0.415   0.057  0.00  0.00     0.311 C 
BRANCH   2   3
HETATM    3  C   UNK N   1      -3.181   0.915  -0.084  0.00  0.00    -0.030 A 
HETATM    4  C   UNK N   1      -3.478   2.240  -0.432  0.00  0.00     0.011 A 
HETATM    5  C   UNK N   1      -4.794   2.694  -0.441  0.00  0.00     0.037 A 
HETATM    6  C   UNK N   1      -5.841   1.823  -0.119  0.00  0.00     0.102 A 
HETATM    7  C   UNK N   1      -5.550   0.484   0.189  0.00  0.00     0.037 A 
HETATM    8  C   UNK N   1      -4.226   0.037   0.212  0.00  0.00     0.011 A 
BRANCH   6   9
HETATM    9  N   UNK N   1      -7.178   2.302  -0.083  0.00  0.00    -0.116 N 
HETATM   10  O   UNK N   1      -8.077   1.560   0.182  0.00  0.00    -0.532 OA
HETATM   11  O   UNK N   1      -7.430   3.576  -0.287  0.00  0.00    -0.532 OA
ENDBRANCH   6   9
ENDBRANCH   2   3
ENDBRANCH   1   2
BRANCH   1  12
HETATM   12  C   UNK N   1      -0.896   2.540   0.715  0.00  0.00     0.396 C 
BRANCH  12  13
HETATM   13  P   UNK N   1      -0.561   4.158  -0.164  0.00  0.00     0.264 P 
HETATM   14  O   UNK N   1       0.442   4.739   0.852  0.00  0.00    -0.652 OA
BRANCH  13  15
HETATM   15  O   UNK N   1      -1.920   4.511   0.857  0.00  0.00    -0.328 OA
HETATM   16  H   UNK N   1      -2.129   5.268   1.428  0.00  0.00     0.220 HD
ENDBRANCH  13  15
BRANCH  13  17
HETATM   17  O   UNK N   1      -1.082   5.668  -0.853  0.00  0.00    -0.328 OA
HETATM   18  H   UNK N   1      -0.498   6.340  -1.238  0.00  0.00     0.220 HD
ENDBRANCH  13  17
ENDBRANCH  12  13
ENDBRANCH   1  12
BRANCH   1  19
HETATM   19  C   UNK N   1       0.520   0.720   0.220  0.00  0.00     0.273 C 
BRANCH  19  20
HETATM   20  C   UNK N   1       1.745   1.334  -0.434  0.00  0.00     0.031 C 
BRANCH  20  21
HETATM   21  C   UNK N   1       2.301   2.438   0.441  0.00  0.00     0.012 C 
BRANCH  21  22
HETATM   22  C   UNK N   1       3.091   3.400  -0.421  0.00  0.00     0.110 C 
BRANCH  22  23
HETATM   23  C   UNK N   1       4.551   3.263  -0.155  0.00  0.00     0.139 C 
HETATM   24  O   UNK N   1       5.110   2.193  -0.333  0.00  0.00    -0.650 OA
BRANCH  23  25
HETATM   25  O   UNK N   1       5.256   4.329   0.265  0.00  0.00    -0.776 OA
HETATM   26  H   UNK N   1       6.144   4.275   0.558  0.00  0.00     0.167 HD
ENDBRANCH  23  25
ENDBRANCH  22  23
ENDBRANCH  21  22
ENDBRANCH  20  21
ENDBRANCH  19  20
ENDBRANCH   1  19
TORSDOF 13
