REMARK  5 active torsions:
REMARK  status: ('A' for Active; 'I' for Inactive)
REMARK    1  A    between atoms: C_1  and  C_2 
REMARK       I    between atoms: C_1  and  N_4 
REMARK    2  A    between atoms: C_2  and  C_5 
REMARK    3  A    between atoms: C_2  and  N_13 
REMARK    4  A    between atoms: N_13  and  C_14 
REMARK    5  A    between atoms: C_15  and  C_20 
ROOT
HETATM    1  C   UNK N   1       0.703  -0.674  -0.274  0.00  0.00     0.211 C 
ENDROOT
BRANCH   1   2
HETATM    2  C   UNK N   1       1.954  -0.020   0.263  0.00  0.00     0.242 C 
HETATM    3  O   UNK N   1       2.794   0.416  -0.510  0.00  0.00    -0.271 OA
HETATM    4  N   UNK N   1       2.111   0.163   1.591  0.00  0.00    -0.368 N 
HETATM    5  H   UNK N   1       2.284   0.130   2.560  0.00  0.00     0.159 HD
HETATM    6  H   UNK N   1       1.786   1.092   1.591  0.00  0.00     0.159 HD
ENDBRANCH   1   2
BRANCH   1   7
HETATM    7  C   UNK N   1       0.544  -2.191  -0.002  0.00  0.00     0.017 A 
HETATM    8  C   UNK N   1       1.537  -3.028   0.621  0.00  0.00     0.044 A 
HETATM    9  C   UNK N   1       1.284  -4.389   0.813  0.00  0.00     0.024 A 
HETATM   10 Cl   UNK N   1       3.145  -2.521   1.127  0.00  0.00    -0.084 Cl
HETATM   11  C   UNK N   1       0.089  -4.964   0.411  0.00  0.00     0.003 A 
HETATM   12  C   UNK N   1      -0.868  -4.189  -0.224  0.00  0.00     0.024 A 
HETATM   13  C   UNK N   1      -0.658  -2.827  -0.442  0.00  0.00     0.044 A 
HETATM   14 Cl   UNK N   1      -1.929  -1.971  -1.309  0.00  0.00    -0.084 Cl
ENDBRANCH   1   7
BRANCH   1  15
HETATM   15  N   UNK N   1      -0.464   0.047   0.230  0.00  0.00    -0.372 N 
HETATM   16  H   UNK N   1      -1.132  -0.468   0.738  0.00  0.00     0.161 HD
BRANCH  15  17
HETATM   17  C   UNK N   1      -0.710   1.444   0.042  0.00  0.00     0.043 A 
HETATM   18  C   UNK N   1      -1.994   2.009   0.292  0.00  0.00     0.036 A 
HETATM   19  C   UNK N   1      -2.182   3.386   0.073  0.00  0.00     0.018 A 
HETATM   20  C   UNK N   1      -1.136   4.199  -0.361  0.00  0.00     0.008 A 
HETATM   21  C   UNK N   1       0.118   3.647  -0.599  0.00  0.00    -0.060 A 
HETATM   22  C   UNK N   1       0.323   2.283  -0.410  0.00  0.00     0.037 A 
HETATM   23  C   UNK N   1       1.241   4.512  -1.045  0.00  0.00     0.048 C 
BRANCH  18  24
HETATM   24  C   UNK N   1      -3.173   1.224   0.766  0.00  0.00     0.158 C 
HETATM   25  O   UNK N   1      -4.260   1.773   0.863  0.00  0.00    -0.293 OA
HETATM   26  C   UNK N   1      -3.080  -0.214   1.152  0.00  0.00     0.097 C 
ENDBRANCH  18  24
ENDBRANCH  15  17
ENDBRANCH   1  15
TORSDOF 5
