REMARK  4 active torsions:
REMARK  status: ('A' for Active; 'I' for Inactive)
REMARK    1  A    between atoms: C_2  and  N_4 
REMARK    2  A    between atoms: C_13  and  N_14 
REMARK    3  A    between atoms: C_16  and  C_17 
REMARK    4  A    between atoms: C_22  and  O_23 
ROOT
HETATM    1  N   UNK N   1      23.726   9.231  -0.109  0.00  0.00    -0.271 N 
HETATM    2  N   UNK N   1      23.002   8.124   0.014  0.00  0.00    -0.295 N 
ATOM      3  HN  UNK N   1      21.983   8.078   0.029  1.00  0.00     0.187 HD
HETATM    4  C   UNK N   1      25.025   8.897  -0.084  0.00  0.00     0.140 A 
HETATM    5  N   UNK N   1      26.077   9.741  -0.197  0.00  0.00    -0.337 N 
ATOM      6  HN  UNK N   1      25.933  10.743  -0.316  1.00  0.00     0.168 HD
HETATM    7  C   UNK N   1      27.335   9.217  -0.149  0.00  0.00     0.183 A 
HETATM    8  N   UNK N   1      27.518   7.871   0.014  0.00  0.00    -0.338 N 
ATOM      9  HN  UNK N   1      28.467   7.499   0.055  1.00  0.00     0.168 HD
HETATM   10  C   UNK N   1      26.461   7.014   0.123  0.00  0.00     0.116 A 
HETATM   11  C   UNK N   1      25.163   7.548   0.068  0.00  0.00     0.082 A 
HETATM   12  C   UNK N   1      23.847   7.062   0.118  0.00  0.00     0.076 A 
ENDROOT
BRANCH  12  13
HETATM   13  C   UNK N   1      23.339   5.669   0.202  0.00  0.00    -0.004 A 
HETATM   14  C   UNK N   1      24.201   4.567   0.200  0.00  0.00     0.050 A 
HETATM   15  C   UNK N   1      23.697   3.264   0.215  0.00  0.00     0.066 A 
HETATM   16  C   UNK N   1      22.318   3.049   0.231  0.00  0.00     0.036 A 
HETATM   17  C   UNK N   1      21.445   4.140   0.236  0.00  0.00     0.004 A 
HETATM   18  C   UNK N   1      21.953   5.443   0.216  0.00  0.00     0.014 A 
BRANCH  15  19
HETATM   19  O   UNK N   1      24.541   2.219   0.204  0.00  0.00    -0.361 OA
HETATM   20  H   UNK N   1      24.204   1.345   0.197  0.00  0.00     0.217 HD
ENDBRANCH  15  19
ENDBRANCH  12  13
BRANCH   1  21
HETATM   21  C   UNK N   1      23.178  10.581  -0.282  0.00  0.00     0.102 C 
HETATM   22  C   UNK N   1      23.694  11.519   0.793  0.00  0.00     0.034 C 
HETATM   23  C   UNK N   1      21.658  10.581  -0.248  0.00  0.00     0.034 C 
ENDBRANCH   1  21
BRANCH  10  24
HETATM   24  N   UNK N   1      26.705   5.640   0.301  0.00  0.00    -0.385 N 
HETATM   25  H   UNK N   1      25.957   5.012   0.425  0.00  0.00     0.157 HD
HETATM   26  H   UNK N   1      27.630   5.305   0.301  0.00  0.00     0.157 HD
ENDBRANCH  10  24
TORSDOF 4
