REMARK  4 active torsions:
REMARK  status: ('A' for Active; 'I' for Inactive)
REMARK    1  A    between atoms: O_2  and  C_3 
REMARK    2  A    between atoms: C_5  and  O_6 
REMARK    3  A    between atoms: C_9  and  C_10 
REMARK    4  A    between atoms: C_19  and  C_20 
ROOT
HETATM    1  C   UNK N   1      -1.485  -0.419  -0.277  0.00  0.00    -0.024 A 
HETATM    2  C   UNK N   1      -1.783   0.968  -0.154  0.00  0.00     0.044 A 
HETATM    3  C   UNK N   1      -0.143  -0.834  -0.452  0.00  0.00     0.013 A 
HETATM    4  C   UNK N   1       0.896   0.091  -0.488  0.00  0.00     0.017 A 
HETATM    5  C   UNK N   1       0.567   1.429  -0.347  0.00  0.00     0.024 A 
HETATM    6  C   UNK N   1      -0.709   1.862  -0.194  0.00  0.00     0.061 A 
HETATM    7  N   UNK N   1      -0.709   3.200  -0.020  0.00  0.00    -0.299 N 
HETATM    8  N   UNK N   1       0.561   3.613  -0.035  0.00  0.00    -0.296 N 
ATOM      9  HN  UNK N   1       0.879   4.575   0.087  1.00  0.00     0.187 HD
HETATM   10  C   UNK N   1       1.356   2.535  -0.241  0.00  0.00     0.104 A 
HETATM   11  H   UNK N   1      -1.503   3.770   0.098  0.00  0.00     0.187 HD
ENDROOT
BRANCH  10  12
HETATM   12  C   UNK N   1       2.820   2.481  -0.202  0.00  0.00     0.136 A 
HETATM   13  N   UNK N   1       3.617   3.448   0.324  0.00  0.00    -0.339 N 
HETATM   14  C   UNK N   1       4.832   2.870   0.349  0.00  0.00     0.060 A 
HETATM   15  H   UNK N   1       3.366   4.354   0.616  0.00  0.00     0.167 HD
HETATM   16  C   UNK N   1       6.023   3.381   0.856  0.00  0.00     0.032 A 
HETATM   17  C   UNK N   1       4.755   1.612  -0.161  0.00  0.00     0.060 A 
HETATM   18  C   UNK N   1       7.158   2.544   0.814  0.00  0.00     0.002 A 
HETATM   19  C   UNK N   1       7.072   1.239   0.270  0.00  0.00     0.002 A 
HETATM   20  C   UNK N   1       5.848   0.758  -0.227  0.00  0.00     0.032 A 
HETATM   21  N   UNK N   1       3.498   1.346  -0.508  0.00  0.00    -0.339 N 
ATOM     22  HN  UNK N   1       3.129   0.485  -0.913  1.00  0.00     0.167 HD
ENDBRANCH  10  12
BRANCH   1  23
HETATM   23  C   UNK N   1      -2.531  -1.460  -0.181  0.00  0.00    -0.023 A 
HETATM   24  C   UNK N   1      -3.881  -1.125  -0.028  0.00  0.00     0.052 A 
HETATM   25  C   UNK N   1      -4.863  -2.121   0.070  0.00  0.00     0.102 A 
HETATM   26  C   UNK N   1      -4.468  -3.485   0.022  0.00  0.00     0.099 A 
HETATM   27  C   UNK N   1      -3.122  -3.814  -0.123  0.00  0.00     0.040 A 
HETATM   28  C   UNK N   1      -2.163  -2.813  -0.225  0.00  0.00     0.015 A 
BRANCH  25  29
HETATM   29  O   UNK N   1      -6.154  -1.721   0.204  0.00  0.00    -0.353 OA
HETATM   30  C   UNK N   1      -7.242  -2.560   0.278  0.00  0.00     0.210 C 
ENDBRANCH  25  29
BRANCH  26  31
HETATM   31  O   UNK N   1      -5.364  -4.482   0.114  0.00  0.00    -0.358 OA
HETATM   32  H   UNK N   1      -6.279  -4.289   0.177  0.00  0.00     0.217 HD
ENDBRANCH  26  31
ENDBRANCH   1  23
TORSDOF 4
