REMARK  6 active torsions:
REMARK  status: ('A' for Active; 'I' for Inactive)
REMARK    1  A    between atoms: C_2  and  O_3 
REMARK    2  A    between atoms: C_2  and  C_15 
REMARK    3  A    between atoms: C_5  and  N_7 
REMARK    4  A    between atoms: C_6  and  O_11 
REMARK    5  A    between atoms: O_11  and  C_12 
REMARK    6  A    between atoms: C_18  and  C_21 
ROOT
HETATM    1  C   UNK N   1      -1.774   1.501   0.233  0.00  0.00     0.058 A 
HETATM    2  C   UNK N   1      -3.068  -0.569   0.420  0.00  0.00     0.119 A 
HETATM    3  C   UNK N   1      -0.643   0.851   0.717  0.00  0.00     0.077 A 
HETATM    4  C   UNK N   1      -1.931  -1.170   0.986  0.00  0.00     0.040 A 
HETATM    5  C   UNK N   1      -0.740  -0.477   1.136  0.00  0.00     0.040 A 
HETATM    6  C   UNK N   1      -3.002   0.830   0.075  0.00  0.00     0.073 A 
ENDROOT
BRANCH   3   7
HETATM    7  O   UNK N   1       0.550   1.495   0.732  0.00  0.00    -0.309 OA
BRANCH   7   8
HETATM    8  C   UNK N   1       1.737   0.882   0.463  0.00  0.00     0.097 A 
HETATM    9  C   UNK N   1       2.868   1.259   1.198  0.00  0.00     0.040 A 
HETATM   10  C   UNK N   1       4.102   0.640   0.971  0.00  0.00     0.019 A 
HETATM   11  C   UNK N   1       4.221  -0.364   0.001  0.00  0.00     0.049 A 
HETATM   12  C   UNK N   1       3.107  -0.720  -0.759  0.00  0.00     0.042 A 
HETATM   13  C   UNK N   1       1.874  -0.110  -0.551  0.00  0.00     0.068 A 
HETATM   14 Cl   UNK N   1       0.566  -0.588  -1.632  0.00  0.00    -0.081 Cl
BRANCH  11  15
HETATM   15  C   UNK N   1       5.520  -1.071  -0.242  0.00  0.00     0.417 C 
HETATM   16  F   UNK N   1       6.522  -0.573   0.572  0.00  0.00    -0.166 F 
HETATM   17  F   UNK N   1       5.361  -2.420   0.021  0.00  0.00    -0.166 F 
HETATM   18  F   UNK N   1       5.895  -0.911  -1.564  0.00  0.00    -0.166 F 
ENDBRANCH  11  15
ENDBRANCH   7   8
ENDBRANCH   3   7
BRANCH   6  19
HETATM   19  C   UNK N   1      -4.130   1.672  -0.428  0.00  0.00     0.178 C 
HETATM   20  O   UNK N   1      -5.281   1.275  -0.428  0.00  0.00    -0.646 OA
BRANCH  19  21
HETATM   21  O   UNK N   1      -3.889   2.943  -0.807  0.00  0.00    -0.773 OA
HETATM   22  H   UNK N   1      -3.040   3.239  -1.070  0.00  0.00     0.167 HD
ENDBRANCH  19  21
ENDBRANCH   6  19
BRANCH   2  23
HETATM   23  N   UNK N   1      -4.202  -1.416   0.184  0.00  0.00    -0.115 N 
HETATM   24  O   UNK N   1      -5.092  -1.114  -0.732  0.00  0.00    -0.532 OA
HETATM   25  O   UNK N   1      -4.198  -2.529   0.621  0.00  0.00    -0.532 OA
ENDBRANCH   2  23
TORSDOF 6
