REMARK  16 active torsions:
REMARK  status: ('A' for Active; 'I' for Inactive)
REMARK    1  A    between atoms: C_1  and  C_2 
REMARK    2  A    between atoms: C_1  and  C_28 
REMARK    3  A    between atoms: C_2  and  C_3 
REMARK    4  A    between atoms: C_3  and  C_4 
REMARK    5  A    between atoms: C_4  and  C_5 
REMARK    6  A    between atoms: C_5  and  C_6 
REMARK    7  A    between atoms: C_6  and  O_7 
REMARK    8  A    between atoms: C_8  and  O_7 
REMARK    9  A    between atoms: C_10  and  C_11 
REMARK   10  A    between atoms: C_11  and  O_12 
REMARK   11  A    between atoms: C_13  and  O_14 
REMARK   12  A    between atoms: C_15  and  N_16 
REMARK   13  A    between atoms: C_17  and  O_18 
REMARK   14  A    between atoms: C_19  and  O_18 
REMARK   15  A    between atoms: C_24  and  O_25 
REMARK   16  A    between atoms: C_26  and  O_27 
ROOT
HETATM    1  C   UNK N   1       0.498  -1.075   0.115  0.00  0.00     0.291 C 
HETATM    2  O   UNK N   1       0.583  -2.401  -0.422  0.00  0.00    -0.349 OA
HETATM    3  C   UNK N   1      -0.527  -3.177  -0.061  0.00  0.00     0.179 C 
HETATM    4  C   UNK N   1      -1.799  -2.652  -0.773  0.00  0.00     0.174 C 
HETATM    5  C   UNK N   1      -1.801  -1.103  -0.867  0.00  0.00     0.139 C 
HETATM    6  C   UNK N   1      -0.967  -0.522   0.311  0.00  0.00     0.204 C 
ENDROOT
BRANCH   6   7
HETATM    7  O   UNK N   1      -0.826   0.900   0.430  0.00  0.00    -0.349 OA
BRANCH   7   8
HETATM    8  C   UNK N   1      -1.964   1.692   0.176  0.00  0.00     0.263 C 
HETATM    9  C   UNK N   1      -3.092   1.371   1.184  0.00  0.00     0.095 C 
HETATM   10  C   UNK N   1      -4.277   2.338   1.082  0.00  0.00     0.154 C 
HETATM   11  C   UNK N   1      -4.030   3.395   0.001  0.00  0.00     0.175 C 
HETATM   12  C   UNK N   1      -2.622   4.008   0.209  0.00  0.00     0.151 C 
HETATM   13  O   UNK N   1      -1.563   3.053   0.299  0.00  0.00    -0.354 OA
HETATM   14  C   UNK N   1      -2.588   4.858   1.473  0.00  0.00     0.042 C 
BRANCH  10  15
HETATM   15  O   UNK N   1      -5.445   1.627   0.799  0.00  0.00    -0.393 OA
HETATM   16  H   UNK N   1      -6.278   2.083   0.603  0.00  0.00     0.210 HD
ENDBRANCH  10  15
BRANCH  11  17
HETATM   17  O   UNK N   1      -5.021   4.379   0.028  0.00  0.00    -0.390 OA
HETATM   18  H   UNK N   1      -4.774   5.317   0.047  0.00  0.00     0.210 HD
ENDBRANCH  11  17
ENDBRANCH   7   8
ENDBRANCH   6   7
BRANCH   1  19
HETATM   19  O   UNK N   1       1.176  -0.236  -0.804  0.00  0.00    -0.359 OA
BRANCH  19  20
HETATM   20  C   UNK N   1       2.086   0.586  -0.109  0.00  0.00     0.171 C 
BRANCH  20  21
HETATM   21  C   UNK N   1       3.496   0.369  -0.627  0.00  0.00     0.026 C 
BRANCH  21  22
HETATM   22  C   UNK N   1       3.983  -1.030  -0.293  0.00  0.00     0.002 C 
BRANCH  22  23
HETATM   23  C   UNK N   1       5.301  -1.288  -1.004  0.00  0.00     0.000 C 
BRANCH  23  24
HETATM   24  C   UNK N   1       6.479  -1.226  -0.044  0.00  0.00     0.000 C 
BRANCH  24  25
HETATM   25  C   UNK N   1       6.722   0.196   0.434  0.00  0.00    -0.000 C 
BRANCH  25  26
HETATM   26  C   UNK N   1       8.065   0.293   1.133  0.00  0.00    -0.005 C 
HETATM   27  C   UNK N   1       9.172   0.444   0.108  0.00  0.00     0.005 C 
ENDBRANCH  25  26
ENDBRANCH  24  25
ENDBRANCH  23  24
ENDBRANCH  22  23
ENDBRANCH  21  22
ENDBRANCH  20  21
ENDBRANCH  19  20
ENDBRANCH   1  19
BRANCH   5  28
HETATM   28  N   UNK N   1      -3.191  -0.670  -0.894  0.00  0.00    -0.421 N 
HETATM   29  H   UNK N   1      -3.415   0.325  -0.913  0.00  0.00     0.150 HD
HETATM   30  H   UNK N   1      -3.940  -1.362  -0.894  0.00  0.00     0.150 HD
ENDBRANCH   5  28
BRANCH   4  31
HETATM   31  O   UNK N   1      -1.930  -3.175  -2.063  0.00  0.00    -0.391 OA
HETATM   32  H   UNK N   1      -2.290  -3.278  -2.958  0.00  0.00     0.210 HD
ENDBRANCH   4  31
BRANCH   3  33
HETATM   33  C   UNK N   1      -0.248  -4.647  -0.368  0.00  0.00     0.198 C 
BRANCH  33  34
HETATM   34  O   UNK N   1      -1.294  -5.454   0.082  0.00  0.00    -0.398 OA
HETATM   35  H   UNK N   1      -2.144  -5.104   0.394  0.00  0.00     0.209 HD
ENDBRANCH  33  34
ENDBRANCH   3  33
TORSDOF 16
