REMARK  5 active torsions:
REMARK  status: ('A' for Active; 'I' for Inactive)
REMARK    1  A    between atoms: C_1  and  O_9 
REMARK    2  A    between atoms: C_4  and  C_7 
REMARK    3  A    between atoms: C_7  and  C_8 
REMARK    4  A    between atoms: C_8  and  N_11 
REMARK    5  A    between atoms: C_13  and  C_14 
ROOT
HETATM    1  C   UNK N   1      -1.351  -1.437  -0.402  0.00  0.00     0.072 A 
HETATM    2  C   UNK N   1      -1.440   1.237   0.431  0.00  0.00    -0.056 A 
HETATM    3  C   UNK N   1      -2.580  -0.798  -0.211  0.00  0.00     0.037 A 
HETATM    4  C   UNK N   1      -2.627   0.534   0.203  0.00  0.00     0.010 A 
HETATM    5  C   UNK N   1      -0.210   0.599   0.261  0.00  0.00     0.017 A 
HETATM    6  C   UNK N   1      -0.146  -0.743  -0.156  0.00  0.00    -0.020 A 
ENDROOT
BRANCH   6   7
HETATM    7  C   UNK N   1       1.194  -1.423  -0.367  0.00  0.00     0.021 C 
HETATM    8  C   UNK N   1       2.391  -0.512  -0.043  0.00  0.00     0.009 C 
HETATM    9  C   UNK N   1       3.711  -1.230  -0.313  0.00  0.00     0.001 C 
HETATM   10  C   UNK N   1       3.788  -2.529   0.484  0.00  0.00     0.000 C 
HETATM   11  C   UNK N   1       2.607  -3.427   0.134  0.00  0.00     0.001 C 
HETATM   12  C   UNK N   1       1.301  -2.709   0.456  0.00  0.00     0.009 C 
ENDBRANCH   6   7
BRANCH   1  13
HETATM   13  O   UNK N   1      -1.335  -2.714  -0.820  0.00  0.00    -0.360 OA
HETATM   14  H   UNK N   1      -2.101  -3.169  -1.111  0.00  0.00     0.217 HD
ENDBRANCH   1  13
BRANCH   2  15
HETATM   15  C   UNK N   1      -1.473   2.674   0.826  0.00  0.00     0.057 C 
BRANCH  15  16
HETATM   16  C   UNK N   1      -2.088   3.504  -0.289  0.00  0.00     0.115 C 
BRANCH  16  17
HETATM   17  N   UNK N   1      -1.735   4.900  -0.111  0.00  0.00    -0.430 N 
HETATM   18  H   UNK N   1      -0.761   5.176   0.014  0.00  0.00     0.149 HD
HETATM   19  H   UNK N   1      -2.467   5.611  -0.111  0.00  0.00     0.149 HD
ENDBRANCH  16  17
ENDBRANCH  15  16
ENDBRANCH   2  15
TORSDOF 5
