REMARK  5 active torsions:
REMARK  status: ('A' for Active; 'I' for Inactive)
REMARK    1  A    between atoms: C_1  and  C_12 
REMARK    2  A    between atoms: C_2  and  C_5 
REMARK    3  A    between atoms: C_5  and  C_10 
REMARK    4  A    between atoms: N_6  and  C_10 
REMARK    5  A    between atoms: O_7  and  C_8 
ROOT
HETATM    1  C   UNK N   1       0.972   0.197   0.022  0.00  0.00    -0.056 A 
HETATM    2  C   UNK N   1      -0.144  -1.956  -0.020  0.00  0.00     0.037 A 
HETATM    3  C   UNK N   1      -1.392  -1.321  -0.014  0.00  0.00     0.071 A 
HETATM    4  C   UNK N   1       1.034  -1.204  -0.002  0.00  0.00     0.010 A 
HETATM    5  C   UNK N   1      -0.272   0.827   0.029  0.00  0.00     0.017 A 
HETATM    6  C   UNK N   1      -1.462   0.095   0.010  0.00  0.00    -0.025 A 
ENDROOT
BRANCH   1   7
HETATM    7  C   UNK N   1       2.195   1.065   0.036  0.00  0.00     0.057 C 
BRANCH   7   8
HETATM    8  C   UNK N   1       3.516   0.319  -0.011  0.00  0.00     0.115 C 
BRANCH   8   9
HETATM    9  N   UNK N   1       4.599   1.286  -0.027  0.00  0.00    -0.430 N 
HETATM   10  H   UNK N   1       5.568   0.967  -0.038  0.00  0.00     0.149 HD
HETATM   11  H   UNK N   1       4.391   2.285  -0.027  0.00  0.00     0.149 HD
ENDBRANCH   8   9
ENDBRANCH   7   8
ENDBRANCH   1   7
BRANCH   6  12
HETATM   12  C   UNK N   1      -2.737   0.903   0.017  0.00  0.00     0.037 C 
HETATM   13  C   UNK N   1      -4.047   0.135  -0.007  0.00  0.00     0.010 C 
ENDBRANCH   6  12
BRANCH   3  14
HETATM   14  O   UNK N   1      -2.502  -2.080  -0.034  0.00  0.00    -0.360 OA
HETATM   15  H   UNK N   1      -3.346  -1.675  -0.047  0.00  0.00     0.217 HD
ENDBRANCH   3  14
TORSDOF 5
