REMARK  2 active torsions:
REMARK  status: ('A' for Active; 'I' for Inactive)
REMARK    1  A    between atoms: C_2  and  O_1 
REMARK    2  A    between atoms: C_19  and  O_20 
ROOT
HETATM    1  C   UNK N   1      -2.904  -0.391  -0.071  0.00  0.00     0.119 C 
HETATM    2  C   UNK N   1      -1.840   0.005  -1.072  0.00  0.00     0.040 C 
HETATM    3  C   UNK N   1      -2.399  -1.701   0.501  0.00  0.00     0.039 C 
HETATM    4  C   UNK N   1      -0.872  -1.679   0.351  0.00  0.00     0.028 C 
HETATM    5  C   UNK N   1      -0.545  -0.337  -0.360  0.00  0.00     0.017 C 
HETATM    6  C   UNK N   1      -0.230   0.742   0.659  0.00  0.00    -0.026 C 
HETATM    7  C   UNK N   1       0.739   1.671   0.544  0.00  0.00    -0.030 C 
HETATM    8  C   UNK N   1       1.610   1.872  -0.668  0.00  0.00     0.027 C 
HETATM    9  C   UNK N   1       2.676   0.801  -0.827  0.00  0.00     0.006 C 
HETATM   10  C   UNK N   1       3.896   1.053   0.057  0.00  0.00     0.032 C 
HETATM   11  C   UNK N   1       4.741  -0.218   0.146  0.00  0.00     0.128 C 
HETATM   12  C   UNK N   1       5.966   0.047   0.995  0.00  0.00     0.040 C 
HETATM   13  O   UNK N   1       3.967  -1.190   0.744  0.00  0.00    -0.313 OA
HETATM   14  C   UNK N   1       3.358  -2.179   0.049  0.00  0.00     0.283 C 
HETATM   15  O   UNK N   1       3.976  -2.863  -0.753  0.00  0.00    -0.260 OA
HETATM   16  C   UNK N   1       1.901  -2.256   0.160  0.00  0.00     0.081 C 
HETATM   17  C   UNK N   1       1.105  -3.037  -0.574  0.00  0.00     0.011 C 
HETATM   18  C   UNK N   1      -0.403  -2.922  -0.463  0.00  0.00     0.146 C 
ENDROOT
BRANCH   1  19
HETATM   19  O   UNK N   1      -4.140  -0.557  -0.693  0.00  0.00    -0.396 OA
HETATM   20  H   UNK N   1      -4.671   0.130  -1.125  0.00  0.00     0.210 HD
ENDBRANCH   1  19
BRANCH  18  21
HETATM   21  O   UNK N   1      -0.876  -4.090   0.138  0.00  0.00    -0.391 OA
HETATM   22  H   UNK N   1      -1.743  -4.211   0.556  0.00  0.00     0.210 HD
ENDBRANCH  18  21
TORSDOF 2
