REMARK  6 active torsions:
REMARK  status: ('A' for Active; 'I' for Inactive)
REMARK    1  A    between atoms: N_3  and  O_7 
REMARK       I    between atoms: C_21  and  N_3 
REMARK    2  A    between atoms: C_5  and  C_12 
REMARK    3  A    between atoms: C_12  and  C_13 
REMARK    4  A    between atoms: C_14  and  C_13 
REMARK    5  A    between atoms: C_17  and  C_19 
REMARK    6  A    between atoms: C_20  and  C_21 
ROOT
HETATM    1  N   UNK N   1       0.455   2.438   0.584  0.00  0.00    -0.360 N 
HETATM    2  C   UNK N   1      -0.189   0.317   0.522  0.00  0.00     0.028 A 
HETATM    3  C   UNK N   1      -0.608   1.621   0.751  0.00  0.00     0.106 A 
HETATM    4  C   UNK N   1       0.447   3.879   0.779  0.00  0.00     0.155 C 
HETATM    5  C   UNK N   1       1.518   1.671   0.271  0.00  0.00     0.034 A 
HETATM    6  C   UNK N   1       1.148   0.347   0.214  0.00  0.00     0.046 A 
ENDROOT
BRANCH   2   7
HETATM    7  C   UNK N   1      -0.928  -0.943   0.684  0.00  0.00     0.165 C 
HETATM    8  O   UNK N   1      -0.348  -1.997   0.460  0.00  0.00    -0.292 OA
BRANCH   7   9
HETATM    9  C   UNK N   1      -2.319  -0.975   1.242  0.00  0.00     0.122 C 
BRANCH   9  10
HETATM   10  C   UNK N   1      -3.238  -1.830   0.430  0.00  0.00    -0.051 A 
HETATM   11  C   UNK N   1      -2.939  -3.183   0.201  0.00  0.00     0.007 A 
HETATM   12  C   UNK N   1      -3.811  -3.981  -0.542  0.00  0.00     0.001 A 
HETATM   13  C   UNK N   1      -4.995  -3.436  -1.044  0.00  0.00     0.000 A 
HETATM   14  C   UNK N   1      -5.304  -2.093  -0.804  0.00  0.00     0.001 A 
HETATM   15  C   UNK N   1      -4.426  -1.290  -0.070  0.00  0.00     0.007 A 
ENDBRANCH   9  10
ENDBRANCH   7   9
ENDBRANCH   2   7
BRANCH   5  16
HETATM   16  C   UNK N   1       2.915   2.118   0.119  0.00  0.00     0.035 C 
HETATM   17  C   UNK N   1       3.831   1.170  -0.112  0.00  0.00     0.078 C 
BRANCH  17  18
HETATM   18  C   UNK N   1       5.280   1.355  -0.124  0.00  0.00     0.264 C 
HETATM   19  O   UNK N   1       5.779   2.439   0.149  0.00  0.00    -0.266 OA
HETATM   20  N   UNK N   1       6.064   0.285  -0.383  0.00  0.00    -0.234 N 
HETATM   21  H   UNK N   1       5.644  -0.579  -0.599  0.00  0.00     0.197 HD
BRANCH  20  22
HETATM   22  O   UNK N   1       7.398   0.374  -0.352  0.00  0.00    -0.287 OA
HETATM   23  H   UNK N   1       7.938  -0.432  -0.330  0.00  0.00     0.244 HD
ENDBRANCH  20  22
ENDBRANCH  17  18
ENDBRANCH   5  16
TORSDOF 6
