REMARK  2 active torsions:
REMARK  status: ('A' for Active; 'I' for Inactive)
REMARK    1  A    between atoms: C_5  and  O_23 
REMARK    2  A    between atoms: C_6  and  O_21 
ROOT
HETATM    1  C   UNK N   1       1.828   1.259  -0.000  0.00  0.00     0.052 A 
HETATM    2  C   UNK N   1       1.093   0.078  -0.000  0.00  0.00    -0.013 A 
HETATM    3  C   UNK N   1       1.746  -1.171   0.000  0.00  0.00    -0.007 A 
HETATM    4  C   UNK N   1       3.143  -1.212   0.000  0.00  0.00     0.053 A 
HETATM    5  C   UNK N   1       3.898  -0.015   0.000  0.00  0.00     0.102 A 
HETATM    6  C   UNK N   1       3.221   1.238  -0.000  0.00  0.00     0.102 A 
HETATM    7  C   UNK N   1       0.974  -2.355   0.000  0.00  0.00     0.100 A 
HETATM    8  N   UNK N   1      -0.396  -2.288   0.000  0.00  0.00    -0.364 N 
HETATM    9  C   UNK N   1      -1.006  -1.072  -0.000  0.00  0.00     0.050 A 
HETATM   10  C   UNK N   1      -0.293   0.103  -0.000  0.00  0.00    -0.015 A 
HETATM   11  C   UNK N   1      -1.185   1.321  -0.000  0.00  0.00     0.081 A 
HETATM   12  C   UNK N   1      -2.522   0.635  -0.000  0.00  0.00    -0.038 A 
HETATM   13  C   UNK N   1      -2.407  -0.756  -0.000  0.00  0.00     0.001 A 
HETATM   14  C   UNK N   1      -3.541  -1.587   0.000  0.00  0.00     0.054 A 
HETATM   15  C   UNK N   1      -4.781  -0.923   0.000  0.00  0.00     0.105 A 
HETATM   16  C   UNK N   1      -4.883   0.423  -0.000  0.00  0.00     0.105 A 
HETATM   17  C   UNK N   1      -3.772   1.265  -0.000  0.00  0.00     0.048 A 
HETATM   18  O   UNK N   1      -6.170   0.764   0.000  0.00  0.00    -0.323 OA
HETATM   19  C   UNK N   1      -6.937  -0.405   0.000  0.00  0.00     0.352 A 
HETATM   20  O   UNK N   1      -6.003  -1.450   0.000  0.00  0.00    -0.323 OA
HETATM   21  H   UNK N   1      -0.933  -3.113   0.000  0.00  0.00     0.165 HD
ENDROOT
BRANCH   5  22
HETATM   22  O   UNK N   1       5.254  -0.055   0.000  0.00  0.00    -0.353 OA
HETATM   23  C   UNK N   1       5.983  -1.222   0.000  0.00  0.00     0.210 C 
ENDBRANCH   5  22
BRANCH   6  24
HETATM   24  O   UNK N   1       3.855   2.440  -0.000  0.00  0.00    -0.353 OA
HETATM   25  C   UNK N   1       5.217   2.632   0.000  0.00  0.00     0.210 C 
ENDBRANCH   6  24
TORSDOF 2
