REMARK  5 active torsions:
REMARK  status: ('A' for Active; 'I' for Inactive)
REMARK    1  A    between atoms: C_6  and  N_15 
REMARK    2  A    between atoms: C_7  and  S_26 
REMARK    3  A    between atoms: C_11  and  S_26 
REMARK    4  A    between atoms: C_12  and  C_14 
REMARK    5  A    between atoms: C_13  and  N_22 
REMARK       I    between atoms: C_14  and  N_22 
ROOT
HETATM    1  C   UNK N   1      -3.194  -0.090   0.115  0.00  0.00     0.031 A 
HETATM    2  C   UNK N   1      -0.465  -0.111   0.654  0.00  0.00     0.038 A 
HETATM    3  C   UNK N   1      -2.459   1.098  -0.005  0.00  0.00     0.041 A 
HETATM    4  C   UNK N   1      -2.569  -1.276   0.519  0.00  0.00     0.021 A 
HETATM    5  C   UNK N   1      -1.194  -1.288   0.782  0.00  0.00     0.009 A 
HETATM    6  C   UNK N   1      -1.071   1.092   0.266  0.00  0.00     0.059 A 
ENDROOT
BRANCH   6   7
HETATM    7  C   UNK N   1      -0.201   2.293   0.159  0.00  0.00     0.259 C 
HETATM    8  N   UNK N   1       1.139   2.125   0.315  0.00  0.00    -0.303 N 
HETATM    9  H   UNK N   1       1.444   1.214   0.529  0.00  0.00     0.171 HD
HETATM   10  O   UNK N   1      -0.671   3.391  -0.098  0.00  0.00    -0.267 OA
BRANCH   8  11
HETATM   11  C   UNK N   1       2.147   3.115   0.202  0.00  0.00     0.151 A 
HETATM   12  N   UNK N   1       3.462   2.803   0.173  0.00  0.00    -0.340 N 
HETATM   13  C   UNK N   1       4.253   3.916   0.005  0.00  0.00     0.014 A 
ATOM     14  HN  UNK N   1       3.825   1.854   0.264  1.00  0.00     0.167 HD
HETATM   15  C   UNK N   1       3.573   5.145  -0.100  0.00  0.00     0.077 A 
HETATM   16  C   UNK N   1       5.733   3.808  -0.083  0.00  0.00     0.068 C 
HETATM   17  S   UNK N   1       1.964   4.747   0.024  0.00  0.00    -0.064 SA
ENDBRANCH   8  11
ENDBRANCH   6   7
BRANCH   3  18
HETATM   18  N   UNK N   1      -3.123   2.277  -0.408  0.00  0.00    -0.398 N 
HETATM   19  H   UNK N   1      -2.642   3.089  -0.688  0.00  0.00     0.156 HD
HETATM   20  H   UNK N   1      -4.107   2.288  -0.408  0.00  0.00     0.156 HD
ENDBRANCH   3  18
BRANCH   5  21
HETATM   21  S   UNK N   1      -0.345  -2.743   1.417  0.00  0.00    -0.053 SA
BRANCH  21  22
HETATM   22  C   UNK N   1      -1.200  -3.994   0.459  0.00  0.00     0.166 A 
HETATM   23  N   UNK N   1      -2.438  -4.434   0.736  0.00  0.00    -0.279 N 
HETATM   24  N   UNK N   1      -2.716  -5.387  -0.144  0.00  0.00    -0.294 N 
ATOM     25  HN  UNK N   1      -3.049  -4.100   1.481  1.00  0.00     0.189 HD
HETATM   26  C   UNK N   1      -1.640  -5.529  -0.949  0.00  0.00     0.201 A 
ATOM     27  HN  UNK N   1      -3.585  -5.917  -0.202  1.00  0.00     0.187 HD
HETATM   28  N   UNK N   1      -0.683  -4.662  -0.582  0.00  0.00    -0.326 N 
HETATM   29  C   UNK N   1       0.634  -4.518  -1.178  0.00  0.00     0.159 C 
ENDBRANCH  21  22
ENDBRANCH   5  21
TORSDOF 5
