REMARK  6 active torsions:
REMARK  status: ('A' for Active; 'I' for Inactive)
REMARK    1  A    between atoms: C_5  and  N_19 
REMARK    2  A    between atoms: C_7  and  N_22 
REMARK    3  A    between atoms: C_8  and  C_9 
REMARK    4  A    between atoms: C_10  and  C_8 
REMARK    5  A    between atoms: N_26  and  C_10 
REMARK    6  A    between atoms: N_26  and  C_14 
REMARK       I    between atoms: C_20  and  N_19 
REMARK       I    between atoms: C_20  and  N_22 
ROOT
HETATM    1  C   UNK N   1       2.216   1.366  -1.458  0.00  0.00     0.105 A 
HETATM    2  C   UNK N   1       2.458   0.031   0.378  0.00  0.00     0.152 A 
HETATM    3  C   UNK N   1       0.896   1.397  -0.987  0.00  0.00     0.003 A 
HETATM    4  N   UNK N   1       3.070   0.584  -0.703  0.00  0.00    -0.345 N 
ATOM      5  HN  UNK N   1       4.053   0.437  -0.932  1.00  0.00     0.167 HD
HETATM    6  S   UNK N   1       0.867   0.477   0.374  0.00  0.00    -0.057 SA
ENDROOT
BRANCH   3   7
HETATM    7  C   UNK N   1      -0.297   1.875  -1.750  0.00  0.00     0.067 C 
BRANCH   7   8
HETATM    8  C   UNK N   1      -1.584   1.238  -1.213  0.00  0.00     0.126 C 
BRANCH   8   9
HETATM    9  N   UNK N   1      -2.437   2.147  -0.472  0.00  0.00    -0.375 N 
HETATM   10  H   UNK N   1      -3.353   1.844  -0.278  0.00  0.00     0.161 HD
BRANCH   9  11
HETATM   11  C   UNK N   1      -2.069   3.437  -0.002  0.00  0.00     0.121 A 
HETATM   12  N   UNK N   1      -0.766   3.845   0.044  0.00  0.00    -0.338 N 
HETATM   13  C   UNK N   1      -0.428   5.105   0.453  0.00  0.00     0.182 A 
ATOM     14  HN  UNK N   1      -0.030   3.195  -0.232  1.00  0.00     0.168 HD
HETATM   15  N   UNK N   1      -1.396   5.995   0.823  0.00  0.00    -0.351 N 
HETATM   16  C   UNK N   1      -2.695   5.609   0.795  0.00  0.00     0.054 A 
ATOM     17  HN  UNK N   1      -1.144   6.938   1.117  1.00  0.00     0.166 HD
HETATM   18  C   UNK N   1      -3.798   6.429   1.144  0.00  0.00     0.038 A 
HETATM   19  C   UNK N   1      -3.040   4.336   0.393  0.00  0.00     0.075 A 
HETATM   20  C   UNK N   1      -5.034   5.764   1.009  0.00  0.00     0.053 A 
HETATM   21  S   UNK N   1      -4.682   4.220   0.469  0.00  0.00    -0.096 SA
ENDBRANCH   9  11
ENDBRANCH   8   9
ENDBRANCH   7   8
ENDBRANCH   3   7
BRANCH   2  22
HETATM   22  N   UNK N   1       2.833  -1.245   0.868  0.00  0.00    -0.288 N 
HETATM   23  C   UNK N   1       2.177  -2.322   0.353  0.00  0.00     0.326 C 
HETATM   24  N   UNK N   1       2.306  -3.556   0.904  0.00  0.00    -0.309 N 
HETATM   25  O   UNK N   1       1.438  -2.169  -0.616  0.00  0.00    -0.247 OA
HETATM   26  H   UNK N   1       3.019  -3.719   1.563  0.00  0.00     0.170 HD
HETATM   27  H   UNK N   1       3.536  -1.348   1.549  0.00  0.00     0.172 HD
BRANCH  24  28
HETATM   28  C   UNK N   1       1.424  -4.622   0.544  0.00  0.00     0.037 A 
HETATM   29  C   UNK N   1       0.121  -4.350   0.074  0.00  0.00     0.029 A 
HETATM   30  C   UNK N   1      -0.746  -5.380  -0.277  0.00  0.00     0.004 A 
HETATM   31  C   UNK N   1      -0.324  -6.702  -0.162  0.00  0.00     0.024 A 
HETATM   32  C   UNK N   1       0.959  -6.988   0.315  0.00  0.00     0.036 A 
HETATM   33 Cl   UNK N   1       1.475  -8.652   0.443  0.00  0.00    -0.084 Cl
HETATM   34  C   UNK N   1       1.831  -5.951   0.676  0.00  0.00     0.053 A 
ENDBRANCH  24  28
ENDBRANCH   2  22
TORSDOF 6
