REMARK  7 active torsions:
REMARK  status: ('A' for Active; 'I' for Inactive)
REMARK    1  A    between atoms: C_4  and  C_29 
REMARK    2  A    between atoms: C_9  and  N_28 
REMARK       I    between atoms: C_11  and  N_34 
REMARK       I    between atoms: C_11  and  N_36 
REMARK    3  A    between atoms: C_12  and  N_36 
REMARK    4  A    between atoms: C_13  and  C_15 
REMARK    5  A    between atoms: C_15  and  C_16 
REMARK    6  A    between atoms: C_16  and  N_28 
REMARK    7  A    between atoms: C_33  and  N_34 
ROOT
HETATM    1  C   UNK N   1      -0.046   1.504  -0.684  0.00  0.00     0.152 A 
HETATM    2  C   UNK N   1      -1.639   0.133   0.590  0.00  0.00     0.003 A 
HETATM    3  C   UNK N   1      -0.297  -0.219   0.778  0.00  0.00     0.105 A 
HETATM    4  N   UNK N   1       0.587   0.565   0.071  0.00  0.00    -0.345 N 
ATOM      5  HN  UNK N   1       1.601   0.455   0.109  1.00  0.00     0.167 HD
HETATM    6  S   UNK N   1      -1.666   1.391  -0.480  0.00  0.00    -0.057 SA
ENDROOT
BRANCH   2   7
HETATM    7  C   UNK N   1      -2.825  -0.588   1.113  0.00  0.00     0.067 C 
BRANCH   7   8
HETATM    8  C   UNK N   1      -3.619  -1.108  -0.077  0.00  0.00     0.126 C 
BRANCH   8   9
HETATM    9  N   UNK N   1      -2.773  -1.925  -0.917  0.00  0.00    -0.374 N 
HETATM   10  H   UNK N   1      -2.440  -1.552  -1.765  0.00  0.00     0.161 HD
BRANCH   9  11
HETATM   11  C   UNK N   1      -2.409  -3.242  -0.558  0.00  0.00     0.133 A 
HETATM   12  C   UNK N   1      -3.330  -4.194  -0.098  0.00  0.00     0.122 A 
HETATM   13  N   UNK N   1      -4.671  -4.167   0.052  0.00  0.00    -0.291 N 
HETATM   14  C   UNK N   1      -2.888  -5.421   0.266  0.00  0.00     0.082 A 
HETATM   15  C   UNK N   1      -5.606  -3.103  -0.270  0.00  0.00     0.178 C 
HETATM   16  N   UNK N   1      -5.070  -5.347   0.515  0.00  0.00    -0.307 N 
HETATM   17  C   UNK N   1      -3.987  -6.150   0.662  0.00  0.00     0.139 A 
ATOM     18  HN  UNK N   1      -6.034  -5.606   0.724  1.00  0.00     0.186 HD
HETATM   19  N   UNK N   1      -1.588  -5.785   0.200  0.00  0.00    -0.349 N 
HETATM   20  C   UNK N   1      -0.685  -4.872  -0.266  0.00  0.00     0.182 A 
ATOM     21  HN  UNK N   1      -1.289  -6.716   0.490  1.00  0.00     0.166 HD
HETATM   22  N   UNK N   1      -1.097  -3.619  -0.643  0.00  0.00    -0.337 N 
ATOM     23  HN  UNK N   1      -0.409  -2.953  -0.994  1.00  0.00     0.168 HD
ENDBRANCH   9  11
ENDBRANCH   8   9
ENDBRANCH   7   8
ENDBRANCH   2   7
BRANCH   1  24
HETATM   24  N   UNK N   1       0.601   2.473  -1.490  0.00  0.00    -0.288 N 
HETATM   25  C   UNK N   1       1.890   2.837  -1.298  0.00  0.00     0.326 C 
HETATM   26  N   UNK N   1       2.601   2.292  -0.273  0.00  0.00    -0.309 N 
HETATM   27  O   UNK N   1       2.384   3.688  -2.022  0.00  0.00    -0.247 OA
HETATM   28  H   UNK N   1       2.192   1.526   0.190  0.00  0.00     0.170 HD
HETATM   29  H   UNK N   1       0.093   2.898  -2.218  0.00  0.00     0.172 HD
BRANCH  26  30
HETATM   30  C   UNK N   1       3.867   2.717   0.193  0.00  0.00     0.037 A 
HETATM   31  C   UNK N   1       4.388   3.972  -0.144  0.00  0.00     0.045 A 
HETATM   32  C   UNK N   1       5.605   4.400   0.390  0.00  0.00     0.050 A 
HETATM   33  C   UNK N   1       6.307   3.563   1.269  0.00  0.00     0.016 A 
HETATM   34  C   UNK N   1       5.785   2.314   1.616  0.00  0.00     0.003 A 
HETATM   35  C   UNK N   1       4.562   1.899   1.088  0.00  0.00     0.029 A 
BRANCH  32  36
HETATM   36  C   UNK N   1       6.131   5.756   0.028  0.00  0.00     0.417 C 
HETATM   37  F   UNK N   1       6.281   5.841  -1.344  0.00  0.00    -0.166 F 
HETATM   38  F   UNK N   1       7.354   5.992   0.629  0.00  0.00    -0.166 F 
HETATM   39  F   UNK N   1       5.233   6.722   0.446  0.00  0.00    -0.166 F 
ENDBRANCH  32  36
ENDBRANCH  26  30
ENDBRANCH   1  24
TORSDOF 7
