REMARK  6 active torsions:
REMARK  status: ('A' for Active; 'I' for Inactive)
REMARK    1  A    between atoms: C_1  and  S_13 
REMARK    2  A    between atoms: C_2  and  C_3 
REMARK    3  A    between atoms: C_2  and  N_21 
REMARK    4  A    between atoms: N_12  and  S_13 
REMARK    5  A    between atoms: C_16  and  S_18 
REMARK    6  A    between atoms: S_18  and  N_21 
ROOT
HETATM    1  S   UNK N   1       0.494   0.678  -1.158  0.00  0.00     0.265 S 
HETATM    2  O   UNK N   1       0.792   0.556  -2.659  0.00  0.00    -0.200 OA
HETATM    3  O   UNK N   1      -1.034   0.849  -1.148  0.00  0.00    -0.200 OA
ENDROOT
BRANCH   1   4
HETATM    4  C   UNK N   1       1.343   2.049  -0.394  0.00  0.00     0.121 A 
HETATM    5  C   UNK N   1       2.255   1.979   0.663  0.00  0.00     0.035 A 
HETATM    6  C   UNK N   1       2.699   3.261   1.106  0.00  0.00     0.035 A 
HETATM    7  C   UNK N   1       2.122   4.329   0.401  0.00  0.00     0.121 A 
HETATM    8  S   UNK N   1       1.103   3.639  -0.756  0.00  0.00    -0.063 SA
BRANCH   7   9
HETATM    9  S   UNK N   1       2.481   6.094   0.778  0.00  0.00     0.263 S 
HETATM   10  O   UNK N   1       1.583   7.208   0.220  0.00  0.00    -0.200 OA
HETATM   11  O   UNK N   1       2.673   5.905  -0.733  0.00  0.00    -0.200 OA
BRANCH   9  12
HETATM   12  N   UNK N   1       0.829   5.648   1.226  0.00  0.00    -0.324 N 
HETATM   13  H   UNK N   1       0.130   6.344   1.485  0.00  0.00     0.169 HD
HETATM   14  H   UNK N   1       0.567   4.662   1.226  0.00  0.00     0.169 HD
ENDBRANCH   9  12
ENDBRANCH   7   9
ENDBRANCH   1   4
BRANCH   1  15
HETATM   15  N   UNK N   1       0.807  -0.937  -0.505  0.00  0.00    -0.311 N 
HETATM   16  H   UNK N   1       1.508  -1.593  -0.848  0.00  0.00     0.172 HD
BRANCH  15  17
HETATM   17  C   UNK N   1      -0.107  -1.169   0.604  0.00  0.00     0.170 C 
BRANCH  17  18
HETATM   18  C   UNK N   1      -0.876  -2.420   0.362  0.00  0.00    -0.040 A 
HETATM   19  C   UNK N   1      -0.213  -3.651   0.278  0.00  0.00     0.009 A 
HETATM   20  C   UNK N   1      -0.935  -4.821   0.036  0.00  0.00     0.007 A 
HETATM   21  C   UNK N   1      -2.324  -4.767  -0.122  0.00  0.00    -0.062 A 
HETATM   22  C   UNK N   1      -2.989  -3.539  -0.033  0.00  0.00     0.007 A 
HETATM   23  C   UNK N   1      -3.090  -6.012  -0.384  0.00  0.00     0.048 C 
HETATM   24  C   UNK N   1      -2.267  -2.368   0.209  0.00  0.00     0.009 A 
ENDBRANCH  17  18
ENDBRANCH  15  17
ENDBRANCH   1  15
TORSDOF 6
