REMARK  5 active torsions:
REMARK  status: ('A' for Active; 'I' for Inactive)
REMARK    1  A    between atoms: O_1  and  C_2 
REMARK    2  A    between atoms: C_5  and  C_8 
REMARK    3  A    between atoms: C_18  and  C_19 
REMARK    4  A    between atoms: C_19  and  C_20 
REMARK    5  A    between atoms: C_20  and  C_21 
ROOT
HETATM    1  C   UNK N   1       0.390   1.202  -0.000  0.00  0.00     0.052 A 
HETATM    2  N   UNK N   1       1.203   2.293  -0.002  0.00  0.00    -0.339 N 
HETATM    3  C   UNK N   1       2.456   1.800  -0.002  0.00  0.00     0.133 A 
HETATM    4  N   UNK N   1       3.605   2.518  -0.004  0.00  0.00    -0.349 N 
ATOM      5  HN  UNK N   1       3.585   3.537  -0.005  1.00  0.00     0.167 HD
HETATM    6  C   UNK N   1       2.461   0.441  -0.000  0.00  0.00     0.085 A 
HETATM    7  N   UNK N   1       3.615  -0.268   0.000  0.00  0.00    -0.361 N 
ATOM      8  HN  UNK N   1       3.603  -1.288   0.002  1.00  0.00     0.165 HD
HETATM    9  C   UNK N   1       4.797   0.420  -0.001  0.00  0.00     0.105 A 
HETATM   10  C   UNK N   1       4.792   1.838  -0.003  0.00  0.00     0.106 A 
HETATM   11  C   UNK N   1       1.151   0.024   0.001  0.00  0.00    -0.000 A 
HETATM   12  H   UNK N   1       0.934   3.240  -0.003  0.00  0.00     0.167 HD
ENDROOT
BRANCH   1  13
HETATM   13  C   UNK N   1      -1.089   1.288   0.000  0.00  0.00    -0.009 A 
HETATM   14  C   UNK N   1      -1.726   2.537   0.003  0.00  0.00     0.016 A 
HETATM   15  C   UNK N   1      -3.124   2.614   0.004  0.00  0.00     0.037 A 
HETATM   16  C   UNK N   1      -3.891   1.444   0.002  0.00  0.00     0.065 A 
HETATM   17  C   UNK N   1      -3.264   0.199  -0.001  0.00  0.00     0.037 A 
HETATM   18  C   UNK N   1      -1.873   0.124  -0.002  0.00  0.00     0.016 A 
BRANCH  16  19
HETATM   19  O   UNK N   1      -5.232   1.516   0.002  0.00  0.00    -0.361 OA
HETATM   20  H   UNK N   1      -5.656   2.352   0.003  0.00  0.00     0.217 HD
ENDBRANCH  16  19
ENDBRANCH   1  13
BRANCH  11  21
HETATM   21  C   UNK N   1       0.598  -1.372   0.003  0.00  0.00     0.043 C 
BRANCH  21  22
HETATM   22  C   UNK N   1       1.623  -2.483   0.002  0.00  0.00     0.004 C 
BRANCH  22  23
HETATM   23  C   UNK N   1       0.869  -3.796   0.001  0.00  0.00    -0.004 C 
HETATM   24  C   UNK N   1       1.847  -4.948  -0.001  0.00  0.00     0.005 C 
ENDBRANCH  22  23
ENDBRANCH  21  22
ENDBRANCH  11  21
TORSDOF 5
