REMARK  5 active torsions:
REMARK  status: ('A' for Active; 'I' for Inactive)
REMARK    1  A    between atoms: C_2  and  N_1 
REMARK    2  A    between atoms: C_2  and  C_3 
REMARK    3  A    between atoms: C_2  and  C_5 
REMARK    4  A    between atoms: C_3  and  O_16 
REMARK    5  A    between atoms: C_5  and  C_6 
ROOT
HETATM    1  C   UNK N   1      -0.329   0.248  -0.375  0.00  0.00    -0.045 A 
HETATM    2  C   UNK N   1      -1.405   1.144  -0.296  0.00  0.00     0.008 A 
HETATM    3  C   UNK N   1      -1.185   2.496  -0.020  0.00  0.00     0.001 A 
HETATM    4  C   UNK N   1       0.985   0.727  -0.183  0.00  0.00    -0.020 A 
HETATM    5  C   UNK N   1       1.200   2.102   0.081  0.00  0.00    -0.025 A 
HETATM    6  C   UNK N   1       0.114   2.976   0.162  0.00  0.00     0.012 A 
HETATM    7  C   UNK N   1       2.092  -0.134  -0.265  0.00  0.00     0.013 A 
HETATM    8  C   UNK N   1       3.388   0.363  -0.093  0.00  0.00     0.001 A 
HETATM    9  C   UNK N   1       3.591   1.723   0.158  0.00  0.00     0.001 A 
HETATM   10  C   UNK N   1       2.499   2.591   0.246  0.00  0.00     0.012 A 
ENDROOT
BRANCH   1  11
HETATM   11  C   UNK N   1      -0.575  -1.198  -0.721  0.00  0.00     0.074 C 
BRANCH  11  12
HETATM   12  C   UNK N   1      -1.537  -1.934   0.209  0.00  0.00     0.177 C 
BRANCH  12  13
HETATM   13  N   UNK N   1      -2.910  -1.552  -0.101  0.00  0.00    -0.417 N 
HETATM   14  H   UNK N   1      -3.159  -0.587  -0.318  0.00  0.00     0.150 HD
HETATM   15  H   UNK N   1      -3.638  -2.266  -0.101  0.00  0.00     0.150 HD
ENDBRANCH  12  13
BRANCH  12  16
HETATM   16  C   UNK N   1      -1.349  -3.418   0.019  0.00  0.00     0.163 C 
HETATM   17  O   UNK N   1      -2.271  -4.131  -0.324  0.00  0.00    -0.648 OA
BRANCH  16  18
HETATM   18  O   UNK N   1      -0.131  -3.962   0.238  0.00  0.00    -0.775 OA
HETATM   19  H   UNK N   1      -0.036  -4.881   0.390  0.00  0.00     0.167 HD
ENDBRANCH  16  18
ENDBRANCH  12  16
ENDBRANCH  11  12
ENDBRANCH   1  11
TORSDOF 5
