REMARK  10 active torsions:
REMARK  status: ('A' for Active; 'I' for Inactive)
REMARK    1  A    between atoms: N_1  and  C_2 
REMARK    2  A    between atoms: C_2  and  C_3 
REMARK    3  A    between atoms: C_3  and  C_4 
REMARK    4  A    between atoms: C_4  and  C_5 
REMARK    5  A    between atoms: C_5  and  N_6 
REMARK    6  A    between atoms: N_6  and  N_7 
REMARK       I    between atoms: N_7  and  C_8 
REMARK    7  A    between atoms: C_10  and  C_8 
REMARK       I    between atoms: N_11  and  C_15 
REMARK    8  A    between atoms: C_15  and  O_17 
REMARK    9  A    between atoms: O_17  and  C_18 
REMARK   10  A    between atoms: C_18  and  C_19 
ROOT
HETATM    1  C   UNK N   1       0.175  -1.699   0.392  0.00  0.00     0.183 C 
HETATM    2  N   UNK N   1       1.322  -0.977  -0.105  0.00  0.00    -0.314 N 
HETATM    3  C   UNK N   1       0.304  -3.088  -0.210  0.00  0.00     0.037 C 
HETATM    4  C   UNK N   1       1.764  -3.207  -0.645  0.00  0.00     0.022 C 
HETATM    5  C   UNK N   1       2.260  -1.781  -0.834  0.00  0.00     0.129 C 
HETATM    6  C   UNK N   1       1.568   0.334   0.187  0.00  0.00     0.363 C 
HETATM    7  O   UNK N   1       0.757   0.981   0.841  0.00  0.00    -0.238 OA
ENDROOT
BRANCH   1   8
HETATM    8  C   UNK N   1      -1.150  -1.067   0.038  0.00  0.00     0.258 C 
HETATM    9  N   UNK N   1      -2.264  -1.457   0.700  0.00  0.00    -0.273 N 
HETATM   10  H   UNK N   1      -2.242  -2.264   1.263  0.00  0.00     0.189 HD
HETATM   11  O   UNK N   1      -1.203  -0.134  -0.752  0.00  0.00    -0.269 OA
BRANCH   9  12
HETATM   12  N   UNK N   1      -3.438  -0.725   0.588  0.00  0.00    -0.334 N 
HETATM   13  H   UNK N   1      -3.569   0.243   0.881  0.00  0.00     0.180 HD
BRANCH  12  14
HETATM   14  C   UNK N   1      -4.443  -1.572  -0.016  0.00  0.00     0.139 C 
BRANCH  14  15
HETATM   15  C   UNK N   1      -5.189  -0.750  -1.048  0.00  0.00     0.023 C 
BRANCH  15  16
HETATM   16  C   UNK N   1      -6.660  -1.108  -1.055  0.00  0.00     0.021 C 
BRANCH  16  17
HETATM   17  C   UNK N   1      -7.357  -0.465   0.129  0.00  0.00     0.111 C 
BRANCH  17  18
HETATM   18  N   UNK N   1      -8.757  -0.842   0.127  0.00  0.00    -0.430 N 
HETATM   19  H   UNK N   1      -9.479  -0.122   0.126  0.00  0.00     0.149 HD
HETATM   20  H   UNK N   1      -9.019  -1.828   0.127  0.00  0.00     0.149 HD
ENDBRANCH  17  18
ENDBRANCH  16  17
ENDBRANCH  15  16
ENDBRANCH  14  15
ENDBRANCH  12  14
ENDBRANCH   9  12
ENDBRANCH   1   8
BRANCH   6  21
HETATM   21  O   UNK N   1       2.717   0.919  -0.229  0.00  0.00    -0.299 OA
BRANCH  21  22
HETATM   22  C   UNK N   1       2.993   2.247   0.020  0.00  0.00     0.219 C 
BRANCH  22  23
HETATM   23  C   UNK N   1       4.464   2.522   0.009  0.00  0.00    -0.034 A 
HETATM   24  C   UNK N   1       4.905   3.847   0.088  0.00  0.00     0.009 A 
HETATM   25  C   UNK N   1       6.272   4.137   0.066  0.00  0.00     0.001 A 
HETATM   26  C   UNK N   1       7.205   3.100  -0.031  0.00  0.00     0.000 A 
HETATM   27  C   UNK N   1       6.771   1.774  -0.104  0.00  0.00     0.001 A 
HETATM   28  C   UNK N   1       5.403   1.484  -0.086  0.00  0.00     0.009 A 
ENDBRANCH  22  23
ENDBRANCH  21  22
ENDBRANCH   6  21
TORSDOF 10
