REMARK  4 active torsions:
REMARK  status: ('A' for Active; 'I' for Inactive)
REMARK    1  A    between atoms: O_1  and  C_2 
REMARK    2  A    between atoms: C_2  and  C_4 
REMARK    3  A    between atoms: C_4  and  C_5 
REMARK    4  A    between atoms: C_5  and  C_6 
ROOT
HETATM    1  C   UNK N   1       0.398  -0.566   0.201  0.00  0.00    -0.035 A 
HETATM    2  C   UNK N   1       1.635   0.101   0.105  0.00  0.00    -0.018 A 
HETATM    3  C   UNK N   1       2.841  -0.620   0.162  0.00  0.00     0.013 A 
HETATM    4  C   UNK N   1       4.069   0.037   0.075  0.00  0.00     0.001 A 
HETATM    5  C   UNK N   1       4.112   1.424  -0.061  0.00  0.00     0.001 A 
HETATM    6  C   UNK N   1       2.925   2.157  -0.116  0.00  0.00     0.013 A 
HETATM    7  C   UNK N   1       1.680   1.511  -0.038  0.00  0.00    -0.019 A 
HETATM    8  C   UNK N   1       0.485   2.255  -0.090  0.00  0.00    -0.040 A 
HETATM    9  C   UNK N   1      -0.754   1.591  -0.013  0.00  0.00    -0.019 A 
HETATM   10  C   UNK N   1      -0.802   0.181   0.135  0.00  0.00    -0.018 A 
HETATM   11  C   UNK N   1      -2.051  -0.456   0.223  0.00  0.00     0.013 A 
HETATM   12  C   UNK N   1      -3.234   0.281   0.155  0.00  0.00     0.001 A 
HETATM   13  C   UNK N   1      -3.186   1.667   0.010  0.00  0.00     0.001 A 
HETATM   14  C   UNK N   1      -1.956   2.319  -0.070  0.00  0.00     0.013 A 
HETATM   15  C   UNK N   1       0.534   3.751  -0.222  0.00  0.00     0.050 C 
ENDROOT
BRANCH   1  16
HETATM   16  C   UNK N   1       0.375  -2.059   0.432  0.00  0.00     0.051 C 
BRANCH  16  17
HETATM   17  C   UNK N   1      -0.339  -2.848  -0.653  0.00  0.00     0.114 C 
BRANCH  17  18
HETATM   18  C   UNK N   1      -0.450  -4.271  -0.212  0.00  0.00     0.139 C 
HETATM   19  O   UNK N   1       0.555  -4.949  -0.065  0.00  0.00    -0.650 OA
BRANCH  18  20
HETATM   20  O   UNK N   1      -1.660  -4.803   0.044  0.00  0.00    -0.776 OA
HETATM   21  H   UNK N   1      -2.402  -4.259   0.221  0.00  0.00     0.167 HD
ENDBRANCH  18  20
ENDBRANCH  17  18
ENDBRANCH  16  17
ENDBRANCH   1  16
TORSDOF 4
