REMARK  6 active torsions:
REMARK  status: ('A' for Active; 'I' for Inactive)
REMARK    1  A    between atoms: C_2  and  O_17 
REMARK    2  A    between atoms: C_3  and  O_19 
REMARK    3  A    between atoms: C_5  and  O_17 
REMARK    4  A    between atoms: C_7  and  O_16 
REMARK    5  A    between atoms: C_10  and  C_13 
REMARK    6  A    between atoms: C_14  and  C_13 
ROOT
HETATM    1  C   UNK N   1       2.039   0.865   0.525  0.00  0.00     0.184 C 
HETATM    2  C   UNK N   1       3.270  -0.007   0.320  0.00  0.00     0.167 C 
HETATM    3  C   UNK N   1       2.606  -1.362   0.156  0.00  0.00     0.148 C 
HETATM    4  C   UNK N   1       1.129   0.318  -0.555  0.00  0.00     0.113 C 
HETATM    5  N   UNK N   1       1.322  -1.135  -0.524  0.00  0.00    -0.412 N 
HETATM    6  H   UNK N   1       0.693  -1.845  -0.898  0.00  0.00     0.153 HD
ENDROOT
BRANCH   4   7
HETATM    7  C   UNK N   1      -0.324   0.809  -0.369  0.00  0.00     0.066 C 
BRANCH   7   8
HETATM    8  C   UNK N   1      -1.475  -0.153  -0.217  0.00  0.00    -0.056 A 
HETATM    9  C   UNK N   1      -2.773   0.363  -0.304  0.00  0.00     0.010 A 
HETATM   10  C   UNK N   1      -3.882  -0.482  -0.190  0.00  0.00     0.037 A 
HETATM   11  C   UNK N   1      -3.706  -1.853   0.017  0.00  0.00     0.068 A 
HETATM   12  C   UNK N   1      -2.404  -2.371   0.124  0.00  0.00     0.037 A 
HETATM   13  C   UNK N   1      -1.301  -1.524   0.009  0.00  0.00     0.010 A 
BRANCH  11  14
HETATM   14  O   UNK N   1      -4.795  -2.652   0.104  0.00  0.00    -0.356 OA
HETATM   15  C   UNK N   1      -4.716  -4.017   0.262  0.00  0.00     0.210 C 
ENDBRANCH  11  14
ENDBRANCH   7   8
ENDBRANCH   4   7
BRANCH   1  16
HETATM   16  O   UNK N   1       2.152   2.252   0.455  0.00  0.00    -0.311 OA
BRANCH  16  17
HETATM   17  C   UNK N   1       3.254   3.040   0.325  0.00  0.00     0.255 C 
HETATM   18  C   UNK N   1       3.076   4.517   0.265  0.00  0.00     0.126 C 
HETATM   19  O   UNK N   1       4.379   2.573   0.282  0.00  0.00    -0.266 OA
ENDBRANCH  16  17
ENDBRANCH   1  16
BRANCH   2  20
HETATM   20  O   UNK N   1       3.930   0.291  -0.878  0.00  0.00    -0.391 OA
HETATM   21  H   UNK N   1       4.338  -0.002  -1.708  0.00  0.00     0.210 HD
ENDBRANCH   2  20
TORSDOF 6
