REMARK  2 active torsions:
REMARK  status: ('A' for Active; 'I' for Inactive)
REMARK    1  A    between atoms: C_1  and  S_14 
REMARK    2  A    between atoms: C_6  and  N_11 
ROOT
HETATM    1  S   UNK N   1      -1.453  -3.244  -0.289  0.00  0.00     0.130 S 
HETATM    2  O   UNK N   1      -0.442  -4.318   0.138  0.00  0.00    -0.598 OA
HETATM    3  O   UNK N   1      -2.844  -3.809   0.035  0.00  0.00    -0.598 OA
HETATM    4  O   UNK N   1      -1.433  -3.020   1.416  0.00  0.00    -0.292 OA
HETATM    5  H   UNK N   1      -1.318  -2.967   2.378  0.00  0.00     0.232 HD
ENDROOT
BRANCH   1   6
HETATM    6  C   UNK N   1      -1.193  -1.476  -0.011  0.00  0.00     0.083 A 
HETATM    7  C   UNK N   1      -2.316  -0.678   0.238  0.00  0.00     0.026 A 
HETATM    8  C   UNK N   1      -2.183   0.690   0.440  0.00  0.00     0.003 A 
HETATM    9  C   UNK N   1      -0.927   1.284   0.380  0.00  0.00     0.014 A 
HETATM   10  C   UNK N   1       0.227   0.531   0.115  0.00  0.00     0.002 A 
HETATM   11  C   UNK N   1       1.519   1.140   0.033  0.00  0.00     0.040 A 
HETATM   12  C   UNK N   1       0.087  -0.874  -0.084  0.00  0.00    -0.000 A 
HETATM   13  C   UNK N   1       2.622   0.310  -0.246  0.00  0.00     0.030 A 
HETATM   14  C   UNK N   1       2.476  -1.061  -0.436  0.00  0.00     0.003 A 
HETATM   15  C   UNK N   1       1.219  -1.650  -0.357  0.00  0.00     0.014 A 
BRANCH  11  16
HETATM   16  N   UNK N   1       1.755   2.553   0.212  0.00  0.00    -0.389 N 
HETATM   17  C   UNK N   1       3.088   3.086   0.082  0.00  0.00     0.149 C 
HETATM   18  C   UNK N   1       0.709   3.497   0.520  0.00  0.00     0.149 C 
ENDBRANCH  11  16
ENDBRANCH   1   6
TORSDOF 2
