REMARK  5 active torsions:
REMARK  status: ('A' for Active; 'I' for Inactive)
REMARK       I    between atoms: C_2  and  N_4 
REMARK    1  A    between atoms: C_5  and  N_4 
REMARK    2  A    between atoms: C_5  and  C_6 
REMARK    3  A    between atoms: C_5  and  C_8 
REMARK    4  A    between atoms: C_6  and  C_7 
REMARK    5  A    between atoms: C_8  and  C_13 
ROOT
HETATM    1  C   UNK N   1      -0.604   0.029   0.129  0.00  0.00     0.168 C 
ENDROOT
BRANCH   1   2
HETATM    2  N   UNK N   1      -1.744  -0.748   0.575  0.00  0.00    -0.349 N 
HETATM    3  C   UNK N   1      -2.296  -1.759  -0.141  0.00  0.00     0.214 C 
HETATM    4  C   UNK N   1      -3.455  -2.507   0.419  0.00  0.00     0.117 C 
HETATM    5  O   UNK N   1      -1.846  -2.074  -1.233  0.00  0.00    -0.274 OA
HETATM    6  H   UNK N   1      -2.141  -0.529   1.449  0.00  0.00     0.163 HD
ENDBRANCH   1   2
BRANCH   1   7
HETATM    7  C   UNK N   1       0.595  -0.869  -0.107  0.00  0.00     0.255 C 
HETATM    8  O   UNK N   1       1.153  -0.843  -1.194  0.00  0.00    -0.286 OA
BRANCH   7   9
HETATM    9  C   UNK N   1       1.110  -1.807   0.955  0.00  0.00     0.453 C 
HETATM   10  F   UNK N   1       0.337  -1.754   2.102  0.00  0.00    -0.163 F 
HETATM   11  F   UNK N   1       2.412  -1.476   1.279  0.00  0.00    -0.163 F 
HETATM   12  F   UNK N   1       1.081  -3.099   0.463  0.00  0.00    -0.163 F 
ENDBRANCH   7   9
ENDBRANCH   1   7
BRANCH   1  13
HETATM   13  C   UNK N   1      -0.283   1.087   1.188  0.00  0.00     0.072 C 
BRANCH  13  14
HETATM   14  C   UNK N   1       0.777   2.039   0.726  0.00  0.00    -0.056 A 
HETATM   15  C   UNK N   1       0.427   3.184   0.000  0.00  0.00     0.007 A 
HETATM   16  C   UNK N   1       1.420   4.063  -0.444  0.00  0.00     0.001 A 
HETATM   17  C   UNK N   1       2.765   3.796  -0.168  0.00  0.00     0.000 A 
HETATM   18  C   UNK N   1       3.116   2.655   0.559  0.00  0.00     0.001 A 
HETATM   19  C   UNK N   1       2.124   1.778   1.007  0.00  0.00     0.007 A 
ENDBRANCH  13  14
ENDBRANCH   1  13
TORSDOF 5
