REMARK  4 active torsions:
REMARK  status: ('A' for Active; 'I' for Inactive)
REMARK    1  A    between atoms: C_3  and  C_7 
REMARK    2  A    between atoms: C_7  and  O_8 
REMARK    3  A    between atoms: C_7  and  C_9 
REMARK    4  A    between atoms: C_9  and  O_12 
ROOT
HETATM    1  C   UNK N   1      -0.090  -1.133  -0.568  0.00  0.00     0.166 C 
HETATM    2  C   UNK N   1       0.498  -1.296  -1.961  0.00  0.00     0.063 C 
ENDROOT
BRANCH   1   3
HETATM    3  C   UNK N   1       0.063   0.320  -0.148  0.00  0.00    -0.014 A 
HETATM    4  C   UNK N   1       1.339   0.893  -0.009  0.00  0.00     0.011 A 
HETATM    5  C   UNK N   1       1.477   2.238   0.347  0.00  0.00     0.001 A 
HETATM    6  C   UNK N   1       0.344   3.028   0.554  0.00  0.00     0.000 A 
HETATM    7  C   UNK N   1      -0.930   2.471   0.415  0.00  0.00     0.001 A 
HETATM    8  C   UNK N   1      -1.070   1.124   0.069  0.00  0.00     0.011 A 
ENDBRANCH   1   3
BRANCH   1   9
HETATM    9  O   UNK N   1      -1.446  -1.474  -0.626  0.00  0.00    -0.374 OA
HETATM   10  H   UNK N   1      -2.120  -0.778  -0.667  0.00  0.00     0.211 HD
ENDBRANCH   1   9
BRANCH   1  11
HETATM   11  C   UNK N   1       0.600  -2.103   0.367  0.00  0.00     0.180 C 
HETATM   12  O   UNK N   1       0.548  -3.303   0.140  0.00  0.00    -0.648 OA
BRANCH  11  13
HETATM   13  O   UNK N   1       1.272  -1.668   1.451  0.00  0.00    -0.774 OA
HETATM   14  H   UNK N   1       1.767  -1.921   2.205  0.00  0.00     0.167 HD
ENDBRANCH  11  13
ENDBRANCH   1  11
TORSDOF 4
