REMARK  7 active torsions:
REMARK  status: ('A' for Active; 'I' for Inactive)
REMARK       I    between atoms: C_2  and  N_4 
REMARK    1  A    between atoms: C_5  and  N_4 
REMARK    2  A    between atoms: C_5  and  C_6 
REMARK    3  A    between atoms: C_5  and  C_8 
REMARK    4  A    between atoms: C_6  and  C_7 
REMARK    5  A    between atoms: C_6  and  O_9 
REMARK    6  A    between atoms: C_6  and  O_10 
REMARK    7  A    between atoms: C_8  and  C_14 
ROOT
HETATM    1  C   UNK N   1      -0.536  -0.359   0.002  0.00  0.00     0.160 C 
ENDROOT
BRANCH   1   2
HETATM    2  N   UNK N   1      -1.612  -1.017   0.726  0.00  0.00    -0.351 N 
HETATM    3  C   UNK N   1      -2.608  -1.733   0.144  0.00  0.00     0.214 C 
HETATM    4  C   UNK N   1      -3.672  -2.334   0.992  0.00  0.00     0.117 C 
HETATM    5  O   UNK N   1      -2.619  -1.928  -1.065  0.00  0.00    -0.274 OA
HETATM    6  H   UNK N   1      -1.619  -0.938   1.707  0.00  0.00     0.163 HD
ENDBRANCH   1   2
BRANCH   1   7
HETATM    7  C   UNK N   1       0.799  -1.085   0.245  0.00  0.00     0.282 C 
BRANCH   7   8
HETATM    8  C   UNK N   1       0.684  -2.558  -0.131  0.00  0.00     0.446 C 
HETATM    9  F   UNK N   1       0.301  -2.702  -1.454  0.00  0.00    -0.166 F 
HETATM   10  F   UNK N   1       1.916  -3.166   0.034  0.00  0.00    -0.166 F 
HETATM   11  F   UNK N   1      -0.218  -3.228   0.678  0.00  0.00    -0.166 F 
ENDBRANCH   7   8
BRANCH   7  12
HETATM   12  O   UNK N   1       1.747  -0.533  -0.540  0.00  0.00    -0.357 OA
HETATM   13  H   UNK N   1       2.408  -0.912  -1.085  0.00  0.00     0.213 HD
ENDBRANCH   7  12
BRANCH   7  14
HETATM   14  O   UNK N   1       1.124  -0.999   1.553  0.00  0.00    -0.357 OA
HETATM   15  H   UNK N   1       1.288  -1.165   2.461  0.00  0.00     0.213 HD
ENDBRANCH   7  14
ENDBRANCH   1   7
BRANCH   1  16
HETATM   16  C   UNK N   1      -0.558   1.116   0.482  0.00  0.00     0.069 C 
BRANCH  16  17
HETATM   17  C   UNK N   1       0.577   2.050   0.163  0.00  0.00    -0.056 A 
HETATM   18  C   UNK N   1       0.352   3.170  -0.646  0.00  0.00     0.007 A 
HETATM   19  C   UNK N   1       1.379   4.096  -0.868  0.00  0.00     0.001 A 
HETATM   20  C   UNK N   1       2.631   3.911  -0.275  0.00  0.00     0.000 A 
HETATM   21  C   UNK N   1       2.855   2.805   0.549  0.00  0.00     0.001 A 
HETATM   22  C   UNK N   1       1.827   1.889   0.780  0.00  0.00     0.007 A 
ENDBRANCH  16  17
ENDBRANCH   1  16
TORSDOF 7
