REMARK  4 active torsions:
REMARK  status: ('A' for Active; 'I' for Inactive)
REMARK    1  A    between atoms: C_5  and  N_12 
REMARK    2  A    between atoms: C_7  and  N_12 
REMARK       I    between atoms: N_13  and  C_16 
REMARK    3  A    between atoms: C_16  and  O_18 
REMARK    4  A    between atoms: O_18  and  C_19 
ROOT
HETATM    1  C   UNK N   1       0.269  -0.712  -0.219  0.00  0.00     0.086 C 
HETATM    2  C   UNK N   1      -1.019  -1.512  -0.047  0.00  0.00     0.045 C 
HETATM    3  C   UNK N   1      -2.181  -0.717  -0.666  0.00  0.00     0.130 C 
HETATM    4  N   UNK N   1      -2.204   0.659  -0.184  0.00  0.00    -0.328 N 
HETATM    5  C   UNK N   1      -0.952   1.395  -0.169  0.00  0.00     0.130 C 
HETATM    6  C   UNK N   1       0.117   0.591   0.552  0.00  0.00     0.045 C 
HETATM    7  C   UNK N   1      -3.357   1.312   0.185  0.00  0.00     0.362 C 
HETATM    8  O   UNK N   1      -3.289   2.486   0.523  0.00  0.00    -0.238 OA
ENDROOT
BRANCH   1   9
HETATM    9  N   UNK N   1       1.436  -1.465   0.191  0.00  0.00    -0.372 N 
HETATM   10  H   UNK N   1       1.311  -2.377   0.542  0.00  0.00     0.161 HD
BRANCH   9  11
HETATM   11  C   UNK N   1       2.757  -0.940   0.108  0.00  0.00     0.101 A 
HETATM   12  C   UNK N   1       2.979   0.421  -0.157  0.00  0.00     0.054 A 
HETATM   13  C   UNK N   1       4.280   0.914  -0.205  0.00  0.00    -0.057 A 
HETATM   14  C   UNK N   1       4.517   2.361  -0.450  0.00  0.00     0.048 C 
HETATM   15  C   UNK N   1       5.355   0.049  -0.007  0.00  0.00     0.024 A 
HETATM   16  C   UNK N   1       5.104  -1.303   0.242  0.00  0.00     0.090 A 
HETATM   17  N   UNK N   1       3.824  -1.765   0.303  0.00  0.00    -0.353 N 
ATOM     18  HN  UNK N   1       3.659  -2.752   0.499  1.00  0.00     0.166 HD
ENDBRANCH   9  11
ENDBRANCH   1   9
BRANCH   7  19
HETATM   19  O   UNK N   1      -4.593   0.735   0.173  0.00  0.00    -0.304 OA
BRANCH  19  20
HETATM   20  C   UNK N   1      -4.907  -0.568  -0.123  0.00  0.00     0.176 C 
HETATM   21  C   UNK N   1      -6.409  -0.744  -0.050  0.00  0.00     0.034 C 
ENDBRANCH  19  20
ENDBRANCH   7  19
TORSDOF 4
