REMARK  6 active torsions:
REMARK  status: ('A' for Active; 'I' for Inactive)
REMARK    1  A    between atoms: C_1  and  C_2 
REMARK    2  A    between atoms: C_1  and  N_19 
REMARK    3  A    between atoms: C_1  and  C_22 
REMARK       I    between atoms: C_2  and  N_21 
REMARK    4  A    between atoms: C_8  and  N_16 
REMARK    5  A    between atoms: C_9  and  S_15 
REMARK       I    between atoms: N_16  and  C_17 
REMARK       I    between atoms: C_17  and  N_19 
REMARK    6  A    between atoms: C_22  and  C_23 
ROOT
HETATM    1  N   UNK N   1       3.528   0.263  -0.251  0.00  0.00    -0.288 N 
HETATM    2  C   UNK N   1       2.210   0.319   0.072  0.00  0.00     0.322 C 
HETATM    3  O   UNK N   1       1.749   1.320   0.606  0.00  0.00    -0.247 OA
HETATM    4  N   UNK N   1       1.390  -0.726  -0.226  0.00  0.00    -0.329 N 
HETATM    5  H   UNK N   1       3.898  -0.583  -0.593  0.00  0.00     0.172 HD
HETATM    6  H   UNK N   1       1.773  -1.546  -0.614  0.00  0.00     0.165 HD
ENDROOT
BRANCH   4   7
HETATM    7  C   UNK N   1      -0.043  -0.652   0.018  0.00  0.00     0.182 C 
BRANCH   7   8
HETATM    8  C   UNK N   1      -0.665   0.464  -0.815  0.00  0.00     0.240 C 
HETATM    9  O   UNK N   1       0.005   1.051  -1.656  0.00  0.00    -0.271 OA
HETATM   10  N   UNK N   1      -1.946   0.841  -0.593  0.00  0.00    -0.364 N 
HETATM   11  C   UNK N   1      -2.554   1.932  -1.310  0.00  0.00     0.149 C 
HETATM   12  H   UNK N   1      -2.478   0.354   0.078  0.00  0.00     0.161 HD
ENDBRANCH   7   8
BRANCH   7  13
HETATM   13  C   UNK N   1      -0.681  -2.012  -0.302  0.00  0.00     0.073 C 
BRANCH  13  14
HETATM   14  C   UNK N   1      -2.136  -2.162   0.065  0.00  0.00    -0.056 A 
HETATM   15  C   UNK N   1      -2.718  -1.411   1.100  0.00  0.00     0.007 A 
HETATM   16  C   UNK N   1      -4.071  -1.566   1.411  0.00  0.00     0.001 A 
HETATM   17  C   UNK N   1      -4.850  -2.484   0.701  0.00  0.00     0.000 A 
HETATM   18  C   UNK N   1      -4.273  -3.248  -0.317  0.00  0.00     0.001 A 
HETATM   19  C   UNK N   1      -2.920  -3.087  -0.634  0.00  0.00     0.007 A 
ENDBRANCH  13  14
ENDBRANCH   7  13
ENDBRANCH   4   7
BRANCH   1  20
HETATM   20  C   UNK N   1       4.392   1.385  -0.111  0.00  0.00     0.169 A 
HETATM   21  N   UNK N   1       3.975   2.659   0.134  0.00  0.00    -0.278 N 
HETATM   22  N   UNK N   1       4.980   3.555   0.181  0.00  0.00    -0.286 N 
ATOM     23  HN  UNK N   1       2.996   2.910   0.270  1.00  0.00     0.189 HD
HETATM   24  C   UNK N   1       6.204   3.006  -0.033  0.00  0.00     0.127 A 
ATOM     25  HN  UNK N   1       4.836   4.549   0.360  1.00  0.00     0.188 HD
HETATM   26  S   UNK N   1       6.029   1.382  -0.288  0.00  0.00    -0.026 SA
BRANCH  24  27
HETATM   27  S   UNK N   1       7.736   3.922  -0.026  0.00  0.00    -0.117 SA
HETATM   28  H   UNK N   1       8.924   3.260  -0.021  0.00  0.00     0.109 HD
ENDBRANCH  24  27
ENDBRANCH   1  20
TORSDOF 6
