REMARK  5 active torsions:
REMARK  status: ('A' for Active; 'I' for Inactive)
REMARK    1  A    between atoms: C_11  and  C_12 
REMARK    2  A    between atoms: C_12  and  N_13 
REMARK       I    between atoms: N_13  and  C_14 
REMARK    3  A    between atoms: C_14  and  C_16 
REMARK    4  A    between atoms: C_30  and  C_31 
REMARK    5  A    between atoms: C_31  and  C_32 
REMARK       I    between atoms: C_32  and  N_34 
ROOT
HETATM    1  C   UNK N   1       1.350  -2.877   0.114  0.00  0.00     0.178 A 
HETATM    2  N   UNK N   1       0.336  -3.789   0.039  0.00  0.00    -0.331 N 
ATOM      3  HN  UNK N   1       0.537  -4.787  -0.028  1.00  0.00     0.168 HD
HETATM    4  N   UNK N   1       1.066  -1.545   0.255  0.00  0.00    -0.304 N 
HETATM    5  C   UNK N   1      -0.223  -1.083   0.328  0.00  0.00     0.260 A 
HETATM    6  O   UNK N   1      -0.432   0.106   0.482  0.00  0.00    -0.267 OA
HETATM    7  C   UNK N   1      -1.269  -1.999   0.204  0.00  0.00     0.073 A 
HETATM    8  C   UNK N   1      -2.682  -1.765   0.200  0.00  0.00    -0.022 A 
HETATM    9  C   UNK N   1      -0.941  -3.340   0.057  0.00  0.00     0.092 A 
HETATM   10  S   UNK N   1      -2.337  -4.211  -0.109  0.00  0.00    -0.075 SA
HETATM   11  C   UNK N   1      -3.417  -2.948  -0.001  0.00  0.00    -0.008 A 
HETATM   12  C   UNK N   1      -4.903  -3.014  -0.143  0.00  0.00     0.047 C 
HETATM   13  C   UNK N   1      -5.453  -1.621  -0.470  0.00  0.00     0.006 C 
HETATM   14  C   UNK N   1      -4.891  -0.589   0.510  0.00  0.00     0.010 C 
HETATM   15  C   UNK N   1      -3.362  -0.427   0.384  0.00  0.00     0.029 C 
HETATM   16  H   UNK N   1       1.808  -0.900   0.306  0.00  0.00     0.171 HD
ENDROOT
BRANCH   1  17
HETATM   17  C   UNK N   1       2.759  -3.322   0.063  0.00  0.00     0.286 C 
HETATM   18  N   UNK N   1       3.737  -2.538  -0.462  0.00  0.00    -0.350 N 
HETATM   19  H   UNK N   1       4.677  -2.760  -0.270  0.00  0.00     0.163 HD
HETATM   20  O   UNK N   1       3.047  -4.437   0.468  0.00  0.00    -0.264 OA
BRANCH  18  21
HETATM   21  C   UNK N   1       3.447  -1.388  -1.291  0.00  0.00     0.161 C 
BRANCH  21  22
HETATM   22  C   UNK N   1       3.870  -0.091  -0.698  0.00  0.00    -0.038 A 
HETATM   23  C   UNK N   1       2.968   0.979  -0.698  0.00  0.00     0.041 A 
HETATM   24  C   UNK N   1       3.375   2.237  -0.250  0.00  0.00     0.069 A 
HETATM   25  N   UNK N   1       2.478   3.328  -0.275  0.00  0.00    -0.323 N 
HETATM   26  C   UNK N   1       4.686   2.431   0.202  0.00  0.00     0.096 A 
HETATM   27  C   UNK N   1       2.877   4.557   0.127  0.00  0.00     0.246 A 
HETATM   28  H   UNK N   1       1.555   3.193  -0.589  0.00  0.00     0.169 HD
HETATM   29  O   UNK N   1       2.093   5.490   0.085  0.00  0.00    -0.271 OA
HETATM   30  C   UNK N   1       4.285   4.791   0.628  0.00  0.00     0.278 A 
HETATM   31  O   UNK N   1       5.087   3.655   0.623  0.00  0.00    -0.340 OA
HETATM   32  C   UNK N   1       5.587   1.361   0.207  0.00  0.00     0.040 A 
HETATM   33  C   UNK N   1       5.184   0.103  -0.255  0.00  0.00     0.012 A 
ENDBRANCH  21  22
ENDBRANCH  18  21
ENDBRANCH   1  17
BRANCH  15  34
HETATM   34  C   UNK N   1      -3.000   0.528  -0.756  0.00  0.00     0.111 C 
BRANCH  34  35
HETATM   35  C   UNK N   1      -3.300   1.956  -0.406  0.00  0.00     0.215 C 
HETATM   36  O   UNK N   1      -4.450   2.318  -0.216  0.00  0.00    -0.274 OA
HETATM   37  N   UNK N   1      -2.292   2.843  -0.295  0.00  0.00    -0.370 N 
HETATM   38  H   UNK N   1      -1.363   2.528  -0.214  0.00  0.00     0.159 HD
HETATM   39  H   UNK N   1      -2.485   3.808  -0.295  0.00  0.00     0.159 HD
ENDBRANCH  34  35
ENDBRANCH  15  34
TORSDOF 5
