REMARK  13 active torsions:
REMARK  status: ('A' for Active; 'I' for Inactive)
REMARK    1  A    between atoms: N_1  and  C_2 
REMARK    2  A    between atoms: C_2  and  C_3 
REMARK    3  A    between atoms: C_3  and  C_4 
REMARK    4  A    between atoms: C_4  and  C_5 
REMARK    5  A    between atoms: C_5  and  N_6 
REMARK    6  A    between atoms: N_6  and  N_7 
REMARK       I    between atoms: N_7  and  C_8 
REMARK    7  A    between atoms: C_10  and  C_8 
REMARK       I    between atoms: N_11  and  C_15 
REMARK    8  A    between atoms: C_15  and  C_17 
REMARK    9  A    between atoms: C_17  and  N_18 
REMARK   10  A    between atoms: C_17  and  C_19 
REMARK       I    between atoms: N_18  and  C_26 
REMARK   11  A    between atoms: C_19  and  C_20 
REMARK   12  A    between atoms: C_26  and  O_28 
REMARK   13  A    between atoms: O_28  and  C_29 
ROOT
HETATM    1  C   UNK N   1      -0.601  -1.638  -0.442  0.00  0.00     0.181 C 
HETATM    2  N   UNK N   1       0.757  -1.184  -0.280  0.00  0.00    -0.337 N 
HETATM    3  C   UNK N   1      -0.567  -2.934   0.339  0.00  0.00     0.037 C 
HETATM    4  C   UNK N   1       0.877  -3.450   0.065  0.00  0.00     0.022 C 
HETATM    5  C   UNK N   1       1.666  -2.257  -0.518  0.00  0.00     0.127 C 
HETATM    6  C   UNK N   1       1.157  -0.000   0.298  0.00  0.00     0.243 C 
HETATM    7  O   UNK N   1       0.358   0.667   0.937  0.00  0.00    -0.271 OA
ENDROOT
BRANCH   1   8
HETATM    8  C   UNK N   1      -1.663  -0.559  -0.260  0.00  0.00     0.258 C 
HETATM    9  N   UNK N   1      -2.746  -0.677   0.539  0.00  0.00    -0.273 N 
HETATM   10  H   UNK N   1      -3.249   0.136   0.772  0.00  0.00     0.189 HD
HETATM   11  O   UNK N   1      -1.537   0.472  -0.904  0.00  0.00    -0.269 OA
BRANCH   9  12
HETATM   12  N   UNK N   1      -3.180  -1.892   1.045  0.00  0.00    -0.334 N 
HETATM   13  H   UNK N   1      -2.604  -2.591   1.514  0.00  0.00     0.180 HD
BRANCH  12  14
HETATM   14  C   UNK N   1      -4.624  -1.989   0.779  0.00  0.00     0.139 C 
BRANCH  14  15
HETATM   15  C   UNK N   1      -5.032  -1.401  -0.584  0.00  0.00     0.023 C 
BRANCH  15  16
HETATM   16  C   UNK N   1      -6.520  -1.547  -0.870  0.00  0.00     0.021 C 
BRANCH  16  17
HETATM   17  C   UNK N   1      -7.362  -0.617  -0.013  0.00  0.00     0.111 C 
BRANCH  17  18
HETATM   18  N   UNK N   1      -7.682  -1.265   1.246  0.00  0.00    -0.430 N 
HETATM   19  H   UNK N   1      -8.189  -1.299   2.130  0.00  0.00     0.149 HD
HETATM   20  H   UNK N   1      -7.116  -2.114   1.246  0.00  0.00     0.149 HD
ENDBRANCH  17  18
ENDBRANCH  16  17
ENDBRANCH  15  16
ENDBRANCH  14  15
ENDBRANCH  12  14
ENDBRANCH   9  12
ENDBRANCH   1   8
BRANCH   6  21
HETATM   21  C   UNK N   1       2.556   0.554   0.073  0.00  0.00     0.183 C 
BRANCH  21  22
HETATM   22  N   UNK N   1       3.593  -0.389   0.433  0.00  0.00    -0.323 N 
HETATM   23  C   UNK N   1       4.865  -0.263  -0.028  0.00  0.00     0.361 C 
HETATM   24  O   UNK N   1       5.166   0.679  -0.758  0.00  0.00    -0.238 OA
HETATM   25  H   UNK N   1       3.371  -1.142   1.027  0.00  0.00     0.165 HD
BRANCH  23  26
HETATM   26  O   UNK N   1       5.785  -1.212   0.270  0.00  0.00    -0.304 OA
BRANCH  26  27
HETATM   27  C   UNK N   1       7.042  -1.251  -0.300  0.00  0.00     0.176 C 
HETATM   28  C   UNK N   1       7.913  -0.116   0.212  0.00  0.00     0.034 C 
ENDBRANCH  26  27
ENDBRANCH  23  26
ENDBRANCH  21  22
BRANCH  21  29
HETATM   29  C   UNK N   1       2.824   1.912   0.766  0.00  0.00     0.073 C 
BRANCH  29  30
HETATM   30  C   UNK N   1       1.968   3.098   0.376  0.00  0.00    -0.056 A 
HETATM   31  C   UNK N   1       0.833   2.979  -0.446  0.00  0.00     0.007 A 
HETATM   32  C   UNK N   1       0.052   4.097  -0.747  0.00  0.00     0.001 A 
HETATM   33  C   UNK N   1       0.410   5.351  -0.249  0.00  0.00     0.000 A 
HETATM   34  C   UNK N   1       1.548   5.484   0.553  0.00  0.00     0.001 A 
HETATM   35  C   UNK N   1       2.318   4.360   0.869  0.00  0.00     0.007 A 
ENDBRANCH  29  30
ENDBRANCH  21  29
ENDBRANCH   6  21
TORSDOF 13
