REMARK  7 active torsions:
REMARK  status: ('A' for Active; 'I' for Inactive)
REMARK    1  A    between atoms: C_2  and  C_5 
REMARK    2  A    between atoms: C_5  and  O_6 
REMARK    3  A    between atoms: C_5  and  C_8 
REMARK       I    between atoms: C_8  and  N_10 
REMARK    4  A    between atoms: N_10  and  C_11 
REMARK    5  A    between atoms: C_17  and  S_18 
REMARK    6  A    between atoms: S_18  and  C_21 
REMARK    7  A    between atoms: C_26  and  C_27 
REMARK       I    between atoms: C_27  and  N_29 
ROOT
HETATM    1  C   UNK N   1      -2.044   0.907   0.501  0.00  0.00     0.056 A 
HETATM    2  C   UNK N   1      -1.509   2.080  -0.056  0.00  0.00     0.033 A 
HETATM    3  C   UNK N   1      -0.219   2.102  -0.582  0.00  0.00     0.026 A 
HETATM    4  C   UNK N   1      -1.232  -0.236   0.577  0.00  0.00     0.062 A 
HETATM    5 Cl   UNK N   1      -1.833  -1.737   1.263  0.00  0.00    -0.082 Cl
HETATM    6  C   UNK N   1       0.054  -0.213   0.047  0.00  0.00     0.050 A 
HETATM    7  C   UNK N   1       0.555   0.947  -0.542  0.00  0.00     0.066 A 
ENDROOT
BRANCH   7   8
HETATM    8  S   UNK N   1       2.106   0.854  -1.396  0.00  0.00     0.206 S 
HETATM    9  O   UNK N   1       1.734   0.450  -2.830  0.00  0.00    -0.217 OA
HETATM   10  O   UNK N   1       2.710   2.242  -1.666  0.00  0.00    -0.217 OA
BRANCH   8  11
HETATM   11  C   UNK N   1       3.328  -0.328  -0.885  0.00  0.00     0.064 A 
HETATM   12  C   UNK N   1       4.646   0.046  -0.620  0.00  0.00     0.025 A 
HETATM   13  C   UNK N   1       5.571  -0.924  -0.218  0.00  0.00     0.018 A 
HETATM   14  C   UNK N   1       5.182  -2.270  -0.068  0.00  0.00     0.032 A 
HETATM   15  C   UNK N   1       3.852  -2.616  -0.331  0.00  0.00     0.018 A 
HETATM   16  C   UNK N   1       2.934  -1.656  -0.736  0.00  0.00     0.025 A 
BRANCH  14  17
HETATM   17  C   UNK N   1       6.208  -3.287   0.337  0.00  0.00     0.253 C 
HETATM   18  N   UNK N   1       5.914  -4.612   0.566  0.00  0.00    -0.357 N 
HETATM   19  C   UNK N   1       6.972  -5.524   0.926  0.00  0.00     0.152 C 
HETATM   20  C   UNK N   1       4.584  -5.157   0.482  0.00  0.00     0.152 C 
HETATM   21  O   UNK N   1       7.362  -2.907   0.459  0.00  0.00    -0.267 OA
ENDBRANCH  14  17
ENDBRANCH   8  11
ENDBRANCH   7   8
BRANCH   1  22
HETATM   22  N   UNK N   1      -3.393   0.815   0.957  0.00  0.00    -0.323 N 
HETATM   23  C   UNK N   1      -4.455   1.656   0.770  0.00  0.00     0.265 C 
HETATM   24  O   UNK N   1      -5.525   1.326   1.260  0.00  0.00    -0.269 OA
HETATM   25  H   UNK N   1      -3.592   0.015   1.495  0.00  0.00     0.169 HD
BRANCH  23  26
HETATM   26  C   UNK N   1      -4.388   2.960  -0.031  0.00  0.00     0.233 C 
HETATM   27  C   UNK N   1      -3.985   2.668  -1.475  0.00  0.00     0.066 C 
BRANCH  26  28
HETATM   28  C   UNK N   1      -5.740   3.700  -0.063  0.00  0.00     0.427 C 
HETATM   29  F   UNK N   1      -6.712   2.921  -0.669  0.00  0.00    -0.167 F 
HETATM   30  F   UNK N   1      -6.142   4.003   1.227  0.00  0.00    -0.167 F 
HETATM   31  F   UNK N   1      -5.615   4.884  -0.770  0.00  0.00    -0.167 F 
ENDBRANCH  26  28
BRANCH  26  32
HETATM   32  O   UNK N   1      -3.461   3.822   0.558  0.00  0.00    -0.373 OA
HETATM   33  H   UNK N   1      -2.620   3.564   0.967  0.00  0.00     0.211 HD
ENDBRANCH  26  32
ENDBRANCH  23  26
ENDBRANCH   1  22
TORSDOF 7
