REMARK  6 active torsions:
REMARK  status: ('A' for Active; 'I' for Inactive)
REMARK    1  A    between atoms: C_1  and  C_15 
REMARK       I    between atoms: C_15  and  N_17 
REMARK    2  A    between atoms: N_17  and  C_18 
REMARK    3  A    between atoms: C_21  and  C_24 
REMARK       I    between atoms: C_24  and  N_25 
REMARK    4  A    between atoms: N_25  and  C_27 
REMARK    5  A    between atoms: C_27  and  C_28 
REMARK    6  A    between atoms: C_28  and  N_29 
ROOT
HETATM    1  C   UNK N   1      -1.250   2.811  -0.196  0.00  0.00     0.257 C 
HETATM    2  O   UNK N   1      -0.781   3.938  -0.236  0.00  0.00    -0.267 OA
HETATM    3  N   UNK N   1      -0.541   1.748   0.245  0.00  0.00    -0.303 N 
HETATM    4  H   UNK N   1      -1.074   0.920   0.245  0.00  0.00     0.171 HD
ENDROOT
BRANCH   1   5
HETATM    5  C   UNK N   1      -2.623   2.488  -0.614  0.00  0.00     0.033 A 
HETATM    6  C   UNK N   1      -3.632   3.409  -1.004  0.00  0.00     0.019 A 
HETATM    7  C   UNK N   1      -4.965   2.942  -1.208  0.00  0.00     0.031 A 
HETATM    8  C   UNK N   1      -5.218   1.575  -0.999  0.00  0.00     0.043 A 
HETATM    9  C   UNK N   1      -4.212   0.723  -0.675  0.00  0.00     0.001 A 
HETATM   10  N   UNK N   1      -6.404   0.919  -0.973  0.00  0.00    -0.351 N 
HETATM   11  C   UNK N   1      -2.939   1.133  -0.493  0.00  0.00     0.031 A 
HETATM   12  C   UNK N   1      -4.734  -0.506  -0.468  0.00  0.00    -0.008 A 
HETATM   13  C   UNK N   1      -4.052  -1.759  -0.009  0.00  0.00     0.036 C 
HETATM   14  C   UNK N   1      -6.081  -0.356  -0.625  0.00  0.00     0.108 A 
HETATM   15  C   UNK N   1      -2.907  -2.117  -0.944  0.00  0.00     0.017 C 
HETATM   16  C   UNK N   1      -5.021  -2.961   0.037  0.00  0.00     0.132 C 
HETATM   17  N   UNK N   1      -6.446  -2.638   0.131  0.00  0.00    -0.355 N 
HETATM   18  C   UNK N   1      -6.971  -1.443  -0.239  0.00  0.00     0.268 C 
HETATM   19  H   UNK N   1      -7.057  -3.326   0.481  0.00  0.00     0.162 HD
HETATM   20  O   UNK N   1      -8.178  -1.255  -0.168  0.00  0.00    -0.266 OA
HETATM   21  H   UNK N   1      -7.298   1.283  -1.163  0.00  0.00     0.166 HD
ENDBRANCH   1   5
BRANCH   3  22
HETATM   22  C   UNK N   1       0.758   1.537   0.698  0.00  0.00     0.151 A 
HETATM   23  S   UNK N   1       1.920   2.619   1.110  0.00  0.00    -0.063 SA
HETATM   24  C   UNK N   1       3.167   1.526   1.283  0.00  0.00     0.088 A 
HETATM   25  C   UNK N   1       2.600   0.264   0.974  0.00  0.00     0.109 A 
HETATM   26  N   UNK N   1       1.268   0.295   0.680  0.00  0.00    -0.332 N 
ATOM     27  HN  UNK N   1       0.718  -0.537   0.469  1.00  0.00     0.168 HD
BRANCH  25  28
HETATM   28  C   UNK N   1       3.327  -1.026   0.831  0.00  0.00     0.268 C 
HETATM   29  O   UNK N   1       2.670  -2.048   0.701  0.00  0.00    -0.266 OA
HETATM   30  N   UNK N   1       4.681  -1.113   0.751  0.00  0.00    -0.354 N 
HETATM   31  H   UNK N   1       5.079  -2.012   0.695  0.00  0.00     0.162 HD
BRANCH  30  32
HETATM   32  C   UNK N   1       5.576   0.019   0.743  0.00  0.00     0.153 C 
BRANCH  32  33
HETATM   33  C   UNK N   1       5.381   0.858  -0.534  0.00  0.00     0.291 C 
BRANCH  33  34
HETATM   34  N   UNK N   1       6.363   0.599  -1.586  0.00  0.00     0.081 N 
HETATM   35  C   UNK N   1       6.296  -0.789  -2.016  0.00  0.00     0.309 C 
HETATM   36  C   UNK N   1       7.701   0.880  -1.091  0.00  0.00     0.309 C 
ENDBRANCH  33  34
ENDBRANCH  32  33
ENDBRANCH  30  32
ENDBRANCH  25  28
ENDBRANCH   3  22
TORSDOF 6
