REMARK  4 active torsions:
REMARK  status: ('A' for Active; 'I' for Inactive)
REMARK    1  A    between atoms: O_1  and  C_2 
REMARK    2  A    between atoms: C_2  and  C_4 
REMARK    3  A    between atoms: C_8  and  C_9 
REMARK    4  A    between atoms: C_14  and  N_15 
ROOT
HETATM    1  C   UNK N   1      -1.198   2.555   0.000  0.00  0.00     0.149 A 
HETATM    2  O   UNK N   1      -0.168   1.742  -0.000  0.00  0.00    -0.303 OA
HETATM    3  C   UNK N   1      -2.369   1.839   0.000  0.00  0.00     0.047 A 
HETATM    4  C   UNK N   1      -1.987   0.518   0.000  0.00  0.00     0.041 A 
HETATM    5  C   UNK N   1      -0.607   0.499   0.000  0.00  0.00     0.089 A 
ENDROOT
BRANCH   5   6
HETATM    6  C   UNK N   1       0.317  -0.682   0.000  0.00  0.00     0.031 A 
HETATM    7  C   UNK N   1       1.684  -0.343  -0.000  0.00  0.00     0.017 A 
HETATM    8  C   UNK N   1       2.686  -1.308  -0.000  0.00  0.00     0.001 A 
HETATM    9  C   UNK N   1       2.352  -2.652  -0.000  0.00  0.00     0.002 A 
HETATM   10  C   UNK N   1       1.015  -3.032  -0.000  0.00  0.00     0.037 A 
HETATM   11  C   UNK N   1      -0.034  -2.092   0.000  0.00  0.00     0.115 A 
BRANCH  11  12
HETATM   12  N   UNK N   1      -1.364  -2.641  -0.000  0.00  0.00    -0.115 N 
HETATM   13  O   UNK N   1      -1.523  -3.947   0.000  0.00  0.00    -0.532 OA
HETATM   14  O   UNK N   1      -2.335  -1.957  -0.000  0.00  0.00    -0.532 OA
ENDBRANCH  11  12
ENDBRANCH   5   6
BRANCH   1  15
HETATM   15  C   UNK N   1      -1.124   4.020  -0.000  0.00  0.00     0.201 C 
HETATM   16  O   UNK N   1      -0.042   4.582  -0.000  0.00  0.00    -0.645 OA
BRANCH  15  17
HETATM   17  O   UNK N   1      -2.257   4.748   0.000  0.00  0.00    -0.771 OA
HETATM   18  H   UNK N   1      -2.213   5.684   0.000  0.00  0.00     0.167 HD
ENDBRANCH  15  17
ENDBRANCH   1  15
TORSDOF 4
