REMARK  7 active torsions:
REMARK  status: ('A' for Active; 'I' for Inactive)
REMARK    1  A    between atoms: C_1  and  O_12 
REMARK    2  A    between atoms: C_4  and  C_9 
REMARK    3  A    between atoms: C_9  and  C_10 
REMARK    4  A    between atoms: C_9  and  C_14 
REMARK    5  A    between atoms: C_14  and  C_15 
REMARK    6  A    between atoms: C_17  and  N_27 
REMARK    7  A    between atoms: C_20  and  O_21 
REMARK       I    between atoms: C_23  and  N_26 
ROOT
HETATM    1  C   UNK N   1      -0.732  -0.528  -0.394  0.00  0.00     0.075 C 
ENDROOT
BRANCH   1   2
HETATM    2  C   UNK N   1      -1.185  -1.987  -0.266  0.00  0.00    -0.045 A 
HETATM    3  C   UNK N   1      -2.535  -2.347  -0.139  0.00  0.00     0.011 A 
HETATM    4  C   UNK N   1      -2.917  -3.678   0.009  0.00  0.00     0.040 A 
HETATM    5  C   UNK N   1      -1.960  -4.692   0.048  0.00  0.00     0.106 A 
HETATM    6  C   UNK N   1      -0.594  -4.350  -0.104  0.00  0.00     0.150 A 
HETATM    7  C   UNK N   1      -0.224  -3.011  -0.274  0.00  0.00     0.053 A 
HETATM    8  F   UNK N   1       0.380  -5.292  -0.075  0.00  0.00    -0.203 F 
BRANCH   5   9
HETATM    9  O   UNK N   1      -2.392  -5.963   0.243  0.00  0.00    -0.353 OA
HETATM   10  C   UNK N   1      -1.573  -7.052   0.430  0.00  0.00     0.210 C 
ENDBRANCH   5   9
ENDBRANCH   1   2
BRANCH   1  11
HETATM   11  C   UNK N   1      -1.829   0.520  -0.155  0.00  0.00     0.051 A 
HETATM   12  N   UNK N   1      -1.682   1.830  -0.424  0.00  0.00    -0.194 N 
HETATM   13  C   UNK N   1      -2.835   2.393  -0.027  0.00  0.00     0.675 A 
ATOM     14  HN  UNK N   1      -0.873   2.294  -0.838  1.00  0.00     0.184 HD
HETATM   15  N   UNK N   1      -3.712   1.509   0.475  0.00  0.00    -0.200 N 
HETATM   16  N   UNK N   1      -3.092   3.776  -0.106  0.00  0.00    -0.234 N 
HETATM   17  C   UNK N   1      -3.087   0.320   0.397  0.00  0.00     0.132 A 
HETATM   18  H   UNK N   1      -4.614   1.690   0.824  0.00  0.00     0.183 HD
HETATM   19  H   UNK N   1      -2.345   4.415  -0.161  0.00  0.00     0.174 HD
HETATM   20  H   UNK N   1      -4.020   4.104  -0.106  0.00  0.00     0.174 HD
ENDBRANCH   1  11
BRANCH   1  21
HETATM   21  C   UNK N   1       0.455  -0.320   0.584  0.00  0.00     0.057 C 
BRANCH  21  22
HETATM   22  C   UNK N   1       1.354   0.861   0.320  0.00  0.00    -0.021 A 
HETATM   23  C   UNK N   1       0.836   2.135   0.553  0.00  0.00     0.046 A 
HETATM   24  C   UNK N   1       1.581   3.289   0.318  0.00  0.00     0.103 A 
HETATM   25  C   UNK N   1       2.892   3.168  -0.151  0.00  0.00     0.039 A 
HETATM   26  C   UNK N   1       3.446   1.905  -0.363  0.00  0.00     0.040 A 
HETATM   27  C   UNK N   1       2.705   0.738  -0.127  0.00  0.00     0.074 A 
BRANCH  24  28
HETATM   28  N   UNK N   1       0.996   4.564   0.546  0.00  0.00    -0.116 N 
HETATM   29  O   UNK N   1      -0.237   4.656   0.999  0.00  0.00    -0.532 OA
HETATM   30  O   UNK N   1       1.614   5.562   0.322  0.00  0.00    -0.532 OA
ENDBRANCH  24  28
BRANCH  27  31
HETATM   31  O   UNK N   1       3.339  -0.447  -0.339  0.00  0.00    -0.355 OA
HETATM   32  C   UNK N   1       2.859  -1.694  -0.020  0.00  0.00     0.210 C 
ENDBRANCH  27  31
ENDBRANCH  21  22
ENDBRANCH   1  21
TORSDOF 7
