REMARK  16 active torsions:
REMARK  status: ('A' for Active; 'I' for Inactive)
REMARK    1  A    between atoms: C_2  and  C_3 
REMARK    2  A    between atoms: C_2  and  O_17 
REMARK    3  A    between atoms: C_3  and  C_4 
REMARK    4  A    between atoms: C_4  and  C_5 
REMARK    5  A    between atoms: C_5  and  C_6 
REMARK    6  A    between atoms: C_6  and  C_7 
REMARK    7  A    between atoms: C_7  and  C_8 
REMARK    8  A    between atoms: C_8  and  C_9 
REMARK    9  A    between atoms: C_12  and  C_13 
REMARK   10  A    between atoms: C_12  and  O_19 
REMARK   11  A    between atoms: C_13  and  C_14 
REMARK   12  A    between atoms: C_16  and  O_17 
REMARK   13  A    between atoms: C_16  and  C_18 
REMARK   14  A    between atoms: C_18  and  O_19 
REMARK   15  A    between atoms: C_18  and  C_20 
REMARK   16  A    between atoms: C_20  and  O_21 
ROOT
HETATM    1  C   UNK N   1       1.944   0.727   0.557  0.00  0.00     0.213 C 
ENDROOT
BRANCH   1   2
HETATM    2  O   UNK N   1       1.046   0.988  -0.456  0.00  0.00    -0.319 OA
BRANCH   2   3
HETATM    3  C   UNK N   1      -0.173   0.402  -0.537  0.00  0.00     0.258 C 
HETATM    4  O   UNK N   1      -1.002   0.858  -1.307  0.00  0.00    -0.265 OA
BRANCH   3   5
HETATM    5  C   UNK N   1      -0.495  -0.834   0.257  0.00  0.00     0.111 C 
BRANCH   5   6
HETATM    6  C   UNK N   1      -1.597  -0.597   1.272  0.00  0.00     0.010 C 
BRANCH   6   7
HETATM    7  C   UNK N   1      -2.917  -1.170   0.787  0.00  0.00     0.000 C 
BRANCH   7   8
HETATM    8  C   UNK N   1      -3.565  -0.220  -0.200  0.00  0.00     0.000 C 
BRANCH   8   9
HETATM    9  C   UNK N   1      -4.964  -0.693  -0.523  0.00  0.00     0.000 C 
BRANCH   9  10
HETATM   10  C   UNK N   1      -5.965   0.265   0.087  0.00  0.00    -0.000 C 
BRANCH  10  11
HETATM   11  C   UNK N   1      -7.367  -0.238  -0.179  0.00  0.00    -0.005 C 
HETATM   12  C   UNK N   1      -8.369   0.760   0.362  0.00  0.00     0.005 C 
ENDBRANCH  10  11
ENDBRANCH   9  10
ENDBRANCH   8   9
ENDBRANCH   7   8
ENDBRANCH   6   7
ENDBRANCH   5   6
ENDBRANCH   3   5
ENDBRANCH   2   3
ENDBRANCH   1   2
BRANCH   1  13
HETATM   13  C   UNK N   1       3.140  -0.090   0.076  0.00  0.00     0.179 C 
BRANCH  13  14
HETATM   14  O   UNK N   1       4.266   0.392   0.721  0.00  0.00    -0.312 OA
BRANCH  14  15
HETATM   15  C   UNK N   1       5.519  -0.109   0.555  0.00  0.00     0.259 C 
HETATM   16  O   UNK N   1       5.696  -1.202   0.031  0.00  0.00    -0.265 OA
BRANCH  15  17
HETATM   17  C   UNK N   1       6.696   0.693   0.995  0.00  0.00     0.111 C 
BRANCH  17  18
HETATM   18  C   UNK N   1       7.565   1.001  -0.213  0.00  0.00     0.005 C 
HETATM   19  C   UNK N   1       8.714   1.899   0.186  0.00  0.00     0.005 C 
ENDBRANCH  17  18
ENDBRANCH  15  17
ENDBRANCH  14  15
ENDBRANCH  13  14
BRANCH  13  20
HETATM   20  C   UNK N   1       2.917  -1.568   0.402  0.00  0.00     0.198 C 
BRANCH  20  21
HETATM   21  O   UNK N   1       1.985  -2.134  -0.467  0.00  0.00    -0.398 OA
HETATM   22  H   UNK N   1       1.320  -1.769  -1.072  0.00  0.00     0.209 HD
ENDBRANCH  20  21
ENDBRANCH  13  20
ENDBRANCH   1  13
TORSDOF 16
