REMARK  7 active torsions:
REMARK  status: ('A' for Active; 'I' for Inactive)
REMARK    1  A    between atoms: C_3  and  N_4 
REMARK    2  A    between atoms: C_9  and  O_10 
REMARK    3  A    between atoms: O_10  and  P_11 
REMARK    4  A    between atoms: P_11  and  O_12 
REMARK    5  A    between atoms: P_11  and  O_14 
REMARK    6  A    between atoms: O_14  and  C_15 
REMARK    7  A    between atoms: C_18  and  N_19 
ROOT
HETATM    1  P   UNK N   1      -0.002  -0.675   0.483  0.00  0.00     0.403 P 
HETATM    2  O   UNK N   1       0.659  -2.074   0.628  0.00  0.00    -0.631 OA
ENDROOT
BRANCH   1   3
HETATM    3  O   UNK N   1       1.097   0.310  -0.413  0.00  0.00    -0.254 OA
BRANCH   3   4
HETATM    4  C   UNK N   1       2.352  -0.156  -0.528  0.00  0.00     0.081 A 
HETATM    5  C   UNK N   1       3.332   0.312   0.352  0.00  0.00     0.040 A 
HETATM    6  C   UNK N   1       4.537  -0.379   0.481  0.00  0.00     0.039 A 
HETATM    7  C   UNK N   1       4.766  -1.545  -0.265  0.00  0.00     0.103 A 
HETATM    8  C   UNK N   1       3.813  -1.957  -1.209  0.00  0.00     0.039 A 
HETATM    9  C   UNK N   1       2.610  -1.267  -1.338  0.00  0.00     0.040 A 
BRANCH   7  10
HETATM   10  N   UNK N   1       5.911  -2.346  -0.007  0.00  0.00    -0.116 N 
HETATM   11  O   UNK N   1       6.039  -3.402  -0.550  0.00  0.00    -0.532 OA
HETATM   12  O   UNK N   1       6.748  -2.008   0.951  0.00  0.00    -0.532 OA
ENDBRANCH   7  10
ENDBRANCH   3   4
ENDBRANCH   1   3
BRANCH   1  13
HETATM   13  O   UNK N   1      -0.183  -0.101   2.110  0.00  0.00    -0.307 OA
HETATM   14  H   UNK N   1       0.044   0.147   3.019  0.00  0.00     0.222 HD
ENDBRANCH   1  13
BRANCH   1  15
HETATM   15  O   UNK N   1      -1.529  -0.978  -0.240  0.00  0.00    -0.254 OA
BRANCH  15  16
HETATM   16  C   UNK N   1      -2.550  -0.098  -0.215  0.00  0.00     0.081 A 
HETATM   17  C   UNK N   1      -3.846  -0.574  -0.425  0.00  0.00     0.040 A 
HETATM   18  C   UNK N   1      -4.938   0.288  -0.331  0.00  0.00     0.039 A 
HETATM   19  C   UNK N   1      -4.744   1.647  -0.039  0.00  0.00     0.103 A 
HETATM   20  C   UNK N   1      -3.441   2.130   0.150  0.00  0.00     0.039 A 
HETATM   21  C   UNK N   1      -2.350   1.262   0.072  0.00  0.00     0.040 A 
BRANCH  19  22
HETATM   22  N   UNK N   1      -5.858   2.523   0.070  0.00  0.00    -0.116 N 
HETATM   23  O   UNK N   1      -6.969   2.104  -0.040  0.00  0.00    -0.532 OA
HETATM   24  O   UNK N   1      -5.670   3.805   0.307  0.00  0.00    -0.532 OA
ENDBRANCH  19  22
ENDBRANCH  15  16
ENDBRANCH   1  15
TORSDOF 7
