REMARK  11 active torsions:
REMARK  status: ('A' for Active; 'I' for Inactive)
REMARK    1  A    between atoms: C_6  and  O_7 
REMARK    2  A    between atoms: O_7  and  C_8 
REMARK    3  A    between atoms: C_13  and  C_14 
REMARK    4  A    between atoms: C_14  and  C_15 
REMARK    5  A    between atoms: C_15  and  C_16 
REMARK    6  A    between atoms: C_16  and  C_17 
REMARK    7  A    between atoms: C_17  and  P_18 
REMARK    8  A    between atoms: C_17  and  S_22 
REMARK    9  A    between atoms: P_18  and  O_19 
REMARK   10  A    between atoms: P_18  and  O_20 
REMARK   11  A    between atoms: S_22  and  O_25 
ROOT
HETATM    1  C   UNK N   1      -0.861   2.237   0.120  0.00  0.00     0.039 C 
ENDROOT
BRANCH   1   2
HETATM    2  C   UNK N   1      -1.263   0.791   0.027  0.00  0.00    -0.056 A 
HETATM    3  C   UNK N   1      -2.625   0.469   0.051  0.00  0.00     0.044 A 
HETATM    4  C   UNK N   1      -3.048  -0.864  -0.020  0.00  0.00     0.076 A 
HETATM    5  C   UNK N   1      -2.084  -1.880  -0.129  0.00  0.00     0.037 A 
HETATM    6  C   UNK N   1      -0.723  -1.567  -0.157  0.00  0.00     0.003 A 
HETATM    7  C   UNK N   1      -0.313  -0.237  -0.074  0.00  0.00     0.007 A 
BRANCH   4   8
HETATM    8  O   UNK N   1      -4.387  -1.122   0.022  0.00  0.00    -0.311 OA
BRANCH   8   9
HETATM    9  C   UNK N   1      -5.033  -2.321   0.011  0.00  0.00     0.076 A 
HETATM   10  C   UNK N   1      -4.355  -3.553  -0.035  0.00  0.00     0.037 A 
HETATM   11  C   UNK N   1      -5.064  -4.756  -0.042  0.00  0.00     0.003 A 
HETATM   12  C   UNK N   1      -6.460  -4.743  -0.002  0.00  0.00     0.000 A 
HETATM   13  C   UNK N   1      -7.144  -3.526   0.046  0.00  0.00     0.003 A 
HETATM   14  C   UNK N   1      -6.433  -2.323   0.052  0.00  0.00     0.037 A 
ENDBRANCH   8   9
ENDBRANCH   4   8
ENDBRANCH   1   2
BRANCH   1  15
HETATM   15  C   UNK N   1       0.633   2.459   0.321  0.00  0.00     0.006 C 
BRANCH  15  16
HETATM   16  C   UNK N   1       1.424   2.402  -0.987  0.00  0.00     0.034 C 
BRANCH  16  17
HETATM   17  C   UNK N   1       2.931   2.312  -0.719  0.00  0.00     0.232 C 
BRANCH  17  18
HETATM   18  P   UNK N   1       3.590   3.836   0.156  0.00  0.00     0.256 P 
HETATM   19  O   UNK N   1       2.520   4.491   1.069  0.00  0.00    -0.653 OA
BRANCH  18  20
HETATM   20  O   UNK N   1       4.061   5.121  -0.911  0.00  0.00    -0.328 OA
HETATM   21  H   UNK N   1       4.814   5.252  -1.508  0.00  0.00     0.220 HD
ENDBRANCH  18  20
BRANCH  18  22
HETATM   22  O   UNK N   1       4.930   3.567   1.226  0.00  0.00    -0.328 OA
HETATM   23  H   UNK N   1       5.174   2.843   1.823  0.00  0.00     0.220 HD
ENDBRANCH  18  22
ENDBRANCH  17  18
BRANCH  17  24
HETATM   24  S   UNK N   1       3.368   0.783   0.178  0.00  0.00     0.110 S 
HETATM   25  O   UNK N   1       2.728   0.641   1.566  0.00  0.00    -0.601 OA
HETATM   26  O   UNK N   1       4.864   0.759   0.527  0.00  0.00    -0.601 OA
BRANCH  24  27
HETATM   27  O   UNK N   1       3.115  -0.720  -0.613  0.00  0.00    -0.295 OA
HETATM   28  H   UNK N   1       2.308  -1.021  -1.060  0.00  0.00     0.232 HD
ENDBRANCH  24  27
ENDBRANCH  17  24
ENDBRANCH  16  17
ENDBRANCH  15  16
ENDBRANCH   1  15
TORSDOF 11
