REMARK  8 active torsions:
REMARK  status: ('A' for Active; 'I' for Inactive)
REMARK    1  A    between atoms: C_2  and  C_5 
REMARK    2  A    between atoms: C_7  and  N_8 
REMARK    3  A    between atoms: C_13  and  N_14 
REMARK       I    between atoms: N_14  and  C_15 
REMARK    4  A    between atoms: C_15  and  C_17 
REMARK    5  A    between atoms: C_17  and  O_18 
REMARK    6  A    between atoms: C_17  and  C_20 
REMARK    7  A    between atoms: C_20  and  O_21 
REMARK    8  A    between atoms: O_21  and  C_22 
ROOT
HETATM    1  N   UNK N   1      -1.181  -0.339   0.224  0.00  0.00    -0.325 N 
HETATM    2  C   UNK N   1      -0.204   0.340   0.890  0.00  0.00     0.258 C 
HETATM    3  O   UNK N   1      -0.472   1.352   1.526  0.00  0.00    -0.270 OA
HETATM    4  H   UNK N   1      -0.969  -1.223  -0.156  0.00  0.00     0.169 HD
ENDROOT
BRANCH   2   5
HETATM    5  C   UNK N   1       1.204  -0.173   0.853  0.00  0.00     0.156 C 
HETATM    6  C   UNK N   1       2.137   0.657   1.724  0.00  0.00     0.059 C 
BRANCH   5   7
HETATM    7  O   UNK N   1       1.209  -1.490   1.324  0.00  0.00    -0.378 OA
HETATM    8  H   UNK N   1       0.420  -1.950   1.650  0.00  0.00     0.211 HD
ENDBRANCH   5   7
BRANCH   5   9
HETATM    9  C   UNK N   1       1.680  -0.088  -0.605  0.00  0.00     0.223 C 
BRANCH   9  10
HETATM   10  O   UNK N   1       2.277  -1.261  -1.002  0.00  0.00    -0.342 OA
BRANCH  10  11
HETATM   11  C   UNK N   1       3.527  -1.637  -0.651  0.00  0.00     0.152 A 
HETATM   12  C   UNK N   1       4.556  -0.705  -0.383  0.00  0.00     0.194 A 
HETATM   13  F   UNK N   1       4.340   0.631  -0.500  0.00  0.00    -0.200 F 
HETATM   14  C   UNK N   1       5.824  -1.160  -0.004  0.00  0.00     0.199 A 
HETATM   15  F   UNK N   1       6.815  -0.271   0.251  0.00  0.00    -0.199 F 
HETATM   16  C   UNK N   1       6.069  -2.532   0.116  0.00  0.00     0.199 A 
HETATM   17  F   UNK N   1       7.295  -2.972   0.495  0.00  0.00    -0.199 F 
HETATM   18  C   UNK N   1       5.052  -3.452  -0.153  0.00  0.00     0.199 A 
HETATM   19  F   UNK N   1       5.287  -4.782  -0.031  0.00  0.00    -0.199 F 
HETATM   20  C   UNK N   1       3.790  -3.004  -0.543  0.00  0.00     0.194 A 
HETATM   21  F   UNK N   1       2.802  -3.901  -0.793  0.00  0.00    -0.200 F 
ENDBRANCH  10  11
ENDBRANCH   9  10
ENDBRANCH   5   9
ENDBRANCH   2   5
BRANCH   1  22
HETATM   22  C   UNK N   1      -2.489   0.178   0.057  0.00  0.00     0.035 A 
HETATM   23  C   UNK N   1      -2.678   1.545  -0.111  0.00  0.00     0.048 A 
HETATM   24  C   UNK N   1      -3.940   2.124  -0.237  0.00  0.00     0.083 A 
HETATM   25  C   UNK N   1      -5.091   1.261  -0.146  0.00  0.00     0.118 A 
HETATM   26  C   UNK N   1      -4.870  -0.132  -0.035  0.00  0.00     0.039 A 
HETATM   27  C   UNK N   1      -3.587  -0.670   0.050  0.00  0.00     0.032 A 
BRANCH  24  28
HETATM   28  C   UNK N   1      -3.883   3.625  -0.486  0.00  0.00     0.419 C 
HETATM   29  F   UNK N   1      -3.072   3.845  -1.589  0.00  0.00    -0.166 F 
HETATM   30  F   UNK N   1      -5.071   4.254  -0.760  0.00  0.00    -0.166 F 
HETATM   31  F   UNK N   1      -3.296   4.238   0.606  0.00  0.00    -0.166 F 
ENDBRANCH  24  28
BRANCH  25  32
HETATM   32  N   UNK N   1      -6.454   1.708  -0.123  0.00  0.00    -0.115 N 
HETATM   33  O   UNK N   1      -7.334   0.901  -0.138  0.00  0.00    -0.532 OA
HETATM   34  O   UNK N   1      -6.757   2.948   0.183  0.00  0.00    -0.532 OA
ENDBRANCH  25  32
ENDBRANCH   1  22
TORSDOF 8
