REMARK  5 active torsions:
REMARK  status: ('A' for Active; 'I' for Inactive)
REMARK    1  A    between atoms: C_6  and  C_7 
REMARK    2  A    between atoms: C_12  and  C_13 
REMARK    3  A    between atoms: C_13  and  C_14 
REMARK    4  A    between atoms: C_14  and  C_15 
REMARK    5  A    between atoms: C_15  and  C_16 
ROOT
HETATM    1  C   UNK N   1      -1.782  -2.190  -0.709  0.00  0.00     0.006 C 
ENDROOT
BRANCH   1   2
HETATM    2  C   UNK N   1      -3.169  -1.550  -0.815  0.00  0.00     0.038 C 
BRANCH   2   3
HETATM    3  C   UNK N   1      -3.167  -0.060  -0.596  0.00  0.00    -0.058 A 
HETATM    4  C   UNK N   1      -1.969   0.651  -0.451  0.00  0.00     0.008 A 
HETATM    5  C   UNK N   1      -1.981   2.030  -0.260  0.00  0.00     0.013 A 
HETATM    6  C   UNK N   1      -3.197   2.731  -0.209  0.00  0.00    -0.026 A 
HETATM    7  C   UNK N   1      -4.398   2.019  -0.348  0.00  0.00     0.013 A 
HETATM    8  C   UNK N   1      -4.385   0.631  -0.542  0.00  0.00     0.008 A 
BRANCH   6   9
HETATM    9  C   UNK N   1      -3.185   4.202  -0.031  0.00  0.00    -0.026 A 
HETATM   10  C   UNK N   1      -4.391   4.929   0.006  0.00  0.00     0.012 A 
HETATM   11  C   UNK N   1      -4.370   6.319   0.156  0.00  0.00     0.001 A 
HETATM   12  C   UNK N   1      -3.153   6.995   0.268  0.00  0.00     0.000 A 
HETATM   13  C   UNK N   1      -1.952   6.283   0.233  0.00  0.00     0.001 A 
HETATM   14  C   UNK N   1      -1.971   4.894   0.084  0.00  0.00     0.012 A 
ENDBRANCH   6   9
ENDBRANCH   2   3
ENDBRANCH   1   2
BRANCH   1  15
HETATM   15  C   UNK N   1      -1.384  -2.233   0.759  0.00  0.00     0.035 C 
BRANCH  15  16
HETATM   16  C   UNK N   1       0.071  -2.603   1.036  0.00  0.00     0.260 C 
HETATM   17  S   UNK N   1       1.255  -1.362   0.410  0.00  0.00     0.307 SA
HETATM   18  O   UNK N   1       1.042   0.006   1.075  0.00  0.00    -0.195 OA
HETATM   19  O   UNK N   1       1.479  -1.026  -1.259  0.00  0.00    -0.089 OA
HETATM   20  O   UNK N   1       2.664  -1.698   0.919  0.00  0.00    -0.195 OA
HETATM   21  K   UNK N   1       3.623   0.031  -1.302  0.00  0.00     0.000 K 
HETATM   22  K   UNK N   1       3.649  -4.241  -0.587  0.00  0.00     0.000 K 
HETATM   23  O   UNK N   1       2.048  -4.887   1.040  0.00  0.00    -0.138 OA
HETATM   24  P   UNK N   1       0.505  -4.329   0.471  0.00  0.00     0.403 P 
HETATM   25  K   UNK N   1       1.470  -6.822  -1.362  0.00  0.00     0.000 K 
HETATM   26  O   UNK N   1      -0.492  -5.338   1.100  0.00  0.00    -0.253 OA
HETATM   27  O   UNK N   1       0.429  -4.683  -1.226  0.00  0.00    -0.138 OA
ENDBRANCH  15  16
ENDBRANCH   1  15
TORSDOF 5
