REMARK  4 active torsions:
REMARK  status: ('A' for Active; 'I' for Inactive)
REMARK    1  A    between atoms: C_4  and  O_10 
REMARK    2  A    between atoms: C_5  and  O_8 
REMARK    3  A    between atoms: O_10  and  C_11 
REMARK    4  A    between atoms: C_11  and  C_12 
ROOT
HETATM    1  C   UNK N   1      -2.511   4.246   0.002  0.00  0.00     0.048 C 
HETATM    2  C   UNK N   1      -2.447   2.762   0.000  0.00  0.00    -0.059 A 
HETATM    3  C   UNK N   1      -1.211   2.125  -0.005  0.00  0.00     0.046 A 
HETATM    4  C   UNK N   1      -1.119   0.730  -0.005  0.00  0.00     0.103 A 
HETATM    5  C   UNK N   1      -2.308  -0.046  -0.002  0.00  0.00     0.101 A 
HETATM    6  C   UNK N   1      -3.552   0.612   0.003  0.00  0.00     0.040 A 
HETATM    7  C   UNK N   1      -3.620   2.007   0.005  0.00  0.00     0.009 A 
ENDROOT
BRANCH   4   8
HETATM    8  O   UNK N   1       0.124   0.197  -0.008  0.00  0.00    -0.342 OA
BRANCH   8   9
HETATM    9  C   UNK N   1       0.447  -1.139   0.005  0.00  0.00     0.232 C 
BRANCH   9  10
HETATM   10  C   UNK N   1       1.932  -1.280   0.005  0.00  0.00     0.033 A 
HETATM   11  N   UNK N   1       2.727  -0.172  -0.001  0.00  0.00    -0.367 N 
HETATM   12  C   UNK N   1       4.082  -0.266  -0.005  0.00  0.00     0.088 A 
ATOM     13  HN  UNK N   1       2.293   0.751  -0.003  1.00  0.00     0.165 HD
HETATM   14  C   UNK N   1       4.694  -1.520  -0.003  0.00  0.00     0.017 A 
HETATM   15  C   UNK N   1       3.900  -2.668   0.004  0.00  0.00     0.003 A 
HETATM   16  C   UNK N   1       2.509  -2.551   0.008  0.00  0.00     0.027 A 
ENDBRANCH   9  10
ENDBRANCH   8   9
ENDBRANCH   4   8
BRANCH   5  17
HETATM   17  O   UNK N   1      -2.243  -1.402  -0.003  0.00  0.00    -0.353 OA
HETATM   18  C   UNK N   1      -3.352  -2.217   0.000  0.00  0.00     0.210 C 
ENDBRANCH   5  17
TORSDOF 4
