REMARK  4 active torsions:
REMARK  status: ('A' for Active; 'I' for Inactive)
REMARK    1  A    between atoms: C_3  and  O_10 
REMARK    2  A    between atoms: C_5  and  O_8 
REMARK    3  A    between atoms: O_10  and  C_11 
REMARK    4  A    between atoms: C_11  and  C_12 
ROOT
HETATM    1  C   UNK N   1      -2.397   1.725   0.005  0.00  0.00     0.051 C 
HETATM    2  C   UNK N   1      -2.188   0.249   0.019  0.00  0.00    -0.028 A 
HETATM    3  C   UNK N   1      -0.899  -0.361   0.011  0.00  0.00     0.077 A 
HETATM    4  C   UNK N   1      -0.815  -1.759   0.036  0.00  0.00     0.074 A 
HETATM    5  C   UNK N   1      -1.963  -2.556   0.057  0.00  0.00     0.070 A 
HETATM    6  C   UNK N   1      -3.225  -1.944   0.058  0.00  0.00     0.037 A 
HETATM    7  C   UNK N   1      -3.331  -0.555   0.043  0.00  0.00     0.012 A 
ENDROOT
BRANCH   3   8
HETATM    8  O   UNK N   1       0.274   0.330  -0.023  0.00  0.00    -0.346 OA
BRANCH   8   9
HETATM    9  C   UNK N   1       0.400   1.700  -0.104  0.00  0.00     0.214 C 
BRANCH   9  10
HETATM   10  C   UNK N   1       1.827   2.142  -0.033  0.00  0.00    -0.032 A 
HETATM   11  C   UNK N   1       2.103   3.508   0.053  0.00  0.00     0.026 A 
HETATM   12  C   UNK N   1       3.428   3.937   0.152  0.00  0.00     0.088 A 
HETATM   13  N   UNK N   1       4.441   3.030   0.159  0.00  0.00    -0.375 N 
HETATM   14  C   UNK N   1       4.198   1.694   0.068  0.00  0.00     0.088 A 
ATOM     15  HN  UNK N   1       5.404   3.358   0.233  1.00  0.00     0.164 HD
HETATM   16  C   UNK N   1       2.885   1.225  -0.026  0.00  0.00     0.026 A 
ENDBRANCH   9  10
ENDBRANCH   8   9
ENDBRANCH   3   8
BRANCH   5  17
HETATM   17  O   UNK N   1      -1.828  -3.903   0.066  0.00  0.00    -0.356 OA
HETATM   18  C   UNK N   1      -2.899  -4.768   0.041  0.00  0.00     0.210 C 
ENDBRANCH   5  17
TORSDOF 4
