REMARK  1 active torsions:
REMARK  status: ('A' for Active; 'I' for Inactive)
REMARK    1  A    between atoms: C_10  and  C_14 
ROOT
HETATM    1  C   UNK N   1      -0.135   0.258   0.088  0.00  0.00     0.017 A 
HETATM    2  C   UNK N   1       0.739  -3.343  -0.150  0.00  0.00     0.032 A 
HETATM    3  C   UNK N   1      -0.536  -3.938  -0.182  0.00  0.00     0.022 A 
HETATM    4  C   UNK N   1       1.132   0.817   0.084  0.00  0.00     0.031 A 
HETATM    5  C   UNK N   1      -0.286  -1.123   0.013  0.00  0.00     0.004 A 
HETATM    6  C   UNK N   1      -1.555  -1.725  -0.007  0.00  0.00     0.021 A 
HETATM    7  C   UNK N   1       0.870  -1.942  -0.061  0.00  0.00     0.043 A 
HETATM    8  C   UNK N   1      -2.826  -1.070   0.090  0.00  0.00     0.063 A 
HETATM    9  C   UNK N   1      -1.652  -3.108  -0.114  0.00  0.00     0.019 A 
HETATM   10  C   UNK N   1       2.262  -0.007   0.015  0.00  0.00     0.044 A 
HETATM   11  C   UNK N   1      -3.918  -1.964   0.016  0.00  0.00     0.100 A 
HETATM   12  C   UNK N   1      -5.382  -1.703   0.068  0.00  0.00     0.261 C 
HETATM   13  C   UNK N   1      -4.097   0.968   0.831  0.00  0.00     0.144 C 
HETATM   14  C   UNK N   1      -5.272   0.809  -0.098  0.00  0.00     0.098 C 
HETATM   15  C   UNK N   1      -6.262   1.909   0.225  0.00  0.00     0.034 C 
HETATM   16  N   UNK N   1       2.108  -1.364  -0.052  0.00  0.00    -0.355 N 
ATOM     17  HN  UNK N   1       2.936  -1.958  -0.096  1.00  0.00     0.166 HD
HETATM   18  N   UNK N   1      -2.929   0.325   0.296  0.00  0.00    -0.386 N 
HETATM   19  N   UNK N   1      -5.937  -0.461   0.086  0.00  0.00    -0.351 N 
HETATM   20  O   UNK N   1      -6.133  -2.666   0.106  0.00  0.00    -0.267 OA
HETATM   21  S   UNK N   1      -3.260  -3.499  -0.121  0.00  0.00    -0.082 SA
HETATM   22  H   UNK N   1      -2.156   0.887   0.060  0.00  0.00     0.159 HD
HETATM   23  H   UNK N   1      -6.908  -0.422   0.243  0.00  0.00     0.163 HD
ENDROOT
BRANCH  10  24
HETATM   24  C   UNK N   1       3.604   0.613   0.009  0.00  0.00     0.006 A 
HETATM   25  C   UNK N   1       3.733   2.010   0.031  0.00  0.00     0.017 A 
HETATM   26  C   UNK N   1       4.993   2.600   0.024  0.00  0.00     0.025 A 
HETATM   27  C   UNK N   1       6.124   1.786  -0.001  0.00  0.00     0.005 A 
HETATM   28  C   UNK N   1       7.475   2.405  -0.004  0.00  0.00     0.068 C 
HETATM   29  N   UNK N   1       5.991   0.431  -0.022  0.00  0.00    -0.369 N 
HETATM   30  C   UNK N   1       4.767  -0.167  -0.019  0.00  0.00     0.101 A 
ATOM     31  HN  UNK N   1       6.829  -0.151  -0.040  1.00  0.00     0.165 HD
ENDBRANCH  10  24
TORSDOF 1
