REMARK  3 active torsions:
REMARK  status: ('A' for Active; 'I' for Inactive)
REMARK    1  A    between atoms: C_6  and  O_18 
REMARK    2  A    between atoms: C_11  and  C_13 
REMARK    3  A    between atoms: C_13  and  N_16 
ROOT
HETATM    1  C   UNK N   1       3.963   0.040  -0.092  0.00  0.00     0.038 A 
HETATM    2  C   UNK N   1       3.168  -1.112  -0.008  0.00  0.00     0.022 A 
HETATM    3  C   UNK N   1       1.967   1.452  -0.175  0.00  0.00     0.052 A 
HETATM    4  C   UNK N   1       1.183   0.300  -0.085  0.00  0.00     0.012 A 
HETATM    5  C   UNK N   1      -0.239   0.243  -0.018  0.00  0.00     0.062 A 
HETATM    6  C   UNK N   1       3.370   1.327  -0.175  0.00  0.00     0.069 A 
HETATM    7  C   UNK N   1       1.789  -0.948  -0.005  0.00  0.00     0.018 A 
HETATM    8  C   UNK N   1      -0.739  -1.064   0.111  0.00  0.00     0.100 A 
HETATM    9  C   UNK N   1      -2.137  -1.555   0.190  0.00  0.00     0.261 C 
HETATM   10  C   UNK N   1      -2.194   1.476   0.816  0.00  0.00     0.146 C 
HETATM   11  C   UNK N   1      -3.402   0.685   0.338  0.00  0.00     0.119 C 
HETATM   12  N   UNK N   1      -1.042   1.397  -0.033  0.00  0.00    -0.386 N 
HETATM   13  N   UNK N   1      -3.242  -0.756   0.228  0.00  0.00    -0.349 N 
HETATM   14  O   UNK N   1      -2.311  -2.761   0.189  0.00  0.00    -0.267 OA
HETATM   15  S   UNK N   1       0.594  -2.079   0.124  0.00  0.00    -0.082 SA
HETATM   16  H   UNK N   1      -0.813   2.149  -0.625  0.00  0.00     0.159 HD
HETATM   17  H   UNK N   1      -4.092  -1.248   0.169  0.00  0.00     0.163 HD
ENDROOT
BRANCH  11  18
HETATM   18  C   UNK N   1      -3.990   1.259  -0.943  0.00  0.00     0.137 C 
BRANCH  18  19
HETATM   19  N   UNK N   1      -5.314   0.702  -1.178  0.00  0.00    -0.428 N 
HETATM   20  H   UNK N   1      -6.116   1.311  -1.343  0.00  0.00     0.149 HD
HETATM   21  H   UNK N   1      -5.442  -0.310  -1.178  0.00  0.00     0.149 HD
ENDBRANCH  18  19
ENDBRANCH  11  18
BRANCH   6  22
HETATM   22  O   UNK N   1       4.126   2.448  -0.240  0.00  0.00    -0.356 OA
HETATM   23  C   UNK N   1       5.502   2.433  -0.188  0.00  0.00     0.210 C 
ENDBRANCH   6  22
TORSDOF 3
