REMARK  7 active torsions:
REMARK  status: ('A' for Active; 'I' for Inactive)
REMARK    1  A    between atoms: N_1  and  C_2 
REMARK    2  A    between atoms: N_1  and  C_4 
REMARK    3  A    between atoms: C_4  and  N_6 
REMARK       I    between atoms: N_6  and  C_7 
REMARK    4  A    between atoms: C_7  and  C_9 
REMARK    5  A    between atoms: C_9  and  N_11 
REMARK       I    between atoms: N_11  and  C_12 
REMARK    6  A    between atoms: C_12  and  O_14 
REMARK    7  A    between atoms: O_14  and  C_15 
ROOT
HETATM    1  C   UNK N   1      -0.397   0.527  -0.426  0.00  0.00     0.174 C 
HETATM    2  C   UNK N   1      -0.874   1.369  -1.602  0.00  0.00     0.042 C 
ENDROOT
BRANCH   1   3
HETATM    3  C   UNK N   1      -1.363  -0.578  -0.107  0.00  0.00     0.241 C 
HETATM    4  N   UNK N   1      -2.437  -0.759  -0.918  0.00  0.00    -0.339 N 
HETATM    5  H   UNK N   1      -2.286  -0.778  -1.890  0.00  0.00     0.164 HD
HETATM    6  O   UNK N   1      -1.270  -1.174   0.957  0.00  0.00    -0.271 OA
BRANCH   4   7
HETATM    7  C   UNK N   1      -3.786  -0.924  -0.436  0.00  0.00     0.182 C 
HETATM    8  C   UNK N   1      -3.924  -2.010   0.625  0.00  0.00     0.055 C 
BRANCH   7   9
HETATM    9  N   UNK N   1      -4.182   0.371   0.084  0.00  0.00    -0.347 N 
HETATM   10  H   UNK N   1      -3.471   1.031   0.252  0.00  0.00     0.163 HD
BRANCH   9  11
HETATM   11  C   UNK N   1      -5.454   0.739   0.356  0.00  0.00     0.350 C 
HETATM   12  O   UNK N   1      -6.387  -0.013   0.133  0.00  0.00    -0.284 OA
ENDBRANCH   9  11
ENDBRANCH   7   9
ENDBRANCH   4   7
ENDBRANCH   1   3
BRANCH   1  13
HETATM   13  N   UNK N   1       0.920   0.024  -0.732  0.00  0.00    -0.324 N 
HETATM   14  C   UNK N   1       2.037   0.429  -0.077  0.00  0.00     0.362 C 
HETATM   15  O   UNK N   1       1.963   1.242   0.830  0.00  0.00    -0.238 OA
HETATM   16  H   UNK N   1       1.013  -0.644  -1.449  0.00  0.00     0.165 HD
BRANCH  14  17
HETATM   17  O   UNK N   1       3.241  -0.040  -0.505  0.00  0.00    -0.294 OA
BRANCH  17  18
HETATM   18  C   UNK N   1       4.487   0.101   0.092  0.00  0.00     0.061 C 
HETATM   19  C   UNK N   1       5.310   1.086  -0.712  0.00  0.00     0.046 C 
HETATM   20  C   UNK N   1       5.175  -1.245   0.050  0.00  0.00     0.046 C 
HETATM   21  C   UNK N   1       4.451   0.555   1.547  0.00  0.00     0.046 C 
ENDBRANCH  17  18
ENDBRANCH  14  17
ENDBRANCH   1  13
TORSDOF 7
