REMARK  11 active torsions:
REMARK  status: ('A' for Active; 'I' for Inactive)
REMARK    1  A    between atoms: O_1  and  N_2 
REMARK       I    between atoms: N_2  and  C_3 
REMARK    2  A    between atoms: C_3  and  C_5 
REMARK    3  A    between atoms: C_5  and  C_6 
REMARK    4  A    between atoms: C_5  and  C_13 
REMARK    5  A    between atoms: C_6  and  C_7 
REMARK       I    between atoms: C_13  and  N_15 
REMARK    6  A    between atoms: N_15  and  C_16 
REMARK    7  A    between atoms: C_16  and  C_18 
REMARK       I    between atoms: C_18  and  N_20 
REMARK    8  A    between atoms: N_20  and  C_21 
REMARK    9  A    between atoms: C_21  and  C_22 
REMARK       I    between atoms: C_22  and  N_33 
REMARK   10  A    between atoms: C_24  and  N_33 
REMARK   11  A    between atoms: C_27  and  N_30 
ROOT
HETATM    1  C   UNK N   1      -0.419  -2.638   0.303  0.00  0.00     0.172 C 
HETATM    2  C   UNK N   1       0.350  -3.906  -0.036  0.00  0.00     0.042 C 
ENDROOT
BRANCH   1   3
HETATM    3  N   UNK N   1      -1.652  -3.079   0.912  0.00  0.00    -0.347 N 
HETATM    4  C   UNK N   1      -2.901  -2.945   0.406  0.00  0.00     0.232 C 
HETATM    5  O   UNK N   1      -3.827  -3.421   1.042  0.00  0.00    -0.273 OA
HETATM    6  H   UNK N   1      -1.577  -3.524   1.786  0.00  0.00     0.163 HD
BRANCH   4   7
HETATM    7  C   UNK N   1      -3.172  -2.268  -0.932  0.00  0.00     0.176 C 
BRANCH   7   8
HETATM    8  C   UNK N   1      -2.763  -0.802  -1.004  0.00  0.00     0.254 C 
HETATM    9  N   UNK N   1      -2.999   0.079  -0.001  0.00  0.00    -0.237 N 
HETATM   10  H   UNK N   1      -2.736   1.020  -0.122  0.00  0.00     0.197 HD
HETATM   11  O   UNK N   1      -2.169  -0.410  -1.997  0.00  0.00    -0.270 OA
BRANCH   9  12
HETATM   12  O   UNK N   1      -3.578  -0.286   1.150  0.00  0.00    -0.287 OA
HETATM   13  H   UNK N   1      -4.017  -0.056   1.984  0.00  0.00     0.244 HD
ENDBRANCH   9  12
ENDBRANCH   7   8
BRANCH   7  14
HETATM   14  C   UNK N   1      -4.585  -2.481  -1.515  0.00  0.00     0.062 C 
BRANCH  14  15
HETATM   15  C   UNK N   1      -5.769  -2.301  -0.618  0.00  0.00    -0.057 A 
HETATM   16  C   UNK N   1      -6.633  -3.384  -0.422  0.00  0.00     0.007 A 
HETATM   17  C   UNK N   1      -7.761  -3.247   0.392  0.00  0.00     0.001 A 
HETATM   18  C   UNK N   1      -8.026  -2.025   1.014  0.00  0.00     0.000 A 
HETATM   19  C   UNK N   1      -7.168  -0.938   0.816  0.00  0.00     0.001 A 
HETATM   20  C   UNK N   1      -6.045  -1.075  -0.006  0.00  0.00     0.007 A 
ENDBRANCH  14  15
ENDBRANCH   7  14
ENDBRANCH   4   7
ENDBRANCH   1   3
BRANCH   1  21
HETATM   21  C   UNK N   1       0.308  -1.740   1.293  0.00  0.00     0.240 C 
HETATM   22  O   UNK N   1      -0.341  -1.118   2.119  0.00  0.00    -0.271 OA
HETATM   23  N   UNK N   1       1.648  -1.552   1.257  0.00  0.00    -0.351 N 
HETATM   24  H   UNK N   1       2.064  -1.010   1.966  0.00  0.00     0.163 HD
BRANCH  23  25
HETATM   25  C   UNK N   1       2.489  -2.105   0.236  0.00  0.00     0.225 C 
BRANCH  25  26
HETATM   26  C   UNK N   1       2.574  -1.086  -0.846  0.00  0.00     0.239 C 
HETATM   27  O   UNK N   1       1.631  -0.965  -1.608  0.00  0.00    -0.271 OA
HETATM   28  N   UNK N   1       3.668  -0.299  -1.014  0.00  0.00    -0.326 N 
HETATM   29  H   UNK N   1       3.600   0.443  -1.658  0.00  0.00     0.169 HD
BRANCH  28  30
HETATM   30  C   UNK N   1       4.904  -0.463  -0.333  0.00  0.00     0.034 A 
HETATM   31  C   UNK N   1       6.054  -0.069  -1.010  0.00  0.00     0.032 A 
HETATM   32  C   UNK N   1       7.291  -0.584  -0.638  0.00  0.00     0.038 A 
HETATM   33  C   UNK N   1       7.386  -1.499   0.419  0.00  0.00     0.103 A 
HETATM   34  C   UNK N   1       6.253  -1.783   1.190  0.00  0.00     0.038 A 
HETATM   35  C   UNK N   1       5.021  -1.271   0.811  0.00  0.00     0.032 A 
BRANCH  33  36
HETATM   36  N   UNK N   1       8.578  -2.243   0.606  0.00  0.00    -0.116 N 
HETATM   37  O   UNK N   1       9.559  -2.121  -0.264  0.00  0.00    -0.532 OA
HETATM   38  O   UNK N   1       8.602  -3.142   1.389  0.00  0.00    -0.532 OA
ENDBRANCH  33  36
ENDBRANCH  28  30
ENDBRANCH  25  26
ENDBRANCH  23  25
ENDBRANCH   1  21
TORSDOF 11
