REMARK  3 active torsions:
REMARK  status: ('A' for Active; 'I' for Inactive)
REMARK    1  A    between atoms: C_17  and  O_18 
REMARK    2  A    between atoms: C_19  and  O_20 
REMARK    3  A    between atoms: C_21  and  O_22 
ROOT
HETATM    1  C   UNK N   1      -4.878  -0.726  -0.219  0.00  0.00     0.012 A 
HETATM    2  C   UNK N   1      -5.321   0.580   0.025  0.00  0.00     0.002 A 
HETATM    3  C   UNK N   1      -4.401   1.600   0.294  0.00  0.00     0.012 A 
HETATM    4  C   UNK N   1      -3.031   1.320   0.317  0.00  0.00    -0.024 A 
HETATM    5  C   UNK N   1      -2.107   2.335   0.577  0.00  0.00     0.013 A 
HETATM    6  C   UNK N   1      -0.736   2.055   0.577  0.00  0.00     0.014 A 
HETATM    7  C   UNK N   1      -0.269   0.756   0.317  0.00  0.00    -0.017 A 
HETATM    8  C   UNK N   1       1.112   0.472   0.268  0.00  0.00    -0.035 A 
HETATM    9  C   UNK N   1       1.550  -0.842  -0.035  0.00  0.00    -0.019 A 
HETATM   10  C   UNK N   1       0.606  -1.854  -0.269  0.00  0.00     0.022 A 
HETATM   11  C   UNK N   1      -0.759  -1.582  -0.211  0.00  0.00    -0.024 A 
HETATM   12  C   UNK N   1      -1.689  -2.598  -0.463  0.00  0.00     0.013 A 
HETATM   13  C   UNK N   1      -3.061  -2.317  -0.455  0.00  0.00     0.013 A 
HETATM   14  C   UNK N   1      -3.511  -1.018  -0.201  0.00  0.00    -0.024 A 
HETATM   15  C   UNK N   1      -2.581   0.009   0.067  0.00  0.00    -0.004 A 
HETATM   16  C   UNK N   1      -1.201  -0.276   0.066  0.00  0.00    -0.003 A 
HETATM   17  C   UNK N   1       3.017  -1.163  -0.238  0.00  0.00     0.183 C 
HETATM   18  C   UNK N   1       3.970  -0.013   0.142  0.00  0.00     0.180 C 
HETATM   19  C   UNK N   1       3.406   1.339  -0.298  0.00  0.00     0.154 C 
HETATM   20  C   UNK N   1       2.111   1.583   0.470  0.00  0.00     0.074 C 
ENDROOT
BRANCH  17  21
HETATM   21  O   UNK N   1       3.377  -2.309   0.476  0.00  0.00    -0.388 OA
HETATM   22  H   UNK N   1       2.813  -2.923   0.972  0.00  0.00     0.210 HD
ENDBRANCH  17  21
BRANCH  18  23
HETATM   23  O   UNK N   1       5.221  -0.235  -0.442  0.00  0.00    -0.390 OA
HETATM   24  H   UNK N   1       5.521  -1.064  -0.847  0.00  0.00     0.210 HD
ENDBRANCH  18  23
BRANCH  19  25
HETATM   25  O   UNK N   1       4.308   2.357   0.014  0.00  0.00    -0.393 OA
HETATM   26  H   UNK N   1       5.235   2.169   0.231  0.00  0.00     0.210 HD
ENDBRANCH  19  25
TORSDOF 3
