REMARK  7 active torsions:
REMARK  status: ('A' for Active; 'I' for Inactive)
REMARK    1  A    between atoms: O_1  and  C_2 
REMARK    2  A    between atoms: C_2  and  C_3 
REMARK    3  A    between atoms: C_3  and  O_4 
REMARK    4  A    between atoms: O_4  and  C_5 
REMARK    5  A    between atoms: C_5  and  N_6 
REMARK    6  A    between atoms: C_13  and  C_14 
REMARK    7  A    between atoms: C_14  and  C_15 
ROOT
HETATM    1  N   UNK N   1      -1.774  -0.409   0.000  0.00  0.00    -0.287 N 
HETATM    2  C   UNK N   1      -1.888   0.973   0.000  0.00  0.00     0.331 A 
HETATM    3  O   UNK N   1      -2.977   1.520   0.000  0.00  0.00    -0.246 OA
HETATM    4  N   UNK N   1      -0.769   1.748   0.000  0.00  0.00    -0.275 N 
HETATM    5  C   UNK N   1       0.481   1.206   0.000  0.00  0.00     0.257 A 
HETATM    6  O   UNK N   1       1.430   1.957  -0.000  0.00  0.00    -0.267 OA
HETATM    7  C   UNK N   1      -0.534  -0.973   0.000  0.00  0.00     0.111 A 
HETATM    8  C   UNK N   1       0.637  -0.199   0.000  0.00  0.00     0.030 A 
HETATM    9  H   UNK N   1      -0.866   2.728   0.000  0.00  0.00     0.173 HD
ENDROOT
BRANCH   8  10
HETATM   10  C   UNK N   1       1.944  -0.987   0.000  0.00  0.00     0.084 C 
BRANCH  10  11
HETATM   11  C   UNK N   1       3.375  -0.483   0.000  0.00  0.00    -0.054 A 
HETATM   12  C   UNK N   1       3.736   0.868   0.000  0.00  0.00     0.007 A 
HETATM   13  C   UNK N   1       5.077   1.259   0.000  0.00  0.00     0.001 A 
HETATM   14  C   UNK N   1       6.082   0.292  -0.000  0.00  0.00     0.000 A 
HETATM   15  C   UNK N   1       5.741  -1.062  -0.000  0.00  0.00     0.001 A 
HETATM   16  C   UNK N   1       4.394  -1.445   0.000  0.00  0.00     0.007 A 
ENDBRANCH  10  11
ENDBRANCH   8  10
BRANCH   1  17
HETATM   17  C   UNK N   1      -2.930  -1.325   0.000  0.00  0.00     0.302 C 
BRANCH  17  18
HETATM   18  O   UNK N   1      -4.145  -0.633  -0.000  0.00  0.00    -0.369 OA
BRANCH  18  19
HETATM   19  C   UNK N   1      -5.163  -1.581   0.000  0.00  0.00     0.196 C 
BRANCH  19  20
HETATM   20  C   UNK N   1      -6.484  -0.835   0.000  0.00  0.00     0.190 C 
BRANCH  20  21
HETATM   21  O   UNK N   1      -7.545  -1.736   0.000  0.00  0.00    -0.399 OA
HETATM   22  H   UNK N   1      -8.459  -1.410   0.000  0.00  0.00     0.209 HD
ENDBRANCH  20  21
ENDBRANCH  19  20
ENDBRANCH  18  19
ENDBRANCH  17  18
ENDBRANCH   1  17
TORSDOF 7
