REMARK  5 active torsions:
REMARK  status: ('A' for Active; 'I' for Inactive)
REMARK    1  A    between atoms: O_1  and  C_2 
REMARK    2  A    between atoms: C_2  and  C_4 
REMARK    3  A    between atoms: C_4  and  C_5 
REMARK    4  A    between atoms: C_5  and  N_6 
REMARK       I    between atoms: N_6  and  C_7 
REMARK    5  A    between atoms: C_7  and  C_9 
ROOT
HETATM    1  C   UNK N   1      -0.045   0.096   0.345  0.00  0.00     0.188 C 
HETATM    2  C   UNK N   1      -0.354   0.369   1.759  0.00  0.00     0.089 C 
HETATM    3  N   UNK N   1      -0.609   0.605   2.862  0.00  0.00    -0.195 NA
HETATM    4  C   UNK N   1       0.684  -1.246   0.224  0.00  0.00     0.005 A 
HETATM    5  C   UNK N   1      -0.046  -2.450   0.324  0.00  0.00     0.012 A 
HETATM    6  C   UNK N   1       0.566  -3.693   0.194  0.00  0.00     0.001 A 
HETATM    7  C   UNK N   1       1.938  -3.769  -0.008  0.00  0.00     0.002 A 
HETATM    8  C   UNK N   1       2.690  -2.599  -0.080  0.00  0.00     0.030 A 
HETATM    9  C   UNK N   1       2.080  -1.332   0.024  0.00  0.00     0.043 A 
HETATM   10  N   UNK N   1       2.877  -0.160  -0.070  0.00  0.00    -0.350 N 
HETATM   11  C   UNK N   1       2.272   1.127  -0.170  0.00  0.00     0.043 A 
HETATM   12  C   UNK N   1       0.862   1.288  -0.050  0.00  0.00     0.005 A 
HETATM   13  C   UNK N   1       0.330   2.590  -0.119  0.00  0.00     0.012 A 
HETATM   14  C   UNK N   1       1.159   3.697  -0.326  0.00  0.00     0.001 A 
HETATM   15  C   UNK N   1       2.537   3.531  -0.434  0.00  0.00     0.002 A 
HETATM   16  C   UNK N   1       3.088   2.257  -0.357  0.00  0.00     0.030 A 
HETATM   17  C   UNK N   1       4.322  -0.281  -0.106  0.00  0.00     0.156 C 
ENDROOT
BRANCH   1  18
HETATM   18  C   UNK N   1      -1.429  -0.026  -0.323  0.00  0.00     0.250 C 
HETATM   19  N   UNK N   1      -1.865   0.758  -1.341  0.00  0.00    -0.358 N 
HETATM   20  H   UNK N   1      -1.283   1.471  -1.693  0.00  0.00     0.162 HD
HETATM   21  O   UNK N   1      -2.186  -0.879   0.121  0.00  0.00    -0.271 OA
BRANCH  19  22
HETATM   22  C   UNK N   1      -3.189   0.552  -1.917  0.00  0.00     0.133 C 
BRANCH  22  23
HETATM   23  C   UNK N   1      -4.319   0.887  -0.924  0.00  0.00     0.129 C 
BRANCH  23  24
HETATM   24  C   UNK N   1      -5.042  -0.295  -0.311  0.00  0.00     0.140 C 
HETATM   25  O   UNK N   1      -4.722  -1.444  -0.576  0.00  0.00    -0.650 OA
BRANCH  24  26
HETATM   26  O   UNK N   1      -6.062  -0.075   0.542  0.00  0.00    -0.776 OA
HETATM   27  H   UNK N   1      -6.283   0.616   1.135  0.00  0.00     0.167 HD
ENDBRANCH  24  26
ENDBRANCH  23  24
ENDBRANCH  22  23
ENDBRANCH  19  22
ENDBRANCH   1  18
TORSDOF 5
