REMARK  4 active torsions:
REMARK  status: ('A' for Active; 'I' for Inactive)
REMARK    1  A    between atoms: C_6  and  C_7 
REMARK    2  A    between atoms: C_12  and  N_13 
REMARK       I    between atoms: N_13  and  C_14 
REMARK    3  A    between atoms: C_14  and  C_16 
REMARK    4  A    between atoms: C_19  and  O_21 
ROOT
HETATM    1  C   UNK N   1      -3.416   2.667  -0.000  0.00  0.00     0.141 C 
HETATM    2  C   UNK N   1      -3.503   4.111   0.000  0.00  0.00     0.107 C 
HETATM    3  N   UNK N   1      -3.519   5.267  -0.000  0.00  0.00    -0.191 NA
HETATM    4  C   UNK N   1      -4.528   1.882   0.000  0.00  0.00     0.065 C 
HETATM    5  C   UNK N   1      -5.893   2.477  -0.000  0.00  0.00     0.077 C 
ENDROOT
BRANCH   1   6
HETATM    6  C   UNK N   1      -2.063   2.091   0.000  0.00  0.00     0.269 C 
HETATM    7  N   UNK N   1      -1.922   0.747   0.000  0.00  0.00    -0.322 N 
HETATM    8  H   UNK N   1      -2.748   0.211   0.000  0.00  0.00     0.169 HD
HETATM    9  O   UNK N   1      -1.087   2.832   0.000  0.00  0.00    -0.266 OA
BRANCH   7  10
HETATM   10  C   UNK N   1      -0.711   0.047   0.000  0.00  0.00     0.035 A 
HETATM   11  C   UNK N   1      -0.750  -1.346   0.000  0.00  0.00     0.030 A 
HETATM   12  C   UNK N   1       0.436  -2.066  -0.000  0.00  0.00     0.014 A 
HETATM   13  C   UNK N   1       1.661  -1.385  -0.000  0.00  0.00    -0.026 A 
HETATM   14  C   UNK N   1       1.686   0.011  -0.000  0.00  0.00     0.014 A 
HETATM   15  C   UNK N   1       0.510   0.721   0.000  0.00  0.00     0.030 A 
BRANCH  13  16
HETATM   16  C   UNK N   1       2.926  -2.107  -0.000  0.00  0.00    -0.026 A 
HETATM   17  C   UNK N   1       4.128  -1.386  -0.000  0.00  0.00     0.012 A 
HETATM   18  C   UNK N   1       5.346  -2.053   0.000  0.00  0.00     0.001 A 
HETATM   19  C   UNK N   1       5.369  -3.448   0.000  0.00  0.00     0.000 A 
HETATM   20  C   UNK N   1       4.174  -4.175   0.000  0.00  0.00     0.001 A 
HETATM   21  C   UNK N   1       2.952  -3.505  -0.000  0.00  0.00     0.012 A 
ENDBRANCH  13  16
ENDBRANCH   7  10
ENDBRANCH   1   6
BRANCH   4  22
HETATM   22  O   UNK N   1      -4.435   0.533   0.000  0.00  0.00    -0.364 OA
HETATM   23  H   UNK N   1      -5.213   0.011   0.000  0.00  0.00     0.217 HD
ENDBRANCH   4  22
TORSDOF 4
