REMARK  4 active torsions:
REMARK  status: ('A' for Active; 'I' for Inactive)
REMARK    1  A    between atoms: N_20  and  C_21 
REMARK    2  A    between atoms: C_21  and  C_22 
REMARK    3  A    between atoms: C_22  and  C_23 
REMARK    4  A    between atoms: C_23  and  N_24 
ROOT
HETATM    1  O   UNK N   1       5.960  -0.479  -0.202  0.00  0.00    -0.267 OA
HETATM    2  C   UNK N   1       4.831  -0.934  -0.163  0.00  0.00     0.260 A 
HETATM    3  N   UNK N   1       4.556  -2.270  -0.192  0.00  0.00    -0.289 N 
HETATM    4  C   UNK N   1       3.197  -2.357  -0.130  0.00  0.00     0.260 A 
HETATM    5  O   UNK N   1       2.591  -3.413  -0.126  0.00  0.00    -0.267 OA
HETATM    6  C   UNK N   1       2.630  -1.101  -0.064  0.00  0.00     0.062 A 
HETATM    7  C   UNK N   1       3.666  -0.192  -0.080  0.00  0.00     0.055 A 
HETATM    8  C   UNK N   1       3.435   1.203  -0.017  0.00  0.00    -0.043 A 
HETATM    9  C   UNK N   1       4.558   2.181  -0.049  0.00  0.00     0.049 C 
HETATM   10  C   UNK N   1       2.101   1.665   0.081  0.00  0.00     0.038 A 
HETATM   11  C   UNK N   1       1.064   0.712   0.094  0.00  0.00     0.047 A 
HETATM   12  C   UNK N   1       1.317  -0.648   0.012  0.00  0.00     0.020 A 
HETATM   13  C   UNK N   1       0.092  -1.276   0.029  0.00  0.00     0.005 A 
HETATM   14  C   UNK N   1      -0.258  -2.621  -0.042  0.00  0.00     0.021 A 
HETATM   15  C   UNK N   1      -1.625  -2.946  -0.010  0.00  0.00    -0.061 A 
HETATM   16  C   UNK N   1      -2.044  -4.369  -0.096  0.00  0.00     0.048 C 
HETATM   17  C   UNK N   1      -2.601  -1.928   0.100  0.00  0.00     0.009 A 
HETATM   18  C   UNK N   1      -2.220  -0.574   0.173  0.00  0.00     0.031 A 
HETATM   19  C   UNK N   1      -0.858  -0.279   0.129  0.00  0.00     0.046 A 
HETATM   20  N   UNK N   1      -0.266   0.939   0.175  0.00  0.00    -0.345 N 
HETATM   21  H   UNK N   1       5.201  -3.012  -0.246  0.00  0.00     0.172 HD
ENDROOT
BRANCH  20  22
HETATM   22  C   UNK N   1      -0.914   2.240   0.303  0.00  0.00     0.131 C 
BRANCH  22  23
HETATM   23  C   UNK N   1      -1.680   2.585  -0.961  0.00  0.00     0.039 C 
BRANCH  23  24
HETATM   24  C   UNK N   1      -2.484   3.853  -0.748  0.00  0.00     0.112 C 
BRANCH  24  25
HETATM   25  N   UNK N   1      -3.754   3.528  -0.125  0.00  0.00    -0.430 N 
HETATM   26  H   UNK N   1      -4.398   4.187   0.314  0.00  0.00     0.149 HD
HETATM   27  H   UNK N   1      -4.029   2.546  -0.125  0.00  0.00     0.149 HD
ENDBRANCH  24  25
ENDBRANCH  23  24
ENDBRANCH  22  23
ENDBRANCH  20  22
TORSDOF 4
