REMARK  2 active torsions:
REMARK  status: ('A' for Active; 'I' for Inactive)
REMARK    1  A    between atoms: C_7  and  C_8 
REMARK       I    between atoms: C_8  and  N_10 
REMARK    2  A    between atoms: C_18  and  O_19 
ROOT
HETATM    1  C   UNK N   1       1.054   0.756   0.002  0.00  0.00     0.271 C 
HETATM    2  O   UNK N   1       1.358   1.939   0.003  0.00  0.00    -0.266 OA
HETATM    3  N   UNK N   1      -0.266   0.441   0.002  0.00  0.00    -0.266 N 
HETATM    4  N   UNK N   1      -0.764  -0.833   0.000  0.00  0.00    -0.308 N 
ATOM      5  HN  UNK N   1      -0.106  -1.612  -0.000  1.00  0.00     0.186 HD
HETATM    6  C   UNK N   1      -2.032  -1.094  -0.001  0.00  0.00     0.121 C 
HETATM    7  C   UNK N   1      -3.225  -0.172  -0.000  0.00  0.00     0.017 A 
HETATM    8  C   UNK N   1      -4.459  -0.837   0.000  0.00  0.00     0.037 A 
HETATM    9  C   UNK N   1      -5.669  -0.143   0.000  0.00  0.00     0.046 A 
HETATM   10 Br   UNK N   1      -7.311  -1.121   0.001  0.00  0.00    -0.048 Br
HETATM   11  C   UNK N   1      -5.672   1.253  -0.000  0.00  0.00     0.103 A 
HETATM   12  C   UNK N   1      -4.462   1.950  -0.001  0.00  0.00     0.079 A 
HETATM   13 Br   UNK N   1      -4.469   3.871  -0.002  0.00  0.00    -0.045 Br
HETATM   14  C   UNK N   1      -3.241   1.258  -0.001  0.00  0.00     0.097 A 
HETATM   15  O   UNK N   1      -2.122   1.992  -0.002  0.00  0.00    -0.358 OA
HETATM   16  H   UNK N   1      -0.913   1.183   0.004  0.00  0.00     0.190 HD
HETATM   17  H   UNK N   1      -1.286   1.570  -0.003  0.00  0.00     0.217 HD
ENDROOT
BRANCH   1  18
HETATM   18  C   UNK N   1       2.147  -0.256   0.001  0.00  0.00     0.049 A 
HETATM   19  C   UNK N   1       3.478   0.184   0.000  0.00  0.00     0.020 A 
HETATM   20  C   UNK N   1       4.524  -0.735  -0.001  0.00  0.00     0.018 A 
HETATM   21  C   UNK N   1       4.232  -2.098  -0.002  0.00  0.00     0.087 A 
HETATM   22  N   UNK N   1       2.939  -2.519  -0.001  0.00  0.00    -0.374 N 
HETATM   23  C   UNK N   1       1.903  -1.636  -0.000  0.00  0.00     0.104 A 
ATOM     24  HN  UNK N   1       2.740  -3.519  -0.002  1.00  0.00     0.164 HD
ENDBRANCH   1  18
BRANCH  11  25
HETATM   25  O   UNK N   1      -6.837   1.926   0.000  0.00  0.00    -0.358 OA
HETATM   26  H   UNK N   1      -6.837   2.863   0.000  0.00  0.00     0.217 HD
ENDBRANCH  11  25
TORSDOF 2
