REMARK  8 active torsions:
REMARK  status: ('A' for Active; 'I' for Inactive)
REMARK    1  A    between atoms: C_2  and  O_3 
REMARK    2  A    between atoms: C_2  and  C_4 
REMARK    3  A    between atoms: C_4  and  C_5 
REMARK    4  A    between atoms: C_4  and  N_9 
REMARK    5  A    between atoms: C_5  and  C_6 
REMARK    6  A    between atoms: N_9  and  S_10 
REMARK    7  A    between atoms: S_10  and  C_13 
REMARK    8  A    between atoms: C_18  and  C_19 
ROOT
HETATM    1  S   UNK N   1      -0.266   1.970   0.303  0.00  0.00     0.259 S 
HETATM    2  O   UNK N   1      -0.631   2.429   1.724  0.00  0.00    -0.201 OA
HETATM    3  O   UNK N   1       0.032   3.299  -0.407  0.00  0.00    -0.201 OA
ENDROOT
BRANCH   1   4
HETATM    4  N   UNK N   1      -1.787   1.407  -0.413  0.00  0.00    -0.300 N 
HETATM    5  H   UNK N   1      -2.220   1.812  -1.243  0.00  0.00     0.173 HD
BRANCH   4   6
HETATM    6  C   UNK N   1      -2.337   0.280   0.351  0.00  0.00     0.191 C 
BRANCH   6   7
HETATM    7  C   UNK N   1      -2.330  -0.985  -0.470  0.00  0.00     0.164 C 
HETATM    8  O   UNK N   1      -1.919  -0.982  -1.620  0.00  0.00    -0.648 OA
BRANCH   7   9
HETATM    9  O   UNK N   1      -2.760  -2.138   0.078  0.00  0.00    -0.775 OA
HETATM   10  H   UNK N   1      -3.604  -2.280   0.459  0.00  0.00     0.167 HD
ENDBRANCH   7   9
ENDBRANCH   6   7
BRANCH   6  11
HETATM   11  C   UNK N   1      -3.745   0.643   0.826  0.00  0.00     0.040 C 
BRANCH  11  12
HETATM   12  C   UNK N   1      -4.683   1.035  -0.311  0.00  0.00    -0.020 C 
HETATM   13  C   UNK N   1      -5.732   1.989   0.217  0.00  0.00     0.009 C 
HETATM   14  C   UNK N   1      -5.368  -0.192  -0.879  0.00  0.00     0.009 C 
ENDBRANCH  11  12
ENDBRANCH   6  11
ENDBRANCH   4   6
ENDBRANCH   1   4
BRANCH   1  15
HETATM   15  C   UNK N   1       1.104   0.827   0.261  0.00  0.00     0.079 A 
HETATM   16  C   UNK N   1       2.388   1.265   0.585  0.00  0.00     0.026 A 
HETATM   17  C   UNK N   1       3.454   0.364   0.572  0.00  0.00     0.014 A 
HETATM   18  C   UNK N   1       3.244  -0.985   0.240  0.00  0.00    -0.026 A 
HETATM   19  C   UNK N   1       1.948  -1.415  -0.084  0.00  0.00     0.014 A 
HETATM   20  C   UNK N   1       0.885  -0.511  -0.073  0.00  0.00     0.026 A 
BRANCH  18  21
HETATM   21  C   UNK N   1       4.378  -1.937   0.225  0.00  0.00    -0.026 A 
HETATM   22  C   UNK N   1       5.680  -1.490   0.501  0.00  0.00     0.012 A 
HETATM   23  C   UNK N   1       6.755  -2.382   0.475  0.00  0.00     0.001 A 
HETATM   24  C   UNK N   1       6.538  -3.729   0.178  0.00  0.00     0.000 A 
HETATM   25  C   UNK N   1       5.246  -4.186  -0.094  0.00  0.00     0.001 A 
HETATM   26  C   UNK N   1       4.170  -3.294  -0.073  0.00  0.00     0.012 A 
ENDBRANCH  18  21
ENDBRANCH   1  15
TORSDOF 8
