REMARK  8 active torsions:
REMARK  status: ('A' for Active; 'I' for Inactive)
REMARK    1  A    between atoms: C_2  and  C_4 
REMARK       I    between atoms: C_2  and  N_3 
REMARK    2  A    between atoms: C_4  and  C_5 
REMARK    3  A    between atoms: C_4  and  N_13 
REMARK    4  A    between atoms: C_5  and  C_6 
REMARK    5  A    between atoms: C_6  and  C_7 
REMARK    6  A    between atoms: C_7  and  N_8 
REMARK    7  A    between atoms: N_8  and  C_9 
REMARK       I    between atoms: N_13  and  C_14 
REMARK    8  A    between atoms: C_14  and  C_16 
ROOT
HETATM    1  C   UNK N   1      -1.071   1.418  -0.460  0.00  0.00     0.176 C 
ENDROOT
BRANCH   1   2
HETATM    2  C   UNK N   1      -1.090   2.930  -0.414  0.00  0.00     0.238 C 
HETATM    3  O   UNK N   1      -0.056   3.578  -0.428  0.00  0.00    -0.271 OA
HETATM    4  N   UNK N   1      -2.274   3.576  -0.382  0.00  0.00    -0.368 N 
HETATM    5  H   UNK N   1      -2.298   4.560  -0.359  0.00  0.00     0.159 HD
HETATM    6  H   UNK N   1      -3.114   3.063  -0.382  0.00  0.00     0.159 HD
ENDBRANCH   1   2
BRANCH   1   7
HETATM    7  C   UNK N   1      -1.851   0.861   0.735  0.00  0.00     0.036 C 
BRANCH   7   8
HETATM    8  C   UNK N   1      -2.653  -0.398   0.390  0.00  0.00     0.022 C 
BRANCH   8   9
HETATM    9  C   UNK N   1      -3.773  -0.124  -0.619  0.00  0.00     0.121 C 
BRANCH   9  10
HETATM   10  N   UNK N   1      -4.582   1.002  -0.212  0.00  0.00    -0.380 N 
HETATM   11  H   UNK N   1      -4.169   1.895  -0.174  0.00  0.00     0.160 HD
BRANCH  10  12
HETATM   12  C   UNK N   1      -5.950   0.862   0.133  0.00  0.00     0.066 C 
HETATM   13  N   UNK N   1      -6.502  -0.295   0.167  0.00  0.00    -0.389 N 
HETATM   14  H   UNK N   1      -7.483  -0.372   0.192  0.00  0.00     0.157 HD
ATOM     15  HN  UNK N   1      -5.924  -1.135   0.167  1.00  0.00     0.157 HD
HETATM   16  C   UNK N   1      -6.744   2.068   0.499  0.00  0.00     0.088 C 
ENDBRANCH  10  12
ENDBRANCH   9  10
ENDBRANCH   8   9
ENDBRANCH   7   8
ENDBRANCH   1   7
BRANCH   1  17
HETATM   17  N   UNK N   1       0.265   0.838  -0.533  0.00  0.00    -0.344 N 
HETATM   18  C   UNK N   1       1.293   1.075   0.328  0.00  0.00     0.252 C 
HETATM   19  O   UNK N   1       1.165   1.877   1.247  0.00  0.00    -0.268 OA
HETATM   20  H   UNK N   1       0.441   0.216  -1.276  0.00  0.00     0.163 HD
BRANCH  18  21
HETATM   21  C   UNK N   1       2.591   0.392   0.129  0.00  0.00     0.032 A 
HETATM   22  C   UNK N   1       3.730   0.796   0.844  0.00  0.00     0.017 A 
HETATM   23  C   UNK N   1       4.956   0.154   0.641  0.00  0.00     0.001 A 
HETATM   24  C   UNK N   1       5.049  -0.908  -0.263  0.00  0.00     0.000 A 
HETATM   25  C   UNK N   1       3.918  -1.323  -0.972  0.00  0.00     0.001 A 
HETATM   26  C   UNK N   1       2.696  -0.669  -0.785  0.00  0.00     0.017 A 
ENDBRANCH  18  21
ENDBRANCH   1  17
TORSDOF 8
