REMARK  1 active torsions:
REMARK  status: ('A' for Active; 'I' for Inactive)
REMARK    1  A    between atoms: C_15  and  C_16 
ROOT
HETATM    1  C   UNK N   1      -2.286   1.219   0.011  0.00  0.00     0.093 A 
HETATM    2  C   UNK N   1      -1.521   2.389   0.014  0.00  0.00     0.187 A 
HETATM    3  O   UNK N   1      -2.076   3.476   0.019  0.00  0.00    -0.287 OA
HETATM    4  C   UNK N   1      -0.120   2.296   0.009  0.00  0.00     0.049 A 
HETATM    5  C   UNK N   1       0.704   3.431   0.011  0.00  0.00     0.019 A 
HETATM    6  C   UNK N   1       2.098   3.290   0.006  0.00  0.00     0.013 A 
HETATM    7  C   UNK N   1       2.677   2.016  -0.000  0.00  0.00    -0.023 A 
HETATM    8  C   UNK N   1       4.068   1.871  -0.005  0.00  0.00     0.012 A 
HETATM    9  C   UNK N   1       4.640   0.594  -0.012  0.00  0.00     0.001 A 
HETATM   10  C   UNK N   1       3.827  -0.542  -0.013  0.00  0.00     0.001 A 
HETATM   11  C   UNK N   1       2.438  -0.406  -0.008  0.00  0.00     0.015 A 
HETATM   12  C   UNK N   1       1.854   0.869  -0.001  0.00  0.00     0.009 A 
HETATM   13  C   UNK N   1       0.463   1.010   0.003  0.00  0.00     0.101 A 
HETATM   14  O   UNK N   1      -0.303  -0.070   0.001  0.00  0.00    -0.308 OA
HETATM   15  C   UNK N   1      -1.629  -0.024   0.005  0.00  0.00     0.090 A 
ENDROOT
BRANCH  15  16
HETATM   16  C   UNK N   1      -2.362  -1.302  -0.000  0.00  0.00    -0.002 A 
HETATM   17  C   UNK N   1      -1.627  -2.499  -0.007  0.00  0.00     0.014 A 
HETATM   18  C   UNK N   1      -2.277  -3.732  -0.014  0.00  0.00     0.001 A 
HETATM   19  C   UNK N   1      -3.672  -3.782  -0.013  0.00  0.00     0.000 A 
HETATM   20  C   UNK N   1      -4.415  -2.596  -0.006  0.00  0.00     0.001 A 
HETATM   21  C   UNK N   1      -3.763  -1.357   0.000  0.00  0.00     0.014 A 
ENDBRANCH  15  16
TORSDOF 1
