REMARK  5 active torsions:
REMARK  status: ('A' for Active; 'I' for Inactive)
REMARK    1  A    between atoms: C_3  and  C_8 
REMARK    2  A    between atoms: C_8  and  N_9 
REMARK       I    between atoms: N_9  and  C_10 
REMARK    3  A    between atoms: C_10  and  C_11 
REMARK    4  A    between atoms: C_14  and  O_17 
REMARK    5  A    between atoms: O_17  and  C_18 
ROOT
HETATM    1  C   UNK N   1       2.248   0.940  -0.042  0.00  0.00     0.032 A 
HETATM    2  C   UNK N   1       3.265   0.002  -0.288  0.00  0.00     0.020 A 
HETATM    3  C   UNK N   1       2.983  -1.372  -0.283  0.00  0.00     0.038 A 
HETATM    4  C   UNK N   1       1.676  -1.826  -0.056  0.00  0.00     0.076 A 
HETATM    5  C   UNK N   1       0.668  -0.885   0.183  0.00  0.00     0.038 A 
HETATM    6  C   UNK N   1       0.951   0.474   0.193  0.00  0.00     0.020 A 
ENDROOT
BRANCH   1   7
HETATM    7  C   UNK N   1       2.541   2.406  -0.079  0.00  0.00     0.251 C 
HETATM    8  N   UNK N   1       1.673   3.354   0.380  0.00  0.00    -0.351 N 
HETATM    9  H   UNK N   1       1.881   4.298   0.194  0.00  0.00     0.163 HD
HETATM   10  O   UNK N   1       3.615   2.775  -0.535  0.00  0.00    -0.268 OA
BRANCH   8  11
HETATM   11  C   UNK N   1       0.467   3.058   1.123  0.00  0.00     0.179 C 
BRANCH  11  12
HETATM   12  C   UNK N   1      -0.767   3.556   0.451  0.00  0.00     0.026 A 
HETATM   13  N   UNK N   1      -0.956   4.890   0.259  0.00  0.00    -0.368 N 
HETATM   14  C   UNK N   1      -2.108   5.372  -0.284  0.00  0.00     0.088 A 
ATOM     15  HN  UNK N   1      -0.219   5.543   0.526  1.00  0.00     0.165 HD
HETATM   16  C   UNK N   1      -3.134   4.496  -0.648  0.00  0.00     0.017 A 
HETATM   17  C   UNK N   1      -2.961   3.125  -0.455  0.00  0.00     0.003 A 
HETATM   18  C   UNK N   1      -1.773   2.650   0.102  0.00  0.00     0.027 A 
ENDBRANCH  11  12
ENDBRANCH   8  11
ENDBRANCH   1   7
BRANCH   4  19
HETATM   19  O   UNK N   1       1.424  -3.166  -0.079  0.00  0.00    -0.311 OA
BRANCH  19  20
HETATM   20  C   UNK N   1       0.213  -3.797  -0.026  0.00  0.00     0.076 A 
HETATM   21  C   UNK N   1       0.186  -5.197  -0.010  0.00  0.00     0.037 A 
HETATM   22  C   UNK N   1      -1.032  -5.884   0.027  0.00  0.00     0.003 A 
HETATM   23  C   UNK N   1      -2.237  -5.176   0.046  0.00  0.00     0.000 A 
HETATM   24  C   UNK N   1      -2.225  -3.781   0.029  0.00  0.00     0.003 A 
HETATM   25  C   UNK N   1      -1.009  -3.097  -0.008  0.00  0.00     0.037 A 
ENDBRANCH  19  20
ENDBRANCH   4  19
TORSDOF 5
