REMARK  4 active torsions:
REMARK  status: ('A' for Active; 'I' for Inactive)
REMARK    1  A    between atoms: C_1  and  C_11 
REMARK    2  A    between atoms: C_6  and  N_13 
REMARK    3  A    between atoms: C_6  and  C_14 
REMARK    4  A    between atoms: C_14  and  C_15 
ROOT
HETATM    1  C   UNK N   1      -3.647  -0.120  -0.377  0.00  0.00     0.168 C 
HETATM    2  C   UNK N   1      -4.474   0.989   0.234  0.00  0.00     0.050 C 
HETATM    3  C   UNK N   1      -3.443   2.026   0.669  0.00  0.00     0.116 C 
HETATM    4  C   UNK N   1      -1.071   2.120   0.493  0.00  0.00     0.117 C 
HETATM    5  C   UNK N   1       0.171   1.295   0.787  0.00  0.00     0.057 C 
HETATM    6  C   UNK N   1       0.198   0.039  -0.094  0.00  0.00     0.112 C 
HETATM    7  C   UNK N   1      -1.199  -0.498  -0.365  0.00  0.00     0.263 C 
HETATM    8  N   UNK N   1      -2.202   1.300   0.900  0.00  0.00    -0.226 NA
HETATM    9  N   UNK N   1      -2.309   0.181   0.076  0.00  0.00    -0.267 N 
HETATM   10  O   UNK N   1      -1.323  -1.475  -1.090  0.00  0.00    -0.269 OA
ENDROOT
BRANCH   6  11
HETATM   11  N   UNK N   1       0.766   0.401  -1.386  0.00  0.00    -0.414 N 
HETATM   12  H   UNK N   1       1.185   0.184  -2.291  0.00  0.00     0.151 HD
HETATM   13  H   UNK N   1       0.722   1.420  -1.386  0.00  0.00     0.151 HD
ENDBRANCH   6  11
BRANCH   6  14
HETATM   14  C   UNK N   1       1.068  -1.037   0.579  0.00  0.00     0.079 C 
BRANCH  14  15
HETATM   15  C   UNK N   1       2.542  -0.824   0.378  0.00  0.00    -0.055 A 
HETATM   16  C   UNK N   1       3.173   0.349   0.816  0.00  0.00     0.007 A 
HETATM   17  C   UNK N   1       4.534   0.551   0.562  0.00  0.00     0.001 A 
HETATM   18  C   UNK N   1       5.267  -0.419  -0.127  0.00  0.00     0.000 A 
HETATM   19  C   UNK N   1       4.643  -1.594  -0.557  0.00  0.00     0.001 A 
HETATM   20  C   UNK N   1       3.282  -1.793  -0.308  0.00  0.00     0.007 A 
ENDBRANCH  14  15
ENDBRANCH   6  14
BRANCH   1  21
HETATM   21  C   UNK N   1      -4.163  -1.440   0.117  0.00  0.00     0.258 C 
HETATM   22  O   UNK N   1      -3.673  -2.493  -0.257  0.00  0.00    -0.305 OA
ENDBRANCH   1  21
TORSDOF 4
