REMARK  5 active torsions:
REMARK  status: ('A' for Active; 'I' for Inactive)
REMARK    1  A    between atoms: C_2  and  C_3 
REMARK    2  A    between atoms: C_2  and  C_14 
REMARK    3  A    between atoms: C_6  and  N_7 
REMARK    4  A    between atoms: C_10  and  O_11 
REMARK    5  A    between atoms: C_12  and  O_13 
ROOT
HETATM    1  C   UNK N   1       0.336  -0.334   0.074  0.00  0.00     0.051 A 
HETATM    2  C   UNK N   1      -0.871  -1.050   0.106  0.00  0.00     0.021 A 
HETATM    3  C   UNK N   1      -0.927  -2.429   0.004  0.00  0.00     0.040 A 
HETATM    4  C   UNK N   1       1.566  -1.091  -0.077  0.00  0.00     0.152 A 
HETATM    5  C   UNK N   1       1.475  -2.514  -0.169  0.00  0.00     0.133 A 
HETATM    6  C   UNK N   1       0.237  -3.160  -0.131  0.00  0.00     0.101 A 
ENDROOT
BRANCH   1   7
HETATM    7  C   UNK N   1       0.238   1.177   0.236  0.00  0.00     0.195 C 
HETATM    8  O   UNK N   1       1.240   1.826   0.476  0.00  0.00    -0.287 OA
BRANCH   7   9
HETATM    9  C   UNK N   1      -1.051   1.945   0.139  0.00  0.00     0.015 A 
HETATM   10  C   UNK N   1      -2.307   1.321   0.049  0.00  0.00     0.015 A 
HETATM   11  C   UNK N   1      -3.478   2.074  -0.060  0.00  0.00     0.001 A 
HETATM   12  C   UNK N   1      -3.410   3.467  -0.099  0.00  0.00     0.000 A 
HETATM   13  C   UNK N   1      -2.172   4.105  -0.017  0.00  0.00     0.001 A 
HETATM   14  C   UNK N   1      -1.002   3.350   0.108  0.00  0.00     0.015 A 
ENDBRANCH   7   9
ENDBRANCH   1   7
BRANCH   4  15
HETATM   15  N   UNK N   1       2.871  -0.482  -0.179  0.00  0.00    -0.112 N 
HETATM   16  O   UNK N   1       2.997   0.627  -0.595  0.00  0.00    -0.532 OA
HETATM   17  O   UNK N   1       3.957  -1.207  -0.013  0.00  0.00    -0.532 OA
ENDBRANCH   4  15
BRANCH   5  18
HETATM   18  O   UNK N   1       2.578  -3.268  -0.329  0.00  0.00    -0.356 OA
HETATM   19  H   UNK N   1       2.507  -4.196  -0.441  0.00  0.00     0.218 HD
ENDBRANCH   5  18
BRANCH   6  20
HETATM   20  O   UNK N   1       0.168  -4.498  -0.241  0.00  0.00    -0.358 OA
HETATM   21  H   UNK N   1      -0.664  -4.922  -0.317  0.00  0.00     0.217 HD
ENDBRANCH   6  20
TORSDOF 5
