REMARK  9 active torsions:
REMARK  status: ('A' for Active; 'I' for Inactive)
REMARK    1  A    between atoms: C_6  and  O_5 
REMARK    2  A    between atoms: C_7  and  C_8 
REMARK    3  A    between atoms: C_8  and  S_9 
REMARK    4  A    between atoms: S_9  and  C_10 
REMARK    5  A    between atoms: C_10  and  C_11 
REMARK    6  A    between atoms: C_11  and  C_12 
REMARK    7  A    between atoms: N_15  and  C_17 
REMARK    8  A    between atoms: C_17  and  C_23 
REMARK    9  A    between atoms: C_19  and  N_20 
ROOT
HETATM    1  C   UNK N   1      -6.652  -0.030   0.095  0.00  0.00     0.182 A 
HETATM    2  C   UNK N   1      -4.472  -1.644  -0.143  0.00  0.00     0.103 A 
HETATM    3  C   UNK N   1      -4.353  -0.289  -0.220  0.00  0.00     0.073 A 
HETATM    4  C   UNK N   1      -2.397  -1.265  -0.510  0.00  0.00     0.099 A 
HETATM    5  N   UNK N   1      -3.296  -2.255  -0.305  0.00  0.00    -0.360 N 
HETATM    6  C   UNK N   1      -5.714  -2.218   0.054  0.00  0.00     0.129 A 
HETATM    7  N   UNK N   1      -5.416   0.534  -0.103  0.00  0.00    -0.350 N 
ATOM      8  HN  UNK N   1      -5.304   1.546  -0.161  1.00  0.00     0.166 HD
HETATM    9  C   UNK N   1      -3.027  -0.017  -0.458  0.00  0.00     0.015 A 
HETATM   10  N   UNK N   1      -6.792  -1.397   0.168  0.00  0.00    -0.337 N 
ATOM     11  HN  UNK N   1      -7.719  -1.800   0.310  1.00  0.00     0.168 HD
HETATM   12  H   UNK N   1      -3.121  -3.223  -0.280  0.00  0.00     0.165 HD
ENDROOT
BRANCH   9  13
HETATM   13  C   UNK N   1      -2.345   1.328  -0.672  0.00  0.00     0.315 C 
BRANCH  13  14
HETATM   14  N   UNK N   1      -1.125   1.402   0.133  0.00  0.00     0.095 N 
HETATM   15  C   UNK N   1      -0.195   0.361  -0.269  0.00  0.00     0.280 C 
HETATM   16  C   UNK N   1       1.009   0.738   0.471  0.00  0.00     0.054 C 
HETATM   17  C   UNK N   1       1.157   2.181   0.013  0.00  0.00     0.152 C 
HETATM   18  C   UNK N   1      -0.327   2.635   0.004  0.00  0.00     0.304 C 
BRANCH  16  19
HETATM   19  C   UNK N   1       2.078  -0.333   0.464  0.00  0.00     0.082 C 
BRANCH  19  20
HETATM   20  S   UNK N   1       2.962  -0.736  -1.053  0.00  0.00    -0.169 SA
BRANCH  20  21
HETATM   21  C   UNK N   1       4.260  -1.404   0.044  0.00  0.00     0.073 C 
BRANCH  21  22
HETATM   22  C   UNK N   1       4.966  -0.268   0.769  0.00  0.00     0.010 C 
BRANCH  22  23
HETATM   23  C   UNK N   1       5.901   0.423  -0.194  0.00  0.00    -0.004 C 
HETATM   24  C   UNK N   1       6.032   1.882   0.178  0.00  0.00     0.005 C 
ENDBRANCH  22  23
ENDBRANCH  21  22
ENDBRANCH  20  21
ENDBRANCH  19  20
ENDBRANCH  16  19
BRANCH  17  25
HETATM   25  O   UNK N   1       1.933   2.917   0.909  0.00  0.00    -0.393 OA
HETATM   26  H   UNK N   1       2.646   2.706   1.532  0.00  0.00     0.210 HD
ENDBRANCH  17  25
ENDBRANCH  13  14
ENDBRANCH   9  13
BRANCH   6  27
HETATM   27  N   UNK N   1      -5.860  -3.622   0.113  0.00  0.00    -0.384 N 
HETATM   28  H   UNK N   1      -6.759  -4.023   0.153  0.00  0.00     0.157 HD
HETATM   29  H   UNK N   1      -5.063  -4.200   0.113  0.00  0.00     0.157 HD
ENDBRANCH   6  27
TORSDOF 9
