REMARK  2 active torsions:
REMARK  status: ('A' for Active; 'I' for Inactive)
REMARK    1  A    between atoms: C_3  and  O_15 
REMARK    2  A    between atoms: C_10  and  N_16 
ROOT
HETATM    1  C   UNK N   1       2.148   1.574  -0.219  0.00  0.00     0.040 A 
HETATM    2  C   UNK N   1       0.997   2.472  -0.451  0.00  0.00     0.203 C 
HETATM    3  C   UNK N   1      -0.384   1.956  -0.149  0.00  0.00     0.182 C 
HETATM    4  C   UNK N   1      -1.507   2.188  -1.167  0.00  0.00     0.075 C 
HETATM    5  C   UNK N   1      -2.547   1.070  -0.860  0.00  0.00     0.134 C 
HETATM    6  C   UNK N   1       3.463   2.059  -0.234  0.00  0.00     0.018 A 
HETATM    7  C   UNK N   1       4.285  -0.145   0.350  0.00  0.00    -0.060 A 
HETATM    8  C   UNK N   1       1.906   0.218   0.077  0.00  0.00     0.048 A 
HETATM    9  C   UNK N   1      -0.448   0.476  -0.043  0.00  0.00     0.128 C 
HETATM   10  O   UNK N   1       1.169   3.653  -0.715  0.00  0.00    -0.288 OA
HETATM   11  N   UNK N   1      -1.744   0.010  -0.308  0.00  0.00    -0.334 N 
HETATM   12  N   UNK N   1       0.581  -0.296   0.058  0.00  0.00    -0.342 N 
ATOM     13  HN  UNK N   1       0.440  -1.304   0.126  1.00  0.00     0.167 HD
HETATM   14  C   UNK N   1       2.977  -0.637   0.351  0.00  0.00     0.037 A 
HETATM   15  C   UNK N   1       5.417  -1.052   0.671  0.00  0.00     0.048 C 
HETATM   16  C   UNK N   1       4.528   1.200   0.054  0.00  0.00     0.008 A 
ENDROOT
BRANCH  11  17
HETATM   17  C   UNK N   1      -2.210  -1.332  -0.142  0.00  0.00     0.035 A 
HETATM   18  C   UNK N   1      -1.336  -2.363   0.242  0.00  0.00     0.029 A 
HETATM   19  C   UNK N   1      -1.807  -3.666   0.421  0.00  0.00     0.002 A 
HETATM   20  C   UNK N   1      -3.161  -3.950   0.234  0.00  0.00     0.000 A 
HETATM   21  C   UNK N   1      -4.042  -2.934  -0.142  0.00  0.00     0.002 A 
HETATM   22  C   UNK N   1      -3.569  -1.632  -0.335  0.00  0.00     0.029 A 
ENDBRANCH  11  17
BRANCH   3  23
HETATM   23  O   UNK N   1      -0.801   2.506   1.066  0.00  0.00    -0.374 OA
HETATM   24  H   UNK N   1      -0.615   2.947   1.910  0.00  0.00     0.211 HD
ENDBRANCH   3  23
TORSDOF 2
