REMARK  2 active torsions:
REMARK  status: ('A' for Active; 'I' for Inactive)
REMARK    1  A    between atoms: C_3  and  O_4 
REMARK    2  A    between atoms: N_7  and  C_8 
ROOT
HETATM    1  O   UNK N   1      -1.502  -3.410  -0.921  0.00  0.00    -0.288 OA
HETATM    2  C   UNK N   1      -1.335  -2.249  -0.577  0.00  0.00     0.203 C 
HETATM    3  C   UNK N   1       0.041  -1.749  -0.238  0.00  0.00     0.182 C 
HETATM    4  C   UNK N   1       1.184  -1.955  -1.240  0.00  0.00     0.075 C 
HETATM    5  C   UNK N   1       2.211  -0.837  -0.898  0.00  0.00     0.134 C 
HETATM    6  N   UNK N   1       1.397   0.204  -0.328  0.00  0.00    -0.334 N 
HETATM    7  C   UNK N   1       0.101  -0.274  -0.087  0.00  0.00     0.128 C 
HETATM    8  N   UNK N   1      -0.929   0.485   0.090  0.00  0.00    -0.342 N 
ATOM      9  HN  UNK N   1      -0.792   1.489   0.206  1.00  0.00     0.167 HD
HETATM   10  C   UNK N   1      -2.248  -0.045   0.127  0.00  0.00     0.047 A 
HETATM   11  C   UNK N   1      -2.487  -1.385  -0.245  0.00  0.00     0.040 A 
HETATM   12  C   UNK N   1      -3.318   0.776   0.490  0.00  0.00     0.030 A 
HETATM   13  C   UNK N   1      -4.620   0.266   0.507  0.00  0.00     0.002 A 
HETATM   14  C   UNK N   1      -4.858  -1.062   0.140  0.00  0.00     0.001 A 
HETATM   15  C   UNK N   1      -3.795  -1.887  -0.239  0.00  0.00     0.017 A 
ENDROOT
BRANCH   6  16
HETATM   16  C   UNK N   1       1.872   1.528  -0.068  0.00  0.00     0.035 A 
HETATM   17  C   UNK N   1       0.996   2.546   0.343  0.00  0.00     0.029 A 
HETATM   18  C   UNK N   1       1.478   3.826   0.628  0.00  0.00     0.002 A 
HETATM   19  C   UNK N   1       2.843   4.097   0.524  0.00  0.00     0.000 A 
HETATM   20  C   UNK N   1       3.726   3.092   0.120  0.00  0.00     0.002 A 
HETATM   21  C   UNK N   1       3.242   1.815  -0.180  0.00  0.00     0.029 A 
ENDBRANCH   6  16
BRANCH   3  22
HETATM   22  O   UNK N   1       0.429  -2.329   0.971  0.00  0.00    -0.374 OA
HETATM   23  H   UNK N   1       0.215  -2.764   1.812  0.00  0.00     0.211 HD
ENDBRANCH   3  22
TORSDOF 2
