REMARK  4 active torsions:
REMARK  status: ('A' for Active; 'I' for Inactive)
REMARK    1  A    between atoms: C_1  and  C_2 
REMARK    2  A    between atoms: C_1  and  C_7 
REMARK    3  A    between atoms: C_2  and  O_16 
REMARK    4  A    between atoms: C_4  and  C_12 
ROOT
HETATM    1  C   UNK N   1       0.593   0.453  -0.131  0.00  0.00    -0.026 A 
HETATM    2  C   UNK N   1       1.709  -0.258   0.345  0.00  0.00     0.013 A 
HETATM    3  C   UNK N   1       1.743  -1.654   0.268  0.00  0.00     0.008 A 
HETATM    4  C   UNK N   1       0.670  -2.352  -0.297  0.00  0.00    -0.048 A 
HETATM    5  C   UNK N   1      -0.432  -1.648  -0.794  0.00  0.00     0.008 A 
HETATM    6  C   UNK N   1      -0.474  -0.257  -0.703  0.00  0.00     0.013 A 
ENDROOT
BRANCH   1   7
HETATM    7  C   UNK N   1       0.522   1.928  -0.010  0.00  0.00    -0.026 A 
HETATM    8  C   UNK N   1       1.612   2.661   0.487  0.00  0.00     0.012 A 
HETATM    9  C   UNK N   1       1.530   4.051   0.614  0.00  0.00     0.001 A 
HETATM   10  C   UNK N   1       0.356   4.719   0.256  0.00  0.00     0.000 A 
HETATM   11  C   UNK N   1      -0.735   3.999  -0.236  0.00  0.00     0.001 A 
HETATM   12  C   UNK N   1      -0.651   2.611  -0.372  0.00  0.00     0.012 A 
ENDBRANCH   1   7
BRANCH   4  13
HETATM   13  C   UNK N   1       0.698  -3.844  -0.354  0.00  0.00     0.148 C 
BRANCH  13  14
HETATM   14  C   UNK N   1      -0.520  -4.432   0.292  0.00  0.00     0.143 C 
HETATM   15  O   UNK N   1      -1.249  -5.168  -0.351  0.00  0.00    -0.650 OA
BRANCH  14  16
HETATM   16  O   UNK N   1      -0.826  -4.133   1.569  0.00  0.00    -0.776 OA
HETATM   17  H   UNK N   1      -0.753  -3.845   2.458  0.00  0.00     0.167 HD
ENDBRANCH  14  16
ENDBRANCH  13  14
ENDBRANCH   4  13
TORSDOF 4
