REMARK  9 active torsions:
REMARK  status: ('A' for Active; 'I' for Inactive)
REMARK    1  A    between atoms: C_1  and  C_2 
REMARK    2  A    between atoms: C_1  and  C_13 
REMARK    3  A    between atoms: C_7  and  O_8 
REMARK    4  A    between atoms: O_8  and  P_9 
REMARK    5  A    between atoms: P_9  and  O_11 
REMARK    6  A    between atoms: P_9  and  O_12 
REMARK    7  A    between atoms: C_18  and  O_19 
REMARK    8  A    between atoms: O_19  and  P_20 
REMARK    9  A    between atoms: P_20  and  O_22 
ROOT
HETATM    1  P   UNK N   1       3.758   4.659  -0.170  0.00  0.00     0.396 P 
HETATM    2  O   UNK N   1       2.967   5.801   0.521  0.00  0.00    -0.631 OA
HETATM    3  O   UNK N   1       3.508   4.800  -1.882  0.00  0.00    -0.307 OA
HETATM    4  H   UNK N   1       3.506   4.960  -2.838  0.00  0.00     0.222 HD
ENDROOT
BRANCH   1   5
HETATM    5  O   UNK N   1       3.148   3.178   0.460  0.00  0.00    -0.255 OA
BRANCH   5   6
HETATM    6  C   UNK N   1       1.901   2.707   0.232  0.00  0.00     0.081 A 
HETATM    7  C   UNK N   1       1.071   3.243  -0.770  0.00  0.00     0.038 A 
HETATM    8  C   UNK N   1      -0.194   2.692  -1.009  0.00  0.00     0.010 A 
HETATM    9  C   UNK N   1      -0.648   1.621  -0.232  0.00  0.00    -0.054 A 
HETATM   10  C   UNK N   1       0.171   1.107   0.784  0.00  0.00     0.010 A 
HETATM   11  C   UNK N   1       1.440   1.639   1.004  0.00  0.00     0.038 A 
BRANCH   9  12
HETATM   12  C   UNK N   1      -1.972   0.982  -0.537  0.00  0.00     0.077 C 
BRANCH  12  13
HETATM   13  C   UNK N   1      -1.859  -0.514  -0.519  0.00  0.00    -0.054 A 
HETATM   14  C   UNK N   1      -0.851  -1.157  -1.250  0.00  0.00     0.010 A 
HETATM   15  C   UNK N   1      -0.679  -2.537  -1.143  0.00  0.00     0.038 A 
HETATM   16  C   UNK N   1      -1.523  -3.293  -0.327  0.00  0.00     0.081 A 
HETATM   17  C   UNK N   1      -2.547  -2.652   0.391  0.00  0.00     0.038 A 
HETATM   18  C   UNK N   1      -2.705  -1.264   0.303  0.00  0.00     0.010 A 
BRANCH  16  19
HETATM   19  O   UNK N   1      -1.317  -4.627  -0.244  0.00  0.00    -0.255 OA
BRANCH  19  20
HETATM   20  P   UNK N   1      -2.501  -5.765   0.267  0.00  0.00     0.396 P 
HETATM   21  O   UNK N   1      -2.269  -6.052   1.775  0.00  0.00    -0.631 OA
BRANCH  20  22
HETATM   22  O   UNK N   1      -2.284  -7.263  -0.582  0.00  0.00    -0.307 OA
HETATM   23  H   UNK N   1      -2.948  -7.786  -1.057  0.00  0.00     0.222 HD
ENDBRANCH  20  22
BRANCH  20  24
HETATM   24  O   UNK N   1      -4.117  -5.161   0.074  0.00  0.00    -0.307 OA
HETATM   25  H   UNK N   1      -4.277  -4.210  -0.035  0.00  0.00     0.222 HD
ENDBRANCH  20  24
ENDBRANCH  19  20
ENDBRANCH  16  19
ENDBRANCH  12  13
ENDBRANCH   9  12
ENDBRANCH   5   6
ENDBRANCH   1   5
BRANCH   1  26
HETATM   26  O   UNK N   1       5.429   4.861   0.252  0.00  0.00    -0.307 OA
HETATM   27  H   UNK N   1       5.993   4.108   0.488  0.00  0.00     0.222 HD
ENDBRANCH   1  26
TORSDOF 9
