REMARK  4 active torsions:
REMARK  status: ('A' for Active; 'I' for Inactive)
REMARK       I    between atoms: C_1  and  N_14 
REMARK    1  A    between atoms: C_6  and  C_7 
REMARK    2  A    between atoms: C_7  and  N_8 
REMARK       I    between atoms: N_8  and  C_15 
REMARK    3  A    between atoms: C_15  and  O_21 
REMARK    4  A    between atoms: C_18  and  O_21 
ROOT
HETATM    1  C   UNK N   1      -5.825   0.392  -0.006  0.00  0.00     0.680 A 
HETATM    2  N   UNK N   1      -4.953   1.451  -0.031  0.00  0.00    -0.155 N 
HETATM    3  C   UNK N   1      -3.595   1.245  -0.021  0.00  0.00     0.274 A 
HETATM    4  O   UNK N   1      -2.825   2.189  -0.043  0.00  0.00    -0.267 OA
HETATM    5  C   UNK N   1      -3.132  -0.064   0.017  0.00  0.00     0.086 A 
HETATM    6  C   UNK N   1      -1.876  -0.608   0.037  0.00  0.00    -0.005 A 
HETATM    7  C   UNK N   1      -2.048  -1.993   0.075  0.00  0.00     0.099 A 
HETATM    8  N   UNK N   1      -3.379  -2.281   0.077  0.00  0.00    -0.350 N 
HETATM    9  C   UNK N   1      -4.011  -1.092   0.041  0.00  0.00     0.137 A 
HETATM   10  N   UNK N   1      -5.353  -0.894   0.031  0.00  0.00    -0.176 N 
ATOM     11  HN  UNK N   1      -5.996  -1.685   0.050  1.00  0.00     0.186 HD
HETATM   12  N   UNK N   1      -7.212   0.632  -0.016  0.00  0.00    -0.234 N 
HETATM   13  H   UNK N   1      -5.305   2.370  -0.057  0.00  0.00     0.187 HD
HETATM   14  H   UNK N   1      -3.794  -3.174   0.099  0.00  0.00     0.166 HD
HETATM   15  H   UNK N   1      -7.552   1.555  -0.024  0.00  0.00     0.174 HD
HETATM   16  H   UNK N   1      -7.842  -0.125  -0.016  0.00  0.00     0.174 HD
ENDROOT
BRANCH   6  17
HETATM   17  C   UNK N   1      -0.622   0.201   0.019  0.00  0.00     0.166 C 
BRANCH  17  18
HETATM   18  N   UNK N   1       0.596  -0.569   0.074  0.00  0.00    -0.333 N 
HETATM   19  C   UNK N   1       1.789   0.076   0.032  0.00  0.00     0.361 C 
HETATM   20  O   UNK N   1       1.814   1.298  -0.044  0.00  0.00    -0.238 OA
HETATM   21  H   UNK N   1       0.563  -1.551   0.140  0.00  0.00     0.165 HD
BRANCH  19  22
HETATM   22  O   UNK N   1       2.947  -0.640   0.110  0.00  0.00    -0.294 OA
BRANCH  22  23
HETATM   23  C   UNK N   1       4.253  -0.173  -0.046  0.00  0.00     0.061 C 
HETATM   24  C   UNK N   1       4.916  -0.094   1.314  0.00  0.00     0.046 C 
HETATM   25  C   UNK N   1       5.018  -1.168  -0.891  0.00  0.00     0.046 C 
HETATM   26  C   UNK N   1       4.377   1.185  -0.729  0.00  0.00     0.046 C 
ENDBRANCH  22  23
ENDBRANCH  19  22
ENDBRANCH  17  18
ENDBRANCH   6  17
TORSDOF 4
