REMARK  3 active torsions:
REMARK  status: ('A' for Active; 'I' for Inactive)
REMARK    1  A    between atoms: C_2  and  C_7 
REMARK    2  A    between atoms: C_3  and  S_13 
REMARK    3  A    between atoms: S_13  and  O_14 
ROOT
HETATM    1  C   UNK N   1      -1.878   0.611   0.214  0.00  0.00     0.014 A 
HETATM    2  C   UNK N   1      -0.658  -0.054  -0.021  0.00  0.00    -0.004 A 
HETATM    3  C   UNK N   1      -0.690  -1.481  -0.190  0.00  0.00     0.070 A 
HETATM    4  C   UNK N   1      -1.929  -2.143  -0.133  0.00  0.00     0.024 A 
HETATM    5  C   UNK N   1      -3.114  -1.451   0.101  0.00  0.00     0.002 A 
HETATM    6  C   UNK N   1      -3.088  -0.074   0.277  0.00  0.00     0.001 A 
ENDROOT
BRANCH   2   7
HETATM    7  C   UNK N   1       0.580   0.800  -0.074  0.00  0.00    -0.025 A 
HETATM    8  C   UNK N   1       0.463   2.192   0.115  0.00  0.00     0.012 A 
HETATM    9  C   UNK N   1       1.588   3.021   0.085  0.00  0.00     0.001 A 
HETATM   10  C   UNK N   1       2.852   2.472  -0.131  0.00  0.00     0.000 A 
HETATM   11  C   UNK N   1       2.988   1.098  -0.326  0.00  0.00     0.001 A 
HETATM   12  C   UNK N   1       1.860   0.273  -0.300  0.00  0.00     0.012 A 
ENDBRANCH   2   7
BRANCH   3  13
HETATM   13  S   UNK N   1       0.780  -2.498  -0.515  0.00  0.00     0.188 S 
HETATM   14  O   UNK N   1       1.372  -2.246   0.880  0.00  0.00    -0.223 OA
BRANCH  13  15
HETATM   15  O   UNK N   1       0.078  -3.975   0.018  0.00  0.00    -0.302 OA
HETATM   16  H   UNK N   1      -0.841  -4.049   0.319  0.00  0.00     0.230 HD
ENDBRANCH  13  15
ENDBRANCH   3  13
TORSDOF 3
