REMARK  5 active torsions:
REMARK  status: ('A' for Active; 'I' for Inactive)
REMARK    1  A    between atoms: N_1  and  C_12 
REMARK    2  A    between atoms: N_4  and  C_8 
REMARK    3  A    between atoms: C_10  and  C_21 
REMARK    4  A    between atoms: C_11  and  O_13 
REMARK    5  A    between atoms: C_15  and  C_21 
ROOT
HETATM    1  C   UNK N   1       0.871   3.411  -0.097  0.00  0.00     0.075 A 
HETATM    2  C   UNK N   1       2.056   2.691   0.034  0.00  0.00     0.106 A 
HETATM    3  C   UNK N   1       1.999   1.302   0.128  0.00  0.00     0.047 A 
HETATM    4  C   UNK N   1       0.787   0.592   0.038  0.00  0.00    -0.012 A 
HETATM    5  C   UNK N   1      -0.413   1.340  -0.148  0.00  0.00     0.105 A 
HETATM    6  C   UNK N   1      -0.368   2.762  -0.178  0.00  0.00     0.138 A 
ENDROOT
BRANCH   4   7
HETATM    7  C   UNK N   1       0.898  -0.937   0.211  0.00  0.00     0.050 C 
HETATM    8  C   UNK N   1       2.012  -1.445  -0.713  0.00  0.00     0.020 C 
BRANCH   7   9
HETATM    9  C   UNK N   1      -0.326  -1.857   0.110  0.00  0.00    -0.050 A 
HETATM   10  C   UNK N   1      -1.466  -1.645   0.903  0.00  0.00     0.009 A 
HETATM   11  C   UNK N   1      -2.558  -2.521   0.834  0.00  0.00     0.024 A 
HETATM   12  C   UNK N   1      -2.501  -3.651   0.014  0.00  0.00     0.034 A 
HETATM   13  C   UNK N   1      -1.357  -3.904  -0.741  0.00  0.00     0.024 A 
HETATM   14 Cl   UNK N   1      -3.860  -4.752  -0.068  0.00  0.00    -0.084 Cl
HETATM   15  C   UNK N   1      -0.283  -3.013  -0.698  0.00  0.00     0.009 A 
ENDBRANCH   7   9
ENDBRANCH   4   7
BRANCH   5  16
HETATM   16  O   UNK N   1      -1.595   0.720  -0.271  0.00  0.00    -0.358 OA
HETATM   17  H   UNK N   1      -2.383   1.219  -0.356  0.00  0.00     0.217 HD
ENDBRANCH   5  16
BRANCH   2  18
HETATM   18  N   UNK N   1       3.310   3.364   0.069  0.00  0.00    -0.116 N 
HETATM   19  O   UNK N   1       4.429   2.673   0.139  0.00  0.00    -0.532 OA
HETATM   20  O   UNK N   1       3.360   4.554  -0.008  0.00  0.00    -0.532 OA
ENDBRANCH   2  18
BRANCH   6  21
HETATM   21  N   UNK N   1      -1.554   3.560  -0.258  0.00  0.00    -0.113 N 
HETATM   22  O   UNK N   1      -1.475   4.750  -0.233  0.00  0.00    -0.532 OA
HETATM   23  O   UNK N   1      -2.746   3.000  -0.255  0.00  0.00    -0.532 OA
ENDBRANCH   6  21
TORSDOF 5
