REMARK  8 active torsions:
REMARK  status: ('A' for Active; 'I' for Inactive)
REMARK       I    between atoms: C_2  and  N_3 
REMARK    1  A    between atoms: C_2  and  C_18 
REMARK    2  A    between atoms: C_4  and  N_3 
REMARK    3  A    between atoms: C_4  and  C_5 
REMARK    4  A    between atoms: C_4  and  C_7 
REMARK    5  A    between atoms: C_5  and  O_6 
REMARK    6  A    between atoms: C_7  and  O_8 
REMARK    7  A    between atoms: C_7  and  C_9 
REMARK    8  A    between atoms: C_12  and  N_13 
ROOT
HETATM    1  C   UNK N   1      21.642  19.174  -0.031  0.00  0.00     0.176 C 
ENDROOT
BRANCH   1   2
HETATM    2  C   UNK N   1      22.567  20.093  -0.882  0.00  0.00     0.141 C 
BRANCH   2   3
HETATM    3  N   UNK N   1      23.917  19.565  -0.999  0.00  0.00    -0.350 N 
HETATM    4  C   UNK N   1      24.871  19.582  -0.030  0.00  0.00     0.243 C 
HETATM    5  O   UNK N   1      24.667  20.112   1.051  0.00  0.00    -0.271 OA
HETATM    6  H   UNK N   1      24.163  19.156  -1.860  0.00  0.00     0.163 HD
BRANCH   4   7
HETATM    7  C   UNK N   1      26.190  18.940  -0.298  0.00  0.00     0.221 C 
HETATM    8 Br   UNK N   1      27.619  20.245  -0.220  0.00  0.00    -0.069 Br
HETATM    9 Br   UNK N   1      26.504  17.543   1.005  0.00  0.00    -0.069 Br
ENDBRANCH   4   7
ENDBRANCH   2   3
BRANCH   2  10
HETATM   10  C   UNK N   1      22.560  21.592  -0.518  0.00  0.00     0.192 C 
BRANCH  10  11
HETATM   11  O   UNK N   1      22.762  21.823   0.843  0.00  0.00    -0.399 OA
HETATM   12  H   UNK N   1      22.971  21.782   1.790  0.00  0.00     0.209 HD
ENDBRANCH  10  11
ENDBRANCH   2  10
ENDBRANCH   1   2
BRANCH   1  13
HETATM   13  O   UNK N   1      22.142  18.972   1.258  0.00  0.00    -0.389 OA
HETATM   14  H   UNK N   1      22.194  18.601   2.153  0.00  0.00     0.210 HD
ENDBRANCH   1  13
BRANCH   1  15
HETATM   15  C   UNK N   1      20.262  19.775   0.037  0.00  0.00    -0.028 A 
HETATM   16  C   UNK N   1      19.303  19.457  -0.934  0.00  0.00     0.012 A 
HETATM   17  C   UNK N   1      18.114  20.190  -1.009  0.00  0.00     0.037 A 
HETATM   18  C   UNK N   1      17.883  21.259  -0.124  0.00  0.00     0.102 A 
HETATM   19  C   UNK N   1      18.829  21.549   0.863  0.00  0.00     0.037 A 
HETATM   20  C   UNK N   1      20.011  20.821   0.936  0.00  0.00     0.012 A 
BRANCH  18  21
HETATM   21  N   UNK N   1      16.729  22.078  -0.257  0.00  0.00    -0.116 N 
HETATM   22  O   UNK N   1      16.577  23.131   0.520  0.00  0.00    -0.532 OA
HETATM   23  O   UNK N   1      15.944  21.877  -1.133  0.00  0.00    -0.532 OA
ENDBRANCH  18  21
ENDBRANCH   1  15
TORSDOF 8
