REMARK  7 active torsions:
REMARK  status: ('A' for Active; 'I' for Inactive)
REMARK    1  A    between atoms: O_2  and  C_3 
REMARK    2  A    between atoms: C_8  and  C_9 
REMARK    3  A    between atoms: C_10  and  C_11 
REMARK       I    between atoms: C_11  and  N_13 
REMARK    4  A    between atoms: N_13  and  C_14 
REMARK    5  A    between atoms: C_19  and  C_20 
REMARK    6  A    between atoms: C_24  and  O_25 
REMARK    7  A    between atoms: C_27  and  O_28 
ROOT
HETATM    1  C   UNK N   1      -0.469  -0.855   0.013  0.00  0.00     0.037 A 
HETATM    2  C   UNK N   1      -1.540  -1.760   0.043  0.00  0.00     0.129 A 
HETATM    3  N   UNK N   1      -1.051  -3.013   0.039  0.00  0.00    -0.294 N 
ATOM      4  HN  UNK N   1      -1.611  -3.865   0.064  1.00  0.00     0.187 HD
HETATM    5  N   UNK N   1       0.271  -2.966  -0.002  0.00  0.00    -0.298 N 
HETATM    6  C   UNK N   1       0.673  -1.681  -0.019  0.00  0.00     0.074 A 
HETATM    7  H   UNK N   1       0.868  -3.749  -0.017  0.00  0.00     0.187 HD
ENDROOT
BRANCH   6   8
HETATM    8  C   UNK N   1       2.124  -1.310  -0.105  0.00  0.00     0.028 A 
HETATM    9  C   UNK N   1       2.500   0.004  -0.403  0.00  0.00     0.043 A 
HETATM   10  C   UNK N   1       3.834   0.391  -0.469  0.00  0.00     0.068 A 
HETATM   11 Cl   UNK N   1       4.220   2.067  -0.815  0.00  0.00    -0.081 Cl
HETATM   12  C   UNK N   1       4.839  -0.553  -0.249  0.00  0.00     0.090 A 
HETATM   13  C   UNK N   1       4.495  -1.880   0.022  0.00  0.00     0.075 A 
HETATM   14  C   UNK N   1       3.151  -2.267   0.090  0.00  0.00     0.081 A 
BRANCH  12  15
HETATM   15  O   UNK N   1       6.133  -0.194  -0.294  0.00  0.00    -0.359 OA
HETATM   16  H   UNK N   1       6.802  -0.850  -0.326  0.00  0.00     0.217 HD
ENDBRANCH  12  15
BRANCH  14  17
HETATM   17  O   UNK N   1       2.862  -3.552   0.362  0.00  0.00    -0.360 OA
HETATM   18  H   UNK N   1       1.986  -3.825   0.551  0.00  0.00     0.217 HD
ENDBRANCH  14  17
ENDBRANCH   6   8
BRANCH   1  19
HETATM   19  C   UNK N   1      -0.530   0.639   0.083  0.00  0.00    -0.021 A 
HETATM   20  C   UNK N   1       0.442   1.351   0.800  0.00  0.00     0.015 A 
HETATM   21  C   UNK N   1       0.404   2.742   0.888  0.00  0.00     0.037 A 
HETATM   22  C   UNK N   1      -0.618   3.456   0.267  0.00  0.00     0.068 A 
HETATM   23  C   UNK N   1      -1.612   2.757  -0.440  0.00  0.00     0.037 A 
HETATM   24  C   UNK N   1      -1.567   1.361  -0.523  0.00  0.00     0.015 A 
BRANCH  22  25
HETATM   25  O   UNK N   1      -0.624   4.806   0.364  0.00  0.00    -0.356 OA
HETATM   26  C   UNK N   1      -1.586   5.600  -0.219  0.00  0.00     0.210 C 
ENDBRANCH  22  25
ENDBRANCH   1  19
BRANCH   2  27
HETATM   27  C   UNK N   1      -3.000  -1.510   0.177  0.00  0.00     0.270 C 
HETATM   28  O   UNK N   1      -3.451  -0.378   0.159  0.00  0.00    -0.266 OA
HETATM   29  N   UNK N   1      -3.829  -2.563   0.383  0.00  0.00    -0.356 N 
HETATM   30  H   UNK N   1      -3.454  -3.473   0.387  0.00  0.00     0.162 HD
BRANCH  29  31
HETATM   31  C   UNK N   1      -5.245  -2.388   0.597  0.00  0.00     0.118 C 
HETATM   32  C   UNK N   1      -6.018  -3.265  -0.363  0.00  0.00     0.026 C 
ENDBRANCH  29  31
ENDBRANCH   2  27
TORSDOF 7
