REMARK  2 active torsions:
REMARK  status: ('A' for Active; 'I' for Inactive)
REMARK       I    between atoms: N_1  and  C_2 
REMARK    1  A    between atoms: N_1  and  C_5 
REMARK       I    between atoms: C_2  and  N_3 
REMARK    2  A    between atoms: N_3  and  C_11 
ROOT
HETATM    1  N   UNK N   1      -1.506  -0.432  -0.001  0.00  0.00    -0.309 N 
HETATM    2  C   UNK N   1      -0.291   0.184   0.002  0.00  0.00     0.325 C 
HETATM    3  N   UNK N   1      -0.232   1.545  -0.001  0.00  0.00    -0.309 N 
HETATM    4  O   UNK N   1       0.736  -0.478   0.009  0.00  0.00    -0.247 OA
HETATM    5  H   UNK N   1      -2.307   0.141  -0.004  0.00  0.00     0.170 HD
HETATM    6  H   UNK N   1      -1.085   2.037  -0.005  0.00  0.00     0.170 HD
ENDROOT
BRANCH   1   7
HETATM    7  C   UNK N   1      -1.708  -1.847  -0.001  0.00  0.00     0.036 A 
HETATM    8  C   UNK N   1      -0.631  -2.752  -0.003  0.00  0.00     0.029 A 
HETATM    9  C   UNK N   1      -0.856  -4.129  -0.003  0.00  0.00     0.002 A 
HETATM   10  C   UNK N   1      -2.162  -4.619  -0.001  0.00  0.00     0.000 A 
HETATM   11  C   UNK N   1      -3.241  -3.731   0.001  0.00  0.00     0.002 A 
HETATM   12  C   UNK N   1      -3.015  -2.349   0.001  0.00  0.00     0.029 A 
ENDBRANCH   1   7
BRANCH   3  13
HETATM   13  C   UNK N   1       0.973   2.313  -0.001  0.00  0.00     0.036 A 
HETATM   14  C   UNK N   1       0.890   3.711  -0.000  0.00  0.00     0.029 A 
HETATM   15  C   UNK N   1       2.055   4.488  -0.000  0.00  0.00     0.002 A 
HETATM   16  C   UNK N   1       3.310   3.872  -0.000  0.00  0.00     0.000 A 
HETATM   17  C   UNK N   1       3.403   2.480  -0.001  0.00  0.00     0.002 A 
HETATM   18  C   UNK N   1       2.242   1.707  -0.001  0.00  0.00     0.029 A 
ENDBRANCH   3  13
TORSDOF 2
