REMARK  5 active torsions:
REMARK  status: ('A' for Active; 'I' for Inactive)
REMARK    1  A    between atoms: C_1  and  C_3 
REMARK    2  A    between atoms: C_3  and  C_4 
REMARK    3  A    between atoms: C_4  and  C_5 
REMARK    4  A    between atoms: C_5  and  C_6 
REMARK    5  A    between atoms: C_7  and  C_6 
ROOT
HETATM    1  C   UNK N   1       0.307   0.715  -0.387  0.00  0.00     0.072 C 
HETATM    2  S   UNK N   1       0.656   1.470   1.222  0.00  0.00    -0.160 SA
HETATM    3  C   UNK N   1       2.252   1.982   0.491  0.00  0.00     0.101 C 
HETATM    4  C   UNK N   1       2.764   0.850  -0.405  0.00  0.00     0.119 C 
HETATM    5  N   UNK N   1       3.622  -0.005   0.378  0.00  0.00    -0.336 N 
HETATM    6  C   UNK N   1       3.003  -1.158   0.610  0.00  0.00     0.316 C 
HETATM    7  O   UNK N   1       3.492  -2.048   1.287  0.00  0.00    -0.247 OA
HETATM    8  N   UNK N   1       1.800  -1.251   0.043  0.00  0.00    -0.335 N 
HETATM    9  C   UNK N   1       1.557  -0.070  -0.761  0.00  0.00     0.123 C 
HETATM   10  H   UNK N   1       4.525   0.230   0.692  0.00  0.00     0.164 HD
HETATM   11  H   UNK N   1       1.174  -2.003   0.154  0.00  0.00     0.164 HD
ENDROOT
BRANCH   1  12
HETATM   12  C   UNK N   1      -1.016  -0.044  -0.479  0.00  0.00     0.017 C 
BRANCH  12  13
HETATM   13  C   UNK N   1      -1.332  -0.988   0.671  0.00  0.00     0.002 C 
BRANCH  13  14
HETATM   14  C   UNK N   1      -2.797  -1.398   0.570  0.00  0.00     0.007 C 
BRANCH  14  15
HETATM   15  C   UNK N   1      -3.707  -0.194   0.779  0.00  0.00     0.069 C 
BRANCH  15  16
HETATM   16  C   UNK N   1      -5.005  -0.404   0.077  0.00  0.00     0.231 C 
HETATM   17  O   UNK N   1      -5.844   0.482   0.068  0.00  0.00    -0.307 OA
ENDBRANCH  15  16
ENDBRANCH  14  15
ENDBRANCH  13  14
ENDBRANCH  12  13
ENDBRANCH   1  12
TORSDOF 5
