REMARK  7 active torsions:
REMARK  status: ('A' for Active; 'I' for Inactive)
REMARK    1  A    between atoms: C_3  and  N_7 
REMARK    2  A    between atoms: C_5  and  C_10 
REMARK    3  A    between atoms: C_13  and  C_14 
REMARK    4  A    between atoms: C_14  and  C_15 
REMARK    5  A    between atoms: C_15  and  C_16 
REMARK    6  A    between atoms: C_16  and  C_17 
REMARK    7  A    between atoms: C_17  and  O_19 
ROOT
HETATM    1  C   UNK N   1      -1.669  -0.831  -0.179  0.00  0.00     0.138 A 
HETATM    2  N   UNK N   1      -0.844   0.232  -0.228  0.00  0.00    -0.323 N 
ATOM      3  HN  UNK N   1      -1.081   1.224  -0.213  1.00  0.00     0.169 HD
HETATM    4  C   UNK N   1       0.368  -0.339  -0.302  0.00  0.00     0.148 A 
HETATM    5  O   UNK N   1       0.271  -1.648  -0.294  0.00  0.00    -0.223 OA
HETATM    6  N   UNK N   1      -0.980  -1.989  -0.224  0.00  0.00    -0.242 N 
ATOM      7  HN  UNK N   1      -1.362  -2.935  -0.207  1.00  0.00     0.196 HD
ENDROOT
BRANCH   1   8
HETATM    8  C   UNK N   1      -3.128  -0.730  -0.073  0.00  0.00     0.012 A 
HETATM    9  C   UNK N   1      -3.919  -1.884  -0.048  0.00  0.00     0.051 A 
HETATM   10  C   UNK N   1      -5.317  -1.786   0.039  0.00  0.00     0.103 A 
HETATM   11  C   UNK N   1      -5.913  -0.518   0.107  0.00  0.00     0.036 A 
HETATM   12  C   UNK N   1      -5.125   0.635   0.090  0.00  0.00     0.003 A 
HETATM   13  C   UNK N   1      -3.737   0.529  -0.002  0.00  0.00     0.015 A 
BRANCH  10  14
HETATM   14  N   UNK N   1      -6.123  -2.956   0.049  0.00  0.00    -0.116 N 
HETATM   15  O   UNK N   1      -7.434  -2.857   0.093  0.00  0.00    -0.532 OA
HETATM   16  O   UNK N   1      -5.617  -4.038   0.002  0.00  0.00    -0.532 OA
ENDBRANCH  10  14
ENDBRANCH   1   8
BRANCH   4  17
HETATM   17  C   UNK N   1       1.642   0.422  -0.321  0.00  0.00     0.087 C 
BRANCH  17  18
HETATM   18  C   UNK N   1       2.294   0.275   1.042  0.00  0.00     0.018 C 
BRANCH  18  19
HETATM   19  C   UNK N   1       3.808   0.348   0.956  0.00  0.00     0.110 C 
BRANCH  19  20
HETATM   20  C   UNK N   1       4.345  -0.771   0.123  0.00  0.00     0.139 C 
HETATM   21  O   UNK N   1       5.076  -0.527  -0.822  0.00  0.00    -0.650 OA
BRANCH  20  22
HETATM   22  O   UNK N   1       4.011  -2.046   0.403  0.00  0.00    -0.776 OA
HETATM   23  H   UNK N   1       3.127  -2.288   0.597  0.00  0.00     0.167 HD
ENDBRANCH  20  22
ENDBRANCH  19  20
ENDBRANCH  18  19
ENDBRANCH  17  18
ENDBRANCH   4  17
TORSDOF 7
