REMARK  7 active torsions:
REMARK  status: ('A' for Active; 'I' for Inactive)
REMARK       I    between atoms: N_4  and  C_2 
REMARK    1  A    between atoms: C_14  and  C_2 
REMARK    2  A    between atoms: N_4  and  C_5 
REMARK    3  A    between atoms: C_6  and  C_5 
REMARK    4  A    between atoms: C_6  and  C_7 
REMARK    5  A    between atoms: C_8  and  C_7 
REMARK    6  A    between atoms: N_10  and  C_8 
REMARK       I    between atoms: C_9  and  N_10 
REMARK       I    between atoms: N_11  and  C_9 
REMARK    7  A    between atoms: C_17  and  C_24 
ROOT
HETATM    1  C   UNK N   1      -1.833  -1.063   0.010  0.00  0.00     0.268 C 
HETATM    2  O   UNK N   1      -2.139  -2.245   0.035  0.00  0.00    -0.266 OA
HETATM    3  N   UNK N   1      -0.514  -0.750   0.013  0.00  0.00    -0.356 N 
HETATM    4  H   UNK N   1       0.118  -1.503   0.064  0.00  0.00     0.162 HD
ENDROOT
BRANCH   3   5
HETATM    5  C   UNK N   1       0.058   0.572  -0.053  0.00  0.00     0.123 C 
BRANCH   5   6
HETATM    6  C   UNK N   1       1.463   0.566   0.556  0.00  0.00     0.021 C 
BRANCH   6   7
HETATM    7  C   UNK N   1       2.204  -0.756   0.355  0.00  0.00     0.022 C 
BRANCH   7   8
HETATM    8  C   UNK N   1       3.210  -0.651  -0.768  0.00  0.00     0.138 C 
BRANCH   8   9
HETATM    9  N   UNK N   1       4.501  -1.061  -0.276  0.00  0.00    -0.227 N 
HETATM   10  C   UNK N   1       5.530  -0.117  -0.032  0.00  0.00     0.665 C 
HETATM   11  N   UNK N   1       5.318   1.137  -0.200  0.00  0.00    -0.235 N 
HETATM   12  N   UNK N   1       6.782  -0.555   0.449  0.00  0.00    -0.235 N 
HETATM   13  H   UNK N   1       6.070   1.760  -0.329  0.00  0.00     0.174 HD
ATOM     14  HN  UNK N   1       4.362   1.493  -0.200  1.00  0.00     0.174 HD
HETATM   15  H   UNK N   1       6.954  -1.465   0.784  0.00  0.00     0.174 HD
HETATM   16  H   UNK N   1       7.529   0.087   0.449  0.00  0.00     0.174 HD
HETATM   17  H   UNK N   1       4.671  -2.016  -0.107  0.00  0.00     0.177 HD
ENDBRANCH   8   9
ENDBRANCH   7   8
ENDBRANCH   6   7
ENDBRANCH   5   6
ENDBRANCH   3   5
BRANCH   1  18
HETATM   18  C   UNK N   1      -2.934  -0.066  -0.010  0.00  0.00     0.108 A 
HETATM   19  N   UNK N   1      -4.239  -0.506  -0.010  0.00  0.00    -0.344 N 
HETATM   20  C   UNK N   1      -5.136   0.502  -0.015  0.00  0.00     0.102 A 
ATOM     21  HN  UNK N   1      -4.500  -1.492  -0.007  1.00  0.00     0.167 HD
HETATM   22  S   UNK N   1      -4.328   1.940  -0.018  0.00  0.00    -0.080 SA
HETATM   23  C   UNK N   1      -2.775   1.338  -0.014  0.00  0.00     0.087 A 
BRANCH  20  24
HETATM   24  C   UNK N   1      -6.587   0.286  -0.010  0.00  0.00     0.073 A 
HETATM   25  N   UNK N   1      -7.491   1.326  -0.005  0.00  0.00    -0.357 N 
HETATM   26  C   UNK N   1      -8.782   0.904   0.001  0.00  0.00     0.138 A 
ATOM     27  HN  UNK N   1      -7.219   2.309  -0.005  1.00  0.00     0.166 HD
HETATM   28  S   UNK N   1      -8.777  -0.749  -0.000  0.00  0.00    -0.094 SA
HETATM   29  C   UNK N   1      -7.144  -1.004  -0.008  0.00  0.00     0.083 A 
ENDBRANCH  20  24
ENDBRANCH   1  18
TORSDOF 7
