REMARK  8 active torsions:
REMARK  status: ('A' for Active; 'I' for Inactive)
REMARK    1  A    between atoms: O_11  and  C_2 
REMARK    2  A    between atoms: C_6  and  C_7 
REMARK    3  A    between atoms: C_12  and  C_6 
REMARK    4  A    between atoms: C_9  and  C_8 
REMARK    5  A    between atoms: O_14  and  C_13 
REMARK    6  A    between atoms: O_17  and  C_16 
REMARK    7  A    between atoms: C_19  and  C_21 
REMARK    8  A    between atoms: C_21  and  C_22 
ROOT
HETATM    1  C   UNK N   1      -0.320   0.466   0.188  0.00  0.00     0.048 A 
HETATM    2  C   UNK N   1      -0.097  -0.892   0.517  0.00  0.00     0.082 A 
HETATM    3  C   UNK N   1       1.175  -1.440   0.405  0.00  0.00     0.074 A 
HETATM    4  C   UNK N   1       2.269  -0.691  -0.028  0.00  0.00     0.077 A 
HETATM    5  C   UNK N   1       2.076   0.694  -0.319  0.00  0.00    -0.020 A 
HETATM    6  C   UNK N   1       0.789   1.242  -0.201  0.00  0.00     0.028 A 
ENDROOT
BRANCH   1   7
HETATM    7  C   UNK N   1      -1.669   1.136   0.243  0.00  0.00     0.184 C 
HETATM    8  O   UNK N   1      -1.722   2.352   0.296  0.00  0.00    -0.287 OA
BRANCH   7   9
HETATM    9  C   UNK N   1      -2.956   0.392   0.207  0.00  0.00     0.056 C 
HETATM   10  C   UNK N   1      -3.071  -0.766  -0.451  0.00  0.00     0.015 C 
BRANCH  10  11
HETATM   11  C   UNK N   1      -4.234  -1.656  -0.354  0.00  0.00    -0.036 A 
HETATM   12  C   UNK N   1      -5.357  -1.327   0.421  0.00  0.00     0.014 A 
HETATM   13  C   UNK N   1      -6.388  -2.258   0.587  0.00  0.00     0.037 A 
HETATM   14  C   UNK N   1      -6.294  -3.521  -0.008  0.00  0.00     0.065 A 
HETATM   15  C   UNK N   1      -5.181  -3.845  -0.787  0.00  0.00     0.037 A 
HETATM   16  C   UNK N   1      -4.154  -2.915  -0.957  0.00  0.00     0.014 A 
BRANCH  14  17
HETATM   17  O   UNK N   1      -7.269  -4.425   0.176  0.00  0.00    -0.361 OA
HETATM   18  H   UNK N   1      -8.156  -4.152   0.304  0.00  0.00     0.217 HD
ENDBRANCH  14  17
ENDBRANCH  10  11
ENDBRANCH   7   9
ENDBRANCH   1   7
BRANCH   2  19
HETATM   19  O   UNK N   1      -1.079  -1.685   0.977  0.00  0.00    -0.360 OA
HETATM   20  H   UNK N   1      -1.900  -1.369   1.299  0.00  0.00     0.217 HD
ENDBRANCH   2  19
BRANCH   5  21
HETATM   21  C   UNK N   1       3.151   1.614  -0.833  0.00  0.00     0.068 C 
BRANCH  21  22
HETATM   22  C   UNK N   1       4.328   1.807   0.084  0.00  0.00    -0.020 C 
HETATM   23  C   UNK N   1       4.976   2.971   0.201  0.00  0.00    -0.091 C 
HETATM   24  C   UNK N   1       6.201   3.038   1.046  0.00  0.00     0.042 C 
HETATM   25  C   UNK N   1       4.537   4.194  -0.538  0.00  0.00     0.042 C 
ENDBRANCH  21  22
ENDBRANCH   5  21
BRANCH   4  26
HETATM   26  O   UNK N   1       3.443  -1.367  -0.147  0.00  0.00    -0.355 OA
HETATM   27  C   UNK N   1       4.604  -0.922  -0.728  0.00  0.00     0.210 C 
ENDBRANCH   4  26
TORSDOF 8
