REMARK  3 active torsions:
REMARK  status: ('A' for Active; 'I' for Inactive)
REMARK    1  A    between atoms: C_7  and  N_17 
REMARK    2  A    between atoms: C_9  and  C_21 
REMARK    3  A    between atoms: C_12  and  O_20 
ROOT
HETATM    1  C   UNK N   1      -0.448   0.986   0.052  0.00  0.00     0.080 A 
HETATM    2  C   UNK N   1      -1.172  -0.215  -0.022  0.00  0.00     0.045 A 
HETATM    3  C   UNK N   1      -2.564  -0.271  -0.015  0.00  0.00    -0.024 A 
HETATM    4  C   UNK N   1      -3.286   0.920   0.056  0.00  0.00     0.015 A 
HETATM    5  C   UNK N   1      -2.612   2.139   0.132  0.00  0.00     0.040 A 
HETATM    6  C   UNK N   1      -1.211   2.193   0.142  0.00  0.00     0.093 A 
ENDROOT
BRANCH   1   7
HETATM    7  N   UNK N   1       1.006   0.898   0.050  0.00  0.00    -0.241 N 
HETATM    8  C   UNK N   1       1.944   1.895  -0.010  0.00  0.00     0.267 A 
HETATM    9  C   UNK N   1       3.291   1.316  -0.002  0.00  0.00     0.054 A 
HETATM   10  O   UNK N   1       1.713   3.087  -0.090  0.00  0.00    -0.267 OA
HETATM   11  C   UNK N   1       3.126  -0.042   0.063  0.00  0.00     0.049 A 
HETATM   12  C   UNK N   1       4.566   1.887  -0.053  0.00  0.00    -0.045 A 
HETATM   13  C   UNK N   1       1.695  -0.287   0.094  0.00  0.00     0.266 A 
HETATM   14  C   UNK N   1       4.205  -0.921   0.081  0.00  0.00     0.018 A 
HETATM   15  O   UNK N   1       1.186  -1.396   0.155  0.00  0.00    -0.267 OA
HETATM   16  C   UNK N   1       5.498  -0.373   0.031  0.00  0.00     0.002 A 
HETATM   17  C   UNK N   1       5.678   1.026  -0.035  0.00  0.00     0.008 A 
HETATM   18  C   UNK N   1       4.759   3.361  -0.125  0.00  0.00     0.049 C 
ENDBRANCH   1   7
BRANCH   6  19
HETATM   19  O   UNK N   1      -0.646   3.400   0.261  0.00  0.00    -0.358 OA
HETATM   20  H   UNK N   1       0.284   3.480   0.345  0.00  0.00     0.217 HD
ENDBRANCH   6  19
BRANCH   3  21
HETATM   21  C   UNK N   1      -3.235  -1.592  -0.020  0.00  0.00    -0.026 A 
HETATM   22  C   UNK N   1      -4.632  -1.692   0.072  0.00  0.00     0.012 A 
HETATM   23  C   UNK N   1      -5.246  -2.948   0.123  0.00  0.00     0.001 A 
HETATM   24  C   UNK N   1      -4.472  -4.111   0.085  0.00  0.00     0.000 A 
HETATM   25  C   UNK N   1      -3.082  -4.021  -0.013  0.00  0.00     0.001 A 
HETATM   26  C   UNK N   1      -2.467  -2.769  -0.062  0.00  0.00     0.012 A 
ENDBRANCH   3  21
TORSDOF 3
