REMARK  13 active torsions:
REMARK  status: ('A' for Active; 'I' for Inactive)
REMARK    1  A    between atoms: C_5  and  C_6 
REMARK    2  A    between atoms: C_6  and  C_7 
REMARK    3  A    between atoms: C_7  and  C_8 
REMARK    4  A    between atoms: C_8  and  C_9 
REMARK    5  A    between atoms: C_9  and  C_10 
REMARK    6  A    between atoms: C_10  and  C_11 
REMARK    7  A    between atoms: C_11  and  C_12 
REMARK    8  A    between atoms: C_18  and  C_19 
REMARK    9  A    between atoms: C_19  and  C_20 
REMARK   10  A    between atoms: C_20  and  C_21 
REMARK   11  A    between atoms: C_21  and  C_22 
REMARK   12  A    between atoms: C_22  and  C_23 
REMARK   13  A    between atoms: C_23  and  O_24 
ROOT
HETATM    1  C   UNK N   1       1.107   2.828  -0.102  0.00  0.00     0.057 A 
HETATM    2  C   UNK N   1       1.111   1.374  -0.275  0.00  0.00     0.029 A 
HETATM    3  C   UNK N   1       2.220   0.559  -0.317  0.00  0.00     0.030 A 
HETATM    4  C   UNK N   1       1.736  -0.731  -0.493  0.00  0.00     0.026 A 
HETATM    5  C   UNK N   1       0.358  -0.632  -0.538  0.00  0.00     0.005 A 
HETATM    6  N   UNK N   1      -0.014   0.655  -0.417  0.00  0.00    -0.314 N 
HETATM    7  B   UNK N   1      -1.431   1.269  -0.426  0.00  0.00     0.773 B 
HETATM    8  F   UNK N   1      -2.182   0.690   0.672  0.00  0.00    -0.253 F 
HETATM    9  N   UNK N   1      -1.319   2.799  -0.245  0.00  0.00    -0.314 N 
HETATM   10  C   UNK N   1      -2.244   3.707  -0.207  0.00  0.00     0.005 A 
HETATM   11  C   UNK N   1      -1.632   5.043  -0.019  0.00  0.00     0.026 A 
HETATM   12  C   UNK N   1      -0.303   4.880   0.052  0.00  0.00     0.030 A 
HETATM   13  C   UNK N   1      -0.077   3.452  -0.094  0.00  0.00     0.029 A 
HETATM   14  F   UNK N   1      -2.068   0.963  -1.701  0.00  0.00    -0.253 F 
ENDROOT
BRANCH   5  15
HETATM   15  C   UNK N   1      -0.585  -1.788  -0.705  0.00  0.00     0.056 C 
BRANCH  15  16
HETATM   16  C   UNK N   1      -0.489  -2.779   0.454  0.00  0.00     0.006 C 
BRANCH  16  17
HETATM   17  C   UNK N   1       0.698  -3.717   0.284  0.00  0.00     0.000 C 
BRANCH  17  18
HETATM   18  C   UNK N   1       1.777  -3.372   1.294  0.00  0.00     0.000 C 
BRANCH  18  19
HETATM   19  C   UNK N   1       3.127  -3.339   0.605  0.00  0.00     0.000 C 
BRANCH  19  20
HETATM   20  C   UNK N   1       3.971  -2.243   1.226  0.00  0.00    -0.000 C 
BRANCH  20  21
HETATM   21  C   UNK N   1       4.868  -1.632   0.169  0.00  0.00    -0.005 C 
HETATM   22  C   UNK N   1       5.365  -0.283   0.647  0.00  0.00     0.005 C 
ENDBRANCH  20  21
ENDBRANCH  19  20
ENDBRANCH  18  19
ENDBRANCH  17  18
ENDBRANCH  16  17
ENDBRANCH  15  16
ENDBRANCH   5  15
BRANCH  10  23
HETATM   23  C   UNK N   1      -3.749   3.555  -0.338  0.00  0.00     0.056 C 
BRANCH  23  24
HETATM   24  C   UNK N   1      -4.326   2.160  -0.457  0.00  0.00     0.006 C 
BRANCH  24  25
HETATM   25  C   UNK N   1      -4.969   1.750   0.858  0.00  0.00     0.011 C 
BRANCH  25  26
HETATM   26  C   UNK N   1      -4.980   0.230   0.979  0.00  0.00     0.110 C 
BRANCH  26  27
HETATM   27  C   UNK N   1      -5.958  -0.451   0.066  0.00  0.00     0.139 C 
HETATM   28  O   UNK N   1      -6.773   0.194  -0.576  0.00  0.00    -0.650 OA
BRANCH  27  29
HETATM   29  O   UNK N   1      -5.933  -1.791  -0.044  0.00  0.00    -0.776 OA
HETATM   30  H   UNK N   1      -6.733  -2.273  -0.121  0.00  0.00     0.167 HD
ENDBRANCH  27  29
ENDBRANCH  26  27
ENDBRANCH  25  26
ENDBRANCH  24  25
ENDBRANCH  23  24
ENDBRANCH  10  23
TORSDOF 13
