REMARK  6 active torsions:
REMARK  status: ('A' for Active; 'I' for Inactive)
REMARK    1  A    between atoms: C_2  and  O_1 
REMARK    2  A    between atoms: C_4  and  C_2 
REMARK    3  A    between atoms: O_5  and  C_4 
REMARK    4  A    between atoms: C_6  and  C_8 
REMARK    5  A    between atoms: C_9  and  C_10 
REMARK    6  A    between atoms: C_10  and  C_12 
ROOT
HETATM    1  C   UNK N   1       1.588   0.388   0.000  0.00  0.00     0.049 C 
HETATM    2  C   UNK N   1       1.539   1.720  -0.000  0.00  0.00     0.059 C 
ENDROOT
BRANCH   1   3
HETATM    3  C   UNK N   1       2.831  -0.398   0.000  0.00  0.00     0.156 C 
HETATM    4  C   UNK N   1       2.814  -1.751   0.000  0.00  0.00     0.179 C 
HETATM    5  F   UNK N   1       4.026   0.254  -0.000  0.00  0.00    -0.203 F 
BRANCH   4   6
HETATM    6  C   UNK N   1       1.565  -2.572   0.000  0.00  0.00     0.203 C 
HETATM    7  O   UNK N   1       0.458  -2.054   0.000  0.00  0.00    -0.644 OA
BRANCH   6   8
HETATM    8  O   UNK N   1       1.654  -3.914   0.000  0.00  0.00    -0.771 OA
HETATM    9  H   UNK N   1       0.876  -4.435   0.000  0.00  0.00     0.167 HD
ENDBRANCH   6   8
ENDBRANCH   4   6
BRANCH   4  10
HETATM   10  O   UNK N   1       3.992  -2.407  -0.000  0.00  0.00    -0.353 OA
HETATM   11  H   UNK N   1       4.007  -3.344  -0.000  0.00  0.00     0.218 HD
ENDBRANCH   4  10
ENDBRANCH   1   3
BRANCH   2  12
HETATM   12  C   UNK N   1       0.245   2.460   0.000  0.00  0.00     0.182 C 
HETATM   13  O   UNK N   1       0.287   3.681   0.000  0.00  0.00    -0.288 OA
BRANCH  12  14
HETATM   14  C   UNK N   1      -1.091   1.781  -0.000  0.00  0.00     0.014 A 
HETATM   15  C   UNK N   1      -1.202   0.383  -0.000  0.00  0.00     0.018 A 
HETATM   16  C   UNK N   1      -2.445  -0.246  -0.000  0.00  0.00     0.043 A 
HETATM   17  C   UNK N   1      -3.607   0.521  -0.000  0.00  0.00     0.116 A 
HETATM   18  C   UNK N   1      -3.522   1.917   0.000  0.00  0.00     0.043 A 
HETATM   19  F   UNK N   1      -4.815  -0.091  -0.000  0.00  0.00    -0.206 F 
HETATM   20  C   UNK N   1      -2.270   2.545   0.000  0.00  0.00     0.018 A 
ENDBRANCH  12  14
ENDBRANCH   2  12
TORSDOF 6
