REMARK  1 active torsions:
REMARK  status: ('A' for Active; 'I' for Inactive)
REMARK    1  A    between atoms: C_8  and  N_9 
ROOT
HETATM    1  N   UNK N   1      -6.636   0.348   0.000  0.00  0.00    -0.191 NA
HETATM    2  C   UNK N   1      -5.480   0.331   0.000  0.00  0.00     0.099 C 
HETATM    3  C   UNK N   1      -4.049   0.319   0.000  0.00  0.00     0.044 A 
HETATM    4  C   UNK N   1      -3.348   1.525  -0.000  0.00  0.00     0.025 A 
HETATM    5  C   UNK N   1      -1.953   1.522  -0.000  0.00  0.00     0.031 A 
HETATM    6  C   UNK N   1      -3.358  -0.893   0.000  0.00  0.00     0.025 A 
HETATM    7  C   UNK N   1      -1.963  -0.896   0.000  0.00  0.00     0.031 A 
HETATM    8  C   UNK N   1      -1.243   0.312  -0.000  0.00  0.00     0.046 A 
ENDROOT
BRANCH   8   9
HETATM    9  N   UNK N   1       0.192   0.306  -0.000  0.00  0.00    -0.244 N 
HETATM   10  C   UNK N   1       0.977  -0.802  -0.000  0.00  0.00     0.267 A 
HETATM   11  O   UNK N   1       0.566  -1.952  -0.000  0.00  0.00    -0.267 OA
HETATM   12  C   UNK N   1       2.381  -0.406  -0.000  0.00  0.00     0.054 A 
HETATM   13  C   UNK N   1       2.398   0.969   0.000  0.00  0.00     0.049 A 
HETATM   14  C   UNK N   1       3.556  -1.152  -0.000  0.00  0.00    -0.045 A 
HETATM   15  C   UNK N   1       1.002   1.399   0.000  0.00  0.00     0.266 A 
HETATM   16  C   UNK N   1       3.590   1.688   0.000  0.00  0.00     0.018 A 
HETATM   17  O   UNK N   1       0.616   2.558   0.000  0.00  0.00    -0.267 OA
HETATM   18  C   UNK N   1       4.794   0.958   0.000  0.00  0.00     0.002 A 
HETATM   19  C   UNK N   1       4.777  -0.456   0.000  0.00  0.00     0.008 A 
HETATM   20  C   UNK N   1       3.529  -2.640  -0.000  0.00  0.00     0.049 C 
ENDBRANCH   8   9
TORSDOF 1
