REMARK  4 active torsions:
REMARK  status: ('A' for Active; 'I' for Inactive)
REMARK    1  A    between atoms: C_6  and  C_7 
REMARK    2  A    between atoms: C_11  and  O_14 
REMARK    3  A    between atoms: O_14  and  C_15 
REMARK    4  A    between atoms: C_15  and  C_16 
ROOT
HETATM    1  O   UNK N   1      -5.555  -0.953   0.211  0.00  0.00    -0.260 OA
HETATM    2  C   UNK N   1      -4.650  -0.144   0.109  0.00  0.00     0.289 A 
HETATM    3  O   UNK N   1      -3.388  -0.544   0.253  0.00  0.00    -0.275 OA
HETATM    4  C   UNK N   1      -2.361   0.299   0.148  0.00  0.00     0.093 A 
HETATM    5  C   UNK N   1      -2.586   1.665  -0.133  0.00  0.00     0.011 A 
HETATM    6  C   UNK N   1      -3.905   2.119  -0.269  0.00  0.00     0.020 A 
HETATM    7  C   UNK N   1      -4.948   1.197  -0.145  0.00  0.00     0.098 A 
HETATM    8  C   UNK N   1      -1.056  -0.165   0.346  0.00  0.00     0.075 A 
HETATM    9  C   UNK N   1       0.030   0.724   0.248  0.00  0.00     0.071 A 
HETATM   10  C   UNK N   1      -0.199   2.064  -0.069  0.00  0.00     0.038 A 
HETATM   11  C   UNK N   1      -1.497   2.537  -0.251  0.00  0.00     0.018 A 
ENDROOT
BRANCH   9  12
HETATM   12  O   UNK N   1       1.300   0.329   0.478  0.00  0.00    -0.347 OA
BRANCH  12  13
HETATM   13  C   UNK N   1       1.644  -0.875   1.049  0.00  0.00     0.214 C 
BRANCH  13  14
HETATM   14  C   UNK N   1       2.974  -1.303   0.535  0.00  0.00    -0.033 A 
HETATM   15  C   UNK N   1       4.047  -0.402   0.514  0.00  0.00     0.009 A 
HETATM   16  C   UNK N   1       5.288  -0.803   0.012  0.00  0.00     0.002 A 
HETATM   17  C   UNK N   1       5.462  -2.109  -0.454  0.00  0.00     0.024 A 
HETATM   18  C   UNK N   1       4.395  -3.012  -0.420  0.00  0.00     0.034 A 
HETATM   19 Cl   UNK N   1       4.620  -4.653  -0.984  0.00  0.00    -0.084 Cl
HETATM   20  C   UNK N   1       3.150  -2.608   0.069  0.00  0.00     0.033 A 
ENDBRANCH  13  14
ENDBRANCH  12  13
ENDBRANCH   9  12
BRANCH   6  21
HETATM   21  C   UNK N   1      -4.196   3.546  -0.507  0.00  0.00     0.271 C 
HETATM   22  O   UNK N   1      -5.344   3.962  -0.533  0.00  0.00    -0.301 OA
ENDBRANCH   6  21
TORSDOF 4
