REMARK  5 active torsions:
REMARK  status: ('A' for Active; 'I' for Inactive)
REMARK    1  A    between atoms: C_6  and  C_8 
REMARK    2  A    between atoms: N_7  and  C_8 
REMARK    3  A    between atoms: C_12  and  O_15 
REMARK    4  A    between atoms: O_15  and  C_16 
REMARK    5  A    between atoms: C_16  and  C_17 
ROOT
HETATM    1  O   UNK N   1      -4.520   2.219   0.094  0.00  0.00    -0.260 OA
HETATM    2  C   UNK N   1      -3.678   1.345   0.032  0.00  0.00     0.288 A 
HETATM    3  O   UNK N   1      -2.385   1.663   0.094  0.00  0.00    -0.275 OA
HETATM    4  C   UNK N   1      -1.424   0.748   0.019  0.00  0.00     0.093 A 
HETATM    5  C   UNK N   1      -1.749  -0.617  -0.144  0.00  0.00     0.006 A 
HETATM    6  C   UNK N   1      -3.098  -0.991  -0.185  0.00  0.00    -0.022 A 
HETATM    7  C   UNK N   1      -4.073   0.008  -0.096  0.00  0.00     0.092 A 
HETATM    8  C   UNK N   1      -0.083   1.130   0.133  0.00  0.00     0.075 A 
HETATM    9  C   UNK N   1       0.939   0.164   0.059  0.00  0.00     0.071 A 
HETATM   10  C   UNK N   1       0.609  -1.176  -0.154  0.00  0.00     0.038 A 
HETATM   11  C   UNK N   1      -0.725  -1.568  -0.242  0.00  0.00     0.017 A 
ENDROOT
BRANCH   9  12
HETATM   12  O   UNK N   1       2.238   0.491   0.233  0.00  0.00    -0.347 OA
BRANCH  12  13
HETATM   13  C   UNK N   1       2.625   1.606   0.941  0.00  0.00     0.214 C 
BRANCH  13  14
HETATM   14  C   UNK N   1       3.919   2.138   0.444  0.00  0.00    -0.033 A 
HETATM   15  C   UNK N   1       4.030   3.502   0.168  0.00  0.00     0.033 A 
HETATM   16  C   UNK N   1       5.248   4.033  -0.260  0.00  0.00     0.034 A 
HETATM   17  C   UNK N   1       6.359   3.198  -0.419  0.00  0.00     0.024 A 
HETATM   18 Cl   UNK N   1       5.382   5.748  -0.577  0.00  0.00    -0.084 Cl
HETATM   19  C   UNK N   1       6.251   1.831  -0.144  0.00  0.00     0.002 A 
HETATM   20  C   UNK N   1       5.034   1.301   0.297  0.00  0.00     0.009 A 
ENDBRANCH  13  14
ENDBRANCH  12  13
ENDBRANCH   9  12
BRANCH   6  21
HETATM   21  C   UNK N   1      -3.472  -2.447  -0.293  0.00  0.00     0.153 C 
BRANCH  21  22
HETATM   22  N   UNK N   1      -4.890  -2.681  -0.080  0.00  0.00    -0.422 N 
HETATM   23  C   UNK N   1      -5.042  -4.116   0.080  0.00  0.00     0.140 C 
HETATM   24  H   UNK N   1      -5.629  -1.979  -0.050  0.00  0.00     0.153 HD
ENDBRANCH  21  22
ENDBRANCH   6  21
TORSDOF 5
