REMARK  6 active torsions:
REMARK  status: ('A' for Active; 'I' for Inactive)
REMARK    1  A    between atoms: C_2  and  C_12 
REMARK    2  A    between atoms: C_3  and  C_2 
REMARK    3  A    between atoms: C_5  and  C_4 
REMARK    4  A    between atoms: C_7  and  C_9 
REMARK    5  A    between atoms: O_8  and  C_7 
REMARK    6  A    between atoms: C_9  and  O_10 
ROOT
HETATM    1  C   UNK N   1       1.336   0.370   0.000  0.00  0.00     0.057 C 
HETATM    2  C   UNK N   1       2.110   1.442  -0.000  0.00  0.00     0.031 C 
ENDROOT
BRANCH   2   3
HETATM    3  C   UNK N   1       1.614   2.850  -0.000  0.00  0.00     0.074 C 
HETATM    4 Cl   UNK N   1       2.908   4.051   0.000  0.00  0.00    -0.081 Cl
HETATM    5  C   UNK N   1       0.320   3.323   0.000  0.00  0.00     0.162 C 
BRANCH   5   6
HETATM    6  C   UNK N   1      -0.960   2.536  -0.000  0.00  0.00     0.202 C 
HETATM    7  O   UNK N   1      -1.000   1.325  -0.000  0.00  0.00    -0.645 OA
BRANCH   6   8
HETATM    8  O   UNK N   1      -2.126   3.211   0.000  0.00  0.00    -0.771 OA
HETATM    9  H   UNK N   1      -2.125   4.148   0.000  0.00  0.00     0.167 HD
ENDBRANCH   6   8
ENDBRANCH   5   6
BRANCH   5  10
HETATM   10  O   UNK N   1       0.161   4.662   0.000  0.00  0.00    -0.354 OA
HETATM   11  H   UNK N   1       0.911   5.223   0.000  0.00  0.00     0.218 HD
ENDBRANCH   5  10
ENDBRANCH   2   3
BRANCH   1  12
HETATM   12  C   UNK N   1       1.793  -1.028   0.000  0.00  0.00     0.182 C 
HETATM   13  O   UNK N   1       2.986  -1.298  -0.000  0.00  0.00    -0.288 OA
BRANCH  12  14
HETATM   14  C   UNK N   1       0.770  -2.099   0.000  0.00  0.00     0.014 A 
HETATM   15  C   UNK N   1       1.138  -3.451  -0.000  0.00  0.00     0.015 A 
HETATM   16  C   UNK N   1       0.153  -4.446  -0.000  0.00  0.00     0.001 A 
HETATM   17  C   UNK N   1      -1.201  -4.096   0.000  0.00  0.00     0.000 A 
HETATM   18  C   UNK N   1      -1.574  -2.751   0.000  0.00  0.00     0.001 A 
HETATM   19  C   UNK N   1      -0.594  -1.760   0.000  0.00  0.00     0.015 A 
ENDBRANCH  12  14
ENDBRANCH   1  12
TORSDOF 6
