REMARK  8 active torsions:
REMARK  status: ('A' for Active; 'I' for Inactive)
REMARK    1  A    between atoms: C_2  and  C_14 
REMARK    2  A    between atoms: C_3  and  C_4 
REMARK    3  A    between atoms: C_4  and  C_8 
REMARK    4  A    between atoms: C_8  and  C_12 
REMARK    5  A    between atoms: C_9  and  C_10 
REMARK    6  A    between atoms: C_9  and  C_11 
REMARK    7  A    between atoms: C_12  and  O_17 
REMARK    8  A    between atoms: C_14  and  O_15 
ROOT
HETATM    1  C   UNK N   1       1.302   1.085  -0.187  0.00  0.00    -0.013 A 
HETATM    2  C   UNK N   1       0.956  -0.249  -0.025  0.00  0.00     0.075 A 
HETATM    3  C   UNK N   1      -0.454  -0.261   0.010  0.00  0.00     0.071 A 
HETATM    4  C   UNK N   1       2.677   1.656  -0.294  0.00  0.00     0.052 C 
HETATM    5  O   UNK N   1      -0.894   0.978  -0.108  0.00  0.00    -0.318 OA
HETATM    6  C   UNK N   1       0.125   1.798  -0.227  0.00  0.00     0.060 A 
ENDROOT
BRANCH   3   7
HETATM    7  C   UNK N   1      -1.447  -1.396   0.142  0.00  0.00     0.076 C 
BRANCH   7   8
HETATM    8  C   UNK N   1      -0.917  -2.791  -0.133  0.00  0.00     0.116 C 
BRANCH   8   9
HETATM    9  C   UNK N   1      -1.947  -3.870  -0.012  0.00  0.00     0.139 C 
HETATM   10  O   UNK N   1      -1.601  -5.036  -0.101  0.00  0.00    -0.650 OA
BRANCH   9  11
HETATM   11  O   UNK N   1      -3.246  -3.573   0.187  0.00  0.00    -0.776 OA
HETATM   12  H   UNK N   1      -3.519  -2.687   0.325  0.00  0.00     0.167 HD
ENDBRANCH   9  11
ENDBRANCH   8   9
ENDBRANCH   7   8
ENDBRANCH   3   7
BRANCH   2  13
HETATM   13  C   UNK N   1       1.962  -1.347   0.088  0.00  0.00     0.179 C 
HETATM   14  O   UNK N   1       1.627  -2.497   0.305  0.00  0.00    -0.646 OA
BRANCH  13  15
HETATM   15  O   UNK N   1       3.274  -1.070  -0.018  0.00  0.00    -0.773 OA
HETATM   16  H   UNK N   1       3.898  -1.765  -0.091  0.00  0.00     0.167 HD
ENDBRANCH  13  15
ENDBRANCH   2  13
BRANCH   6  17
HETATM   17  C   UNK N   1      -0.020   3.279  -0.406  0.00  0.00     0.065 C 
BRANCH  17  18
HETATM   18  C   UNK N   1       0.705   4.053   0.683  0.00  0.00     0.002 C 
HETATM   19  C   UNK N   1       1.922   4.739   0.093  0.00  0.00     0.005 C 
ENDBRANCH  17  18
ENDBRANCH   6  17
TORSDOF 8
