REMARK  8 active torsions:
REMARK  status: ('A' for Active; 'I' for Inactive)
REMARK    1  A    between atoms: S_2  and  O_4 
REMARK    2  A    between atoms: S_2  and  O_5 
REMARK    3  A    between atoms: O_5  and  C_6 
REMARK    4  A    between atoms: C_6  and  C_7 
REMARK    5  A    between atoms: C_7  and  C_8 
REMARK    6  A    between atoms: C_7  and  C_10 
REMARK    7  A    between atoms: C_10  and  C_11 
REMARK    8  A    between atoms: C_11  and  C_12 
ROOT
HETATM    1  C   UNK N   1      -1.345   0.179  -0.821  0.00  0.00     0.196 C 
ENDROOT
BRANCH   1   2
HETATM    2  O   UNK N   1      -2.087  -0.965  -0.467  0.00  0.00    -0.263 OA
BRANCH   2   3
HETATM    3  S   UNK N   1      -3.468  -0.398   0.405  0.00  0.00     0.240 S 
HETATM    4  O   UNK N   1      -4.643  -1.389   0.409  0.00  0.00    -0.579 OA
HETATM    5  O   UNK N   1      -2.900  -1.596   1.186  0.00  0.00    -0.579 OA
BRANCH   3   6
HETATM    6  O   UNK N   1      -3.860  -0.825  -1.215  0.00  0.00    -0.274 OA
HETATM    7  H   UNK N   1      -4.179  -0.754  -2.129  0.00  0.00     0.234 HD
ENDBRANCH   3   6
ENDBRANCH   2   3
ENDBRANCH   1   2
BRANCH   1   8
HETATM    8  C   UNK N   1      -0.349   0.589   0.264  0.00  0.00     0.010 C 
BRANCH   8   9
HETATM    9  C   UNK N   1       0.334   1.880  -0.184  0.00  0.00     0.002 C 
HETATM   10  C   UNK N   1       1.225   2.459   0.903  0.00  0.00     0.005 C 
ENDBRANCH   8   9
BRANCH   8  11
HETATM   11  C   UNK N   1       0.674  -0.515   0.555  0.00  0.00     0.007 C 
BRANCH  11  12
HETATM   12  C   UNK N   1       1.513  -0.880  -0.664  0.00  0.00     0.000 C 
BRANCH  12  13
HETATM   13  C   UNK N   1       2.836  -1.482  -0.229  0.00  0.00    -0.005 C 
HETATM   14  C   UNK N   1       3.811  -0.380   0.141  0.00  0.00     0.005 C 
ENDBRANCH  12  13
ENDBRANCH  11  12
ENDBRANCH   8  11
ENDBRANCH   1   8
TORSDOF 8
