REMARK  5 active torsions:
REMARK  status: ('A' for Active; 'I' for Inactive)
REMARK    1  A    between atoms: O_2  and  C_3 
REMARK    2  A    between atoms: C_7  and  C_9 
REMARK    3  A    between atoms: C_13  and  C_14 
REMARK    4  A    between atoms: C_14  and  C_15 
REMARK    5  A    between atoms: C_16  and  C_15 
REMARK       I    between atoms: C_23  and  N_26 
ROOT
HETATM    1  C   UNK N   1      -1.390  -1.684   0.083  0.00  0.00     0.041 C 
ENDROOT
BRANCH   1   2
HETATM    2  C   UNK N   1      -0.054  -2.214  -0.283  0.00  0.00    -0.057 A 
HETATM    3  C   UNK N   1       0.097  -3.543  -0.688  0.00  0.00     0.007 A 
HETATM    4  C   UNK N   1       1.375  -4.045  -0.962  0.00  0.00     0.001 A 
HETATM    5  C   UNK N   1       2.498  -3.217  -0.832  0.00  0.00     0.012 A 
HETATM    6  C   UNK N   1       2.342  -1.877  -0.438  0.00  0.00    -0.025 A 
HETATM    7  C   UNK N   1       1.062  -1.395  -0.160  0.00  0.00     0.019 A 
BRANCH   6   8
HETATM    8  C   UNK N   1       3.493  -0.959  -0.320  0.00  0.00    -0.023 A 
HETATM    9  C   UNK N   1       4.811  -1.416  -0.459  0.00  0.00     0.012 A 
HETATM   10  C   UNK N   1       5.879  -0.520  -0.352  0.00  0.00     0.004 A 
HETATM   11  C   UNK N   1       5.635   0.840  -0.127  0.00  0.00     0.037 A 
HETATM   12  C   UNK N   1       4.317   1.309   0.002  0.00  0.00     0.069 A 
HETATM   13  C   UNK N   1       3.262   0.406  -0.086  0.00  0.00     0.049 A 
BRANCH  12  14
HETATM   14  O   UNK N   1       4.037   2.619   0.201  0.00  0.00    -0.356 OA
HETATM   15  C   UNK N   1       5.002   3.597   0.265  0.00  0.00     0.210 C 
ENDBRANCH  12  14
ENDBRANCH   6   8
ENDBRANCH   1   2
BRANCH   1  16
HETATM   16  C   UNK N   1      -1.702  -0.361  -0.617  0.00  0.00     0.036 C 
BRANCH  16  17
HETATM   17  C   UNK N   1      -1.993   0.788   0.375  0.00  0.00     0.052 C 
HETATM   18  C   UNK N   1      -0.689   1.334   0.929  0.00  0.00     0.039 C 
HETATM   19  C   UNK N   1      -2.877   0.301   1.526  0.00  0.00     0.135 C 
HETATM   20  C   UNK N   1      -4.202  -0.091   0.942  0.00  0.00     0.240 C 
HETATM   21  O   UNK N   1      -4.802  -1.056   1.390  0.00  0.00    -0.272 OA
HETATM   22  N   UNK N   1      -4.718   0.647  -0.083  0.00  0.00    -0.156 N 
HETATM   23  C   UNK N   1      -6.024   0.347  -0.619  0.00  0.00     0.178 C 
HETATM   24  C   UNK N   1      -3.955   1.739  -0.614  0.00  0.00     0.676 C 
HETATM   25  N   UNK N   1      -2.691   1.841  -0.344  0.00  0.00    -0.217 N 
HETATM   26  N   UNK N   1      -4.574   2.712  -1.432  0.00  0.00    -0.234 N 
ATOM     27  HN  UNK N   1      -2.179   2.672  -0.640  1.00  0.00     0.178 HD
HETATM   28  H   UNK N   1      -4.202   3.424  -2.001  0.00  0.00     0.174 HD
HETATM   29  H   UNK N   1      -5.557   2.670  -1.432  0.00  0.00     0.174 HD
ENDBRANCH  16  17
ENDBRANCH   1  16
TORSDOF 5
