REMARK  11 active torsions:
REMARK  status: ('A' for Active; 'I' for Inactive)
REMARK    1  A    between atoms: C_3  and  N_4 
REMARK    2  A    between atoms: C_11  and  S_14 
REMARK    3  A    between atoms: S_14  and  N_15 
REMARK    4  A    between atoms: N_15  and  C_16 
REMARK    5  A    between atoms: C_16  and  C_17 
REMARK    6  A    between atoms: C_17  and  C_18 
REMARK    7  A    between atoms: C_18  and  C_19 
REMARK    8  A    between atoms: C_19  and  N_20 
REMARK       I    between atoms: N_20  and  C_21 
REMARK    9  A    between atoms: C_21  and  C_23 
REMARK   10  A    between atoms: C_23  and  C_24 
REMARK   11  A    between atoms: C_24  and  S_25 
ROOT
HETATM    1  S   UNK N   1      -1.117  -1.839   0.539  0.00  0.00     0.259 S 
HETATM    2  O   UNK N   1      -0.855  -1.103  -0.782  0.00  0.00    -0.201 OA
HETATM    3  O   UNK N   1       0.034  -1.054   1.190  0.00  0.00    -0.201 OA
ENDROOT
BRANCH   1   4
HETATM    4  C   UNK N   1      -2.593  -0.787   0.368  0.00  0.00     0.090 A 
HETATM    5  C   UNK N   1      -2.515   0.640   0.319  0.00  0.00    -0.000 A 
HETATM    6  C   UNK N   1      -3.691   1.420   0.160  0.00  0.00     0.002 A 
HETATM    7  C   UNK N   1      -1.271   1.285   0.402  0.00  0.00     0.014 A 
HETATM    8  C   UNK N   1      -4.923   0.751   0.083  0.00  0.00     0.014 A 
HETATM    9  C   UNK N   1      -3.588   2.848   0.072  0.00  0.00     0.040 A 
HETATM   10  C   UNK N   1      -4.999  -0.641   0.154  0.00  0.00     0.003 A 
HETATM   11  C   UNK N   1      -3.842  -1.405   0.290  0.00  0.00     0.026 A 
HETATM   12  C   UNK N   1      -2.308   3.430   0.149  0.00  0.00     0.030 A 
HETATM   13  C   UNK N   1      -1.167   2.661   0.316  0.00  0.00     0.003 A 
BRANCH   9  14
HETATM   14  N   UNK N   1      -4.716   3.728  -0.098  0.00  0.00    -0.389 N 
HETATM   15  C   UNK N   1      -4.509   5.151  -0.217  0.00  0.00     0.149 C 
HETATM   16  C   UNK N   1      -6.078   3.262  -0.146  0.00  0.00     0.149 C 
ENDBRANCH   9  14
ENDBRANCH   1   4
BRANCH   1  17
HETATM   17  N   UNK N   1      -0.369  -3.136  -0.429  0.00  0.00    -0.315 N 
HETATM   18  H   UNK N   1      -0.883  -3.797  -1.012  0.00  0.00     0.172 HD
BRANCH  17  19
HETATM   19  C   UNK N   1       1.092  -3.116  -0.268  0.00  0.00     0.132 C 
BRANCH  19  20
HETATM   20  C   UNK N   1       1.797  -2.268  -1.339  0.00  0.00     0.022 C 
BRANCH  20  21
HETATM   21  C   UNK N   1       1.787  -0.783  -0.984  0.00  0.00     0.021 C 
BRANCH  21  22
HETATM   22  C   UNK N   1       3.067  -0.076  -1.372  0.00  0.00     0.122 C 
BRANCH  22  23
HETATM   23  N   UNK N   1       3.922   0.059  -0.217  0.00  0.00    -0.361 N 
HETATM   24  C   UNK N   1       4.625  -0.983   0.288  0.00  0.00     0.218 C 
HETATM   25  O   UNK N   1       4.556  -2.090  -0.225  0.00  0.00    -0.274 OA
HETATM   26  H   UNK N   1       3.998   0.939   0.218  0.00  0.00     0.162 HD
BRANCH  24  27
HETATM   27  C   UNK N   1       5.522  -0.763   1.459  0.00  0.00     0.112 C 
BRANCH  27  28
HETATM   28  C   UNK N   1       6.974  -0.967   1.056  0.00  0.00     0.080 C 
BRANCH  28  29
HETATM   29  S   UNK N   1       7.516   0.373  -0.049  0.00  0.00    -0.182 SA
HETATM   30  H   UNK N   1       8.586   0.523  -0.875  0.00  0.00     0.101 HD
ENDBRANCH  28  29
ENDBRANCH  27  28
ENDBRANCH  24  27
ENDBRANCH  22  23
ENDBRANCH  21  22
ENDBRANCH  20  21
ENDBRANCH  19  20
ENDBRANCH  17  19
ENDBRANCH   1  17
TORSDOF 11
