REMARK  11 active torsions:
REMARK  status: ('A' for Active; 'I' for Inactive)
REMARK    1  A    between atoms: C_1  and  C_2 
REMARK    2  A    between atoms: C_30  and  C_1 
REMARK    3  A    between atoms: C_2  and  C_3 
REMARK    4  A    between atoms: C_4  and  C_5 
REMARK    5  A    between atoms: C_5  and  C_6 
REMARK    6  A    between atoms: C_5  and  C_7 
REMARK    7  A    between atoms: C_5  and  O_8 
REMARK    8  A    between atoms: C_18  and  O_15 
REMARK    9  A    between atoms: C_16  and  O_32 
REMARK   10  A    between atoms: C_21  and  C_22 
REMARK   11  A    between atoms: C_27  and  C_23 
ROOT
HETATM    1  C   UNK N   1       0.763   2.004  -1.454  0.00  0.00     0.016 C 
HETATM    2  C   UNK N   1       0.646   0.909  -0.391  0.00  0.00    -0.034 C 
HETATM    3  C   UNK N   1       1.462  -0.320  -0.869  0.00  0.00     0.016 C 
HETATM    4  C   UNK N   1       0.728  -1.506  -0.316  0.00  0.00     0.010 C 
HETATM    5  C   UNK N   1      -0.689  -1.092  -0.691  0.00  0.00     0.010 C 
HETATM    6  C   UNK N   1      -0.799   0.349  -0.180  0.00  0.00    -0.036 C 
HETATM    7  C   UNK N   1       1.177   1.510   0.916  0.00  0.00     0.016 C 
HETATM    8  C   UNK N   1      -1.856   1.095  -0.985  0.00  0.00     0.016 C 
ENDROOT
BRANCH   6   9
HETATM    9  C   UNK N   1      -1.280   0.399   1.311  0.00  0.00     0.022 C 
BRANCH   9  10
HETATM   10  C   UNK N   1      -1.007  -0.838   2.176  0.00  0.00     0.095 C 
BRANCH  10  11
HETATM   11  C   UNK N   1      -2.008  -1.793   1.727  0.00  0.00    -0.103 C 
HETATM   12  C   UNK N   1      -2.835  -2.347   1.058  0.00  0.00    -0.050 C 
BRANCH  12  13
HETATM   13  C   UNK N   1      -3.967  -2.857   0.289  0.00  0.00     0.318 C 
BRANCH  13  14
HETATM   14  C   UNK N   1      -3.543  -4.095  -0.528  0.00  0.00     0.439 C 
HETATM   15  F   UNK N   1      -2.538  -3.776  -1.429  0.00  0.00    -0.166 F 
HETATM   16  F   UNK N   1      -3.071  -5.083   0.318  0.00  0.00    -0.166 F 
HETATM   17  F   UNK N   1      -4.625  -4.593  -1.230  0.00  0.00    -0.166 F 
ENDBRANCH  13  14
BRANCH  13  18
HETATM   18  C   UNK N   1      -4.462  -1.702  -0.621  0.00  0.00     0.439 C 
HETATM   19  F   UNK N   1      -4.729  -0.574   0.141  0.00  0.00    -0.166 F 
HETATM   20  F   UNK N   1      -3.511  -1.364  -1.569  0.00  0.00    -0.166 F 
HETATM   21  F   UNK N   1      -5.622  -2.065  -1.277  0.00  0.00    -0.166 F 
ENDBRANCH  13  18
BRANCH  13  22
HETATM   22  O   UNK N   1      -4.981  -3.203   1.181  0.00  0.00    -0.363 OA
HETATM   23  H   UNK N   1      -5.543  -2.713   1.802  0.00  0.00     0.212 HD
ENDBRANCH  13  22
ENDBRANCH  12  13
ENDBRANCH  10  11
ENDBRANCH   9  10
ENDBRANCH   6   9
BRANCH   3  24
HETATM   24  C   UNK N   1       2.917  -0.159  -0.594  0.00  0.00    -0.021 C 
HETATM   25  C   UNK N   1       3.721  -0.839   0.226  0.00  0.00    -0.003 C 
BRANCH  25  26
HETATM   26  C   UNK N   1       5.083  -0.273   0.363  0.00  0.00     0.003 C 
HETATM   27  C   UNK N   1       5.270   1.043   0.612  0.00  0.00    -0.075 C 
HETATM   28  C   UNK N   1       6.623   1.672   0.430  0.00  0.00     0.066 C 
HETATM   29  C   UNK N   1       4.117   1.969   0.901  0.00  0.00     0.066 C 
HETATM   30  C   UNK N   1       6.484   3.205   0.294  0.00  0.00     0.124 C 
HETATM   31  C   UNK N   1       5.340   3.561  -0.670  0.00  0.00     0.064 C 
HETATM   32  C   UNK N   1       3.978   3.006  -0.214  0.00  0.00     0.124 C 
BRANCH  30  33
HETATM   33  O   UNK N   1       7.674   3.742  -0.191  0.00  0.00    -0.395 OA
HETATM   34  H   UNK N   1       8.412   3.212  -0.528  0.00  0.00     0.210 HD
ENDBRANCH  30  33
BRANCH  32  35
HETATM   35  O   UNK N   1       3.166   4.047   0.236  0.00  0.00    -0.395 OA
HETATM   36  H   UNK N   1       3.511   4.898   0.548  0.00  0.00     0.210 HD
ENDBRANCH  32  35
ENDBRANCH  25  26
ENDBRANCH   3  24
TORSDOF 11
