REMARK  4 active torsions:
REMARK  status: ('A' for Active; 'I' for Inactive)
REMARK    1  A    between atoms: S_2  and  N_4 
REMARK    2  A    between atoms: S_2  and  C_5 
REMARK    3  A    between atoms: C_8  and  C_11 
REMARK    4  A    between atoms: C_15  and  C_16 
ROOT
HETATM    1  C   UNK N   1      -1.512  -0.591  -0.038  0.00  0.00     0.086 A 
HETATM    2  O   UNK N   1      -0.410  -1.269  -0.045  0.00  0.00    -0.310 OA
HETATM    3  C   UNK N   1      -2.588  -1.457  -0.158  0.00  0.00     0.041 A 
HETATM    4  C   UNK N   1      -2.017  -2.738  -0.231  0.00  0.00     0.040 A 
HETATM    5  C   UNK N   1      -0.647  -2.531  -0.171  0.00  0.00     0.077 A 
ENDROOT
BRANCH   1   6
HETATM    6  C   UNK N   1      -1.420   0.871   0.019  0.00  0.00    -0.002 A 
HETATM    7  C   UNK N   1      -0.125   1.374   0.152  0.00  0.00     0.016 A 
HETATM    8  C   UNK N   1       0.126   2.723   0.125  0.00  0.00     0.026 A 
HETATM    9  C   UNK N   1      -0.916   3.628  -0.031  0.00  0.00     0.079 A 
HETATM   10  C   UNK N   1      -2.241   3.155  -0.162  0.00  0.00     0.026 A 
HETATM   11  C   UNK N   1      -2.496   1.763  -0.130  0.00  0.00     0.016 A 
BRANCH   9  12
HETATM   12  S   UNK N   1      -0.436   5.353  -0.158  0.00  0.00     0.256 S 
HETATM   13  O   UNK N   1      -1.213   6.620   0.221  0.00  0.00    -0.201 OA
HETATM   14  O   UNK N   1       1.004   5.597   0.320  0.00  0.00    -0.201 OA
BRANCH  12  15
HETATM   15  N   UNK N   1      -0.753   5.065   1.556  0.00  0.00    -0.324 N 
HETATM   16  H   UNK N   1      -0.988   5.140   2.545  0.00  0.00     0.169 HD
HETATM   17  H   UNK N   1      -0.537   4.068   1.556  0.00  0.00     0.169 HD
ENDBRANCH  12  15
ENDBRANCH   9  12
ENDBRANCH   1   6
BRANCH   5  18
HETATM   18  C   UNK N   1       0.468  -3.501  -0.201  0.00  0.00     0.061 C 
HETATM   19  C   UNK N   1       1.749  -3.081  -0.370  0.00  0.00     0.080 A 
HETATM   20  S   UNK N   1       2.254  -1.366  -0.703  0.00  0.00    -0.024 SA
HETATM   21  C   UNK N   1       2.918  -3.938  -0.257  0.00  0.00     0.266 A 
HETATM   22  C   UNK N   1       3.936  -1.964  -0.549  0.00  0.00     0.291 A 
HETATM   23  N   UNK N   1       4.089  -3.290  -0.344  0.00  0.00    -0.283 N 
HETATM   24  O   UNK N   1       4.897  -1.214  -0.612  0.00  0.00    -0.260 OA
HETATM   25  H   UNK N   1       4.965  -3.733  -0.266  0.00  0.00     0.172 HD
HETATM   26  O   UNK N   1       2.865  -5.143  -0.042  0.00  0.00    -0.267 OA
ENDBRANCH   5  18
TORSDOF 4
