REMARK  10 active torsions:
REMARK  status: ('A' for Active; 'I' for Inactive)
REMARK    1  A    between atoms: C_2  and  C_3 
REMARK       I    between atoms: N_8  and  C_2 
REMARK    2  A    between atoms: C_4  and  C_3 
REMARK    3  A    between atoms: C_5  and  C_4 
REMARK    4  A    between atoms: C_5  and  C_6 
REMARK    5  A    between atoms: C_9  and  N_8 
REMARK    6  A    between atoms: C_10  and  C_9 
REMARK    7  A    between atoms: C_13  and  C_9 
REMARK    8  A    between atoms: C_10  and  O_12 
REMARK    9  A    between atoms: C_14  and  C_13 
REMARK   10  A    between atoms: O_15  and  C_14 
ROOT
HETATM    1  O   UNK N   1      -0.113  -0.334   0.801  0.00  0.00    -0.274 OA
HETATM    2  C   UNK N   1       0.084   0.573   0.003  0.00  0.00     0.218 C 
HETATM    3  N   UNK N   1       1.347   0.919  -0.354  0.00  0.00    -0.347 N 
HETATM    4  H   UNK N   1       1.463   1.670  -0.981  0.00  0.00     0.163 HD
ENDROOT
BRANCH   3   5
HETATM    5  C   UNK N   1       2.537   0.245   0.135  0.00  0.00     0.184 C 
BRANCH   5   6
HETATM    6  C   UNK N   1       2.595  -1.197  -0.340  0.00  0.00     0.163 C 
HETATM    7  O   UNK N   1       1.708  -1.661  -1.039  0.00  0.00    -0.648 OA
BRANCH   6   8
HETATM    8  O   UNK N   1       3.631  -1.982   0.015  0.00  0.00    -0.775 OA
HETATM    9  H   UNK N   1       3.518  -2.879   0.261  0.00  0.00     0.167 HD
ENDBRANCH   6   8
ENDBRANCH   5   6
BRANCH   5  10
HETATM   10  C   UNK N   1       3.753   1.024  -0.366  0.00  0.00     0.062 C 
BRANCH  10  11
HETATM   11  C   UNK N   1       5.045   0.576   0.301  0.00  0.00     0.166 C 
BRANCH  11  12
HETATM   12  O   UNK N   1       6.090   1.407  -0.100  0.00  0.00    -0.401 OA
HETATM   13  H   UNK N   1       6.954   1.067  -0.378  0.00  0.00     0.209 HD
ENDBRANCH  11  12
ENDBRANCH  10  11
ENDBRANCH   5  10
ENDBRANCH   3   5
BRANCH   2  14
HETATM   14  C   UNK N   1      -1.079   1.273  -0.621  0.00  0.00     0.103 C 
BRANCH  14  15
HETATM   15  C   UNK N   1      -1.978   1.887   0.440  0.00  0.00     0.009 C 
BRANCH  15  16
HETATM   16  C   UNK N   1      -3.427   1.852  -0.016  0.00  0.00     0.000 C 
BRANCH  16  17
HETATM   17  C   UNK N   1      -3.970   0.436   0.069  0.00  0.00    -0.005 C 
HETATM   18  C   UNK N   1      -5.459   0.441  -0.204  0.00  0.00     0.005 C 
ENDBRANCH  16  17
ENDBRANCH  15  16
ENDBRANCH  14  15
ENDBRANCH   2  14
TORSDOF 10
