REMARK  11 active torsions:
REMARK  status: ('A' for Active; 'I' for Inactive)
REMARK    1  A    between atoms: C_1  and  N_18 
REMARK    2  A    between atoms: C_1  and  C_2 
REMARK    3  A    between atoms: C_3  and  C_4 
REMARK    4  A    between atoms: C_4  and  C_6 
REMARK    5  A    between atoms: C_6  and  C_7 
REMARK    6  A    between atoms: C_8  and  O_29 
REMARK    7  A    between atoms: C_11  and  C_8 
REMARK    8  A    between atoms: C_9  and  C_10 
REMARK       I    between atoms: N_28  and  C_10 
REMARK    9  A    between atoms: C_13  and  C_11 
REMARK   10  A    between atoms: C_11  and  N_28 
REMARK       I    between atoms: C_13  and  N_30 
REMARK   11  A    between atoms: O_32  and  N_30 
ROOT
HETATM    1  C   UNK N   1       0.746   0.077   0.002  0.00  0.00     0.009 C 
HETATM    2  C   UNK N   1       2.283  -2.169   0.503  0.00  0.00     0.032 C 
HETATM    3  C   UNK N   1       0.142  -1.076   0.493  0.00  0.00     0.021 C 
HETATM    4  C   UNK N   1       2.075   0.074  -0.396  0.00  0.00     0.021 C 
HETATM    5  C   UNK N   1       0.906  -2.193   0.744  0.00  0.00     0.018 C 
HETATM    6  C   UNK N   1       2.840  -1.068  -0.157  0.00  0.00     0.018 C 
ENDROOT
BRANCH   1   7
HETATM    7  C   UNK N   1      -0.013   1.255   0.120  0.00  0.00    -0.116 C 
BRANCH   7   8
HETATM    8  C   UNK N   1      -0.837   2.106   0.058  0.00  0.00     0.068 C 
BRANCH   8   9
HETATM    9  C   UNK N   1      -2.020   2.743  -0.328  0.00  0.00    -0.029 A 
HETATM   10  C   UNK N   1      -2.546   3.852   0.337  0.00  0.00     0.012 A 
HETATM   11  C   UNK N   1      -3.872   4.222   0.071  0.00  0.00     0.010 A 
HETATM   12  C   UNK N   1      -4.619   3.494  -0.874  0.00  0.00    -0.030 A 
HETATM   13  C   UNK N   1      -4.048   2.432  -1.561  0.00  0.00     0.010 A 
HETATM   14  C   UNK N   1      -2.760   2.053  -1.277  0.00  0.00     0.012 A 
BRANCH  12  15
HETATM   15  C   UNK N   1      -6.090   3.649  -0.990  0.00  0.00     0.311 C 
BRANCH  15  16
HETATM   16  N   UNK N   1      -6.785   3.067   0.175  0.00  0.00     0.096 N 
HETATM   17  C   UNK N   1      -6.178   1.818   0.698  0.00  0.00     0.299 C 
HETATM   18  C   UNK N   1      -6.473   0.624  -0.217  0.00  0.00     0.198 C 
HETATM   19  O   UNK N   1      -7.861   0.455  -0.311  0.00  0.00    -0.388 OA
HETATM   20  C   UNK N   1      -8.336   1.561  -1.036  0.00  0.00     0.198 C 
HETATM   21  C   UNK N   1      -8.187   2.835  -0.188  0.00  0.00     0.299 C 
ENDBRANCH  15  16
ENDBRANCH  12  15
ENDBRANCH   8   9
ENDBRANCH   7   8
ENDBRANCH   1   7
BRANCH   2  22
HETATM   22  C   UNK N   1       3.101  -3.123   1.292  0.00  0.00     0.252 C 
HETATM   23  O   UNK N   1       2.501  -3.874   2.047  0.00  0.00    -0.268 OA
HETATM   24  N   UNK N   1       4.464  -3.151   1.346  0.00  0.00    -0.341 N 
HETATM   25  H   UNK N   1       4.810  -3.634   2.132  0.00  0.00     0.163 HD
BRANCH  24  26
HETATM   26  C   UNK N   1       5.518  -2.620   0.493  0.00  0.00     0.207 C 
BRANCH  26  27
HETATM   27  C   UNK N   1       5.345  -3.267  -0.904  0.00  0.00     0.146 C 
HETATM   28  C   UNK N   1       6.559  -3.133  -1.797  0.00  0.00     0.042 C 
BRANCH  27  29
HETATM   29  O   UNK N   1       5.100  -4.635  -0.742  0.00  0.00    -0.393 OA
HETATM   30  H   UNK N   1       4.194  -4.963  -0.629  0.00  0.00     0.210 HD
ENDBRANCH  27  29
ENDBRANCH  26  27
BRANCH  26  31
HETATM   31  C   UNK N   1       5.770  -1.100   0.549  0.00  0.00     0.266 C 
HETATM   32  N   UNK N   1       6.930  -0.563   0.092  0.00  0.00    -0.236 N 
HETATM   33  H   UNK N   1       7.031   0.416   0.084  0.00  0.00     0.197 HD
HETATM   34  O   UNK N   1       4.981  -0.357   1.106  0.00  0.00    -0.269 OA
BRANCH  32  35
HETATM   35  O   UNK N   1       7.942  -1.322  -0.348  0.00  0.00    -0.287 OA
HETATM   36  H   UNK N   1       7.833  -2.232  -0.666  0.00  0.00     0.244 HD
ENDBRANCH  32  35
ENDBRANCH  26  31
ENDBRANCH  24  26
ENDBRANCH   2  22
TORSDOF 11
