REMARK  5 active torsions:
REMARK  status: ('A' for Active; 'I' for Inactive)
REMARK    1  A    between atoms: S_2  and  N_4 
REMARK    2  A    between atoms: S_2  and  C_5 
REMARK    3  A    between atoms: C_6  and  C_7 
REMARK    4  A    between atoms: C_12  and  C_15 
REMARK    5  A    between atoms: C_19  and  C_20 
ROOT
HETATM    1  C   UNK N   1      -1.208   2.719   0.022  0.00  0.00     0.094 A 
HETATM    2  C   UNK N   1      -0.096   1.848   0.056  0.00  0.00     0.072 A 
HETATM    3  C   UNK N   1      -0.330   0.489   0.130  0.00  0.00     0.032 A 
HETATM    4  C   UNK N   1      -1.611  -0.058   0.178  0.00  0.00    -0.001 A 
HETATM    5  C   UNK N   1      -2.719   0.789   0.161  0.00  0.00     0.016 A 
HETATM    6  C   UNK N   1      -2.513   2.179   0.079  0.00  0.00     0.027 A 
ENDROOT
BRANCH   4   7
HETATM    7  C   UNK N   1      -1.651  -1.521   0.223  0.00  0.00     0.086 A 
HETATM    8  O   UNK N   1      -0.522  -2.147   0.198  0.00  0.00    -0.310 OA
HETATM    9  C   UNK N   1      -0.695  -3.421   0.232  0.00  0.00     0.077 A 
HETATM   10  C   UNK N   1      -2.054  -3.697   0.305  0.00  0.00     0.040 A 
HETATM   11  C   UNK N   1      -2.687  -2.441   0.287  0.00  0.00     0.041 A 
BRANCH   9  12
HETATM   12  C   UNK N   1       0.477  -4.319   0.276  0.00  0.00     0.061 C 
HETATM   13  C   UNK N   1       1.728  -3.837   0.031  0.00  0.00     0.079 A 
HETATM   14  S   UNK N   1       2.108  -2.135  -0.503  0.00  0.00    -0.049 SA
HETATM   15  C   UNK N   1       2.950  -4.615   0.228  0.00  0.00     0.264 A 
HETATM   16  C   UNK N   1       3.832  -2.580  -0.327  0.00  0.00     0.145 A 
HETATM   17  N   UNK N   1       4.757  -1.694  -0.327  0.00  0.00    -0.380 N 
HETATM   18  N   UNK N   1       4.082  -3.912   0.051  0.00  0.00    -0.303 N 
HETATM   19  H   UNK N   1       5.702  -1.970  -0.328  0.00  0.00     0.158 HD
ATOM     20  HN  UNK N   1       4.515  -0.703  -0.327  1.00  0.00     0.158 HD
HETATM   21  H   UNK N   1       4.984  -4.287   0.172  0.00  0.00     0.171 HD
HETATM   22  O   UNK N   1       2.964  -5.778   0.585  0.00  0.00    -0.267 OA
ENDBRANCH   9  12
ENDBRANCH   4   7
BRANCH   2  23
HETATM   23  C   UNK N   1       1.343   2.304   0.003  0.00  0.00     0.419 C 
HETATM   24  F   UNK N   1       1.640   3.062   1.118  0.00  0.00    -0.166 F 
HETATM   25  F   UNK N   1       2.208   1.219  -0.004  0.00  0.00    -0.166 F 
HETATM   26  F   UNK N   1       1.570   3.038  -1.146  0.00  0.00    -0.166 F 
ENDBRANCH   2  23
BRANCH   1  27
HETATM   27  S   UNK N   1      -1.017   4.500  -0.161  0.00  0.00     0.257 S 
HETATM   28  O   UNK N   1      -1.044   4.923  -1.637  0.00  0.00    -0.201 OA
HETATM   29  O   UNK N   1      -2.214   5.276   0.405  0.00  0.00    -0.201 OA
BRANCH  27  30
HETATM   30  N   UNK N   1       0.393   5.322   0.512  0.00  0.00    -0.324 N 
HETATM   31  H   UNK N   1       1.211   4.854   0.900  0.00  0.00     0.169 HD
HETATM   32  H   UNK N   1       0.388   6.342   0.512  0.00  0.00     0.169 HD
ENDBRANCH  27  30
ENDBRANCH   1  27
TORSDOF 5
