REMARK  6 active torsions:
REMARK  status: ('A' for Active; 'I' for Inactive)
REMARK    1  A    between atoms: C_5  and  C_10 
REMARK    2  A    between atoms: C_7  and  C_14 
REMARK    3  A    between atoms: C_8  and  N_17 
REMARK    4  A    between atoms: C_14  and  O_15 
REMARK    5  A    between atoms: N_17  and  S_18 
REMARK    6  A    between atoms: S_18  and  C_20 
ROOT
HETATM    1  C   UNK N   1      -2.227  -2.794   0.216  0.00  0.00     0.023 A 
HETATM    2  C   UNK N   1      -3.597  -2.820  -0.017  0.00  0.00     0.044 A 
HETATM    3  C   UNK N   1      -4.255  -1.711  -0.556  0.00  0.00     0.023 A 
HETATM    4  C   UNK N   1      -3.562  -0.527  -0.757  0.00  0.00     0.014 A 
HETATM    5  C   UNK N   1      -2.228  -0.466  -0.400  0.00  0.00    -0.019 A 
HETATM    6  C   UNK N   1      -1.546  -1.610   0.034  0.00  0.00     0.014 A 
HETATM    7  C   UNK N   1      -4.343  -3.946   0.418  0.00  0.00     0.099 C 
HETATM    8  N   UNK N   1      -4.915  -4.880   0.784  0.00  0.00    -0.191 NA
ENDROOT
BRANCH   5   9
HETATM    9  C   UNK N   1      -1.647   0.819  -0.147  0.00  0.00     0.018 A 
HETATM   10  C   UNK N   1      -0.541   0.959   0.645  0.00  0.00     0.051 A 
HETATM   11  C   UNK N   1      -0.159   2.284   0.831  0.00  0.00     0.067 A 
HETATM   12  C   UNK N   1      -1.001   3.218   0.201  0.00  0.00     0.106 A 
HETATM   13  S   UNK N   1      -2.189   2.334  -0.543  0.00  0.00    -0.081 SA
BRANCH  11  14
HETATM   14  N   UNK N   1       1.176   2.526   1.128  0.00  0.00    -0.279 N 
HETATM   15  H   UNK N   1       1.484   3.014   1.926  0.00  0.00     0.179 HD
BRANCH  14  16
HETATM   16  S   UNK N   1       2.250   1.854  -0.094  0.00  0.00     0.263 S 
HETATM   17  O   UNK N   1       1.340   1.720  -1.337  0.00  0.00    -0.200 OA
HETATM   18  O   UNK N   1       3.069   3.063  -0.544  0.00  0.00    -0.200 OA
BRANCH  16  19
HETATM   19  C   UNK N   1       3.270   0.361   0.037  0.00  0.00     0.085 A 
HETATM   20  C   UNK N   1       2.750  -0.955  -0.037  0.00  0.00    -0.039 A 
HETATM   21  C   UNK N   1       3.616  -2.054  -0.055  0.00  0.00     0.008 A 
HETATM   22  C   UNK N   1       1.307  -1.224  -0.132  0.00  0.00     0.050 C 
HETATM   23  C   UNK N   1       4.994  -1.861   0.002  0.00  0.00     0.001 A 
HETATM   24  C   UNK N   1       5.511  -0.569   0.093  0.00  0.00     0.002 A 
HETATM   25  C   UNK N   1       4.653   0.533   0.104  0.00  0.00     0.026 A 
ENDBRANCH  16  19
ENDBRANCH  14  16
ENDBRANCH  11  14
BRANCH  12  26
HETATM   26  C   UNK N   1      -0.809   4.662   0.014  0.00  0.00     0.185 C 
HETATM   27  O   UNK N   1       0.185   5.219   0.451  0.00  0.00    -0.646 OA
BRANCH  26  28
HETATM   28  O   UNK N   1      -1.732   5.374  -0.661  0.00  0.00    -0.772 OA
HETATM   29  H   UNK N   1      -1.624   6.178  -1.130  0.00  0.00     0.167 HD
ENDBRANCH  26  28
ENDBRANCH  12  26
ENDBRANCH   5   9
TORSDOF 6
