REMARK  3 active torsions:
REMARK  status: ('A' for Active; 'I' for Inactive)
REMARK       I    between atoms: C_7  and  N_11 
REMARK       I    between atoms: C_10  and  N_18 
REMARK    1  A    between atoms: C_12  and  N_11 
REMARK    2  A    between atoms: C_12  and  C_15 
REMARK    3  A    between atoms: N_18  and  C_19 
ROOT
HETATM    1  C   UNK N   1      -2.007  -2.230   0.126  0.00  0.00     0.132 C 
HETATM    2  C   UNK N   1      -3.264  -2.775  -0.441  0.00  0.00     0.091 C 
HETATM    3  N   UNK N   1      -4.261  -3.163  -0.898  0.00  0.00    -0.195 NA
HETATM    4  C   UNK N   1      -1.979  -2.511   1.629  0.00  0.00     0.055 C 
ENDROOT
BRANCH   1   5
HETATM    5  N   UNK N   1      -1.991  -0.788  -0.081  0.00  0.00    -0.204 N 
HETATM    6  C   UNK N   1      -0.820  -0.001   0.107  0.00  0.00     0.696 A 
HETATM    7  N   UNK N   1       0.353  -0.604   0.429  0.00  0.00    -0.165 N 
HETATM    8  N   UNK N   1      -0.837   1.334  -0.168  0.00  0.00    -0.022 N 
HETATM    9  C   UNK N   1       1.503   0.100   0.474  0.00  0.00     0.208 A 
ATOM     10  HN  UNK N   1       0.364  -1.602   0.640  1.00  0.00     0.186 HD
HETATM   11  N   UNK N   1       1.494   1.420   0.178  0.00  0.00    -0.165 N 
HETATM   12 Cl   UNK N   1       3.013  -0.716   0.841  0.00  0.00    -0.044 Cl
HETATM   13  C   UNK N   1       0.326   2.046  -0.131  0.00  0.00     0.694 A 
ATOM     14  HN  UNK N   1       2.366   1.948   0.187  1.00  0.00     0.186 HD
HETATM   15  N   UNK N   1       0.340   3.414  -0.502  0.00  0.00    -0.226 N 
HETATM   16  H   UNK N   1      -0.492   3.939  -0.467  0.00  0.00     0.177 HD
ATOM     17  HN  UNK N   1      -1.715   1.798  -0.400  1.00  0.00     0.203 HD
HETATM   18  H   UNK N   1      -2.822  -0.341  -0.363  0.00  0.00     0.179 HD
BRANCH  15  19
HETATM   19  C   UNK N   1       1.572   4.042  -0.934  0.00  0.00     0.133 C 
HETATM   20  C   UNK N   1       2.256   4.768   0.212  0.00  0.00     0.027 C 
ENDBRANCH  15  19
ENDBRANCH   1   5
BRANCH   1  21
HETATM   21  C   UNK N   1      -0.817  -2.885  -0.623  0.00  0.00     0.042 C 
HETATM   22  C   UNK N   1      -0.080  -3.989   0.135  0.00  0.00     0.009 C 
ENDBRANCH   1  21
TORSDOF 3
