REMARK  9 active torsions:
REMARK  status: ('A' for Active; 'I' for Inactive)
REMARK    1  A    between atoms: C_6  and  N_7 
REMARK       I    between atoms: N_7  and  C_8 
REMARK    2  A    between atoms: C_8  and  C_10 
REMARK    3  A    between atoms: C_10  and  C_11 
REMARK    4  A    between atoms: C_11  and  C_12 
REMARK    5  A    between atoms: C_12  and  C_13 
REMARK    6  A    between atoms: C_13  and  C_14 
REMARK    7  A    between atoms: C_14  and  C_15 
REMARK    8  A    between atoms: C_15  and  C_16 
REMARK    9  A    between atoms: C_16  and  C_18 
ROOT
HETATM    1  C   UNK N   1      -1.078  -1.695   0.354  0.00  0.00     0.103 C 
ENDROOT
BRANCH   1   2
HETATM    2  C   UNK N   1      -2.090  -0.605   0.265  0.00  0.00     0.222 C 
HETATM    3  N   UNK N   1      -3.381  -0.927  -0.009  0.00  0.00    -0.327 N 
HETATM    4  H   UNK N   1      -3.577  -1.875  -0.185  0.00  0.00     0.169 HD
HETATM    5  O   UNK N   1      -1.760   0.550   0.503  0.00  0.00    -0.273 OA
BRANCH   3   6
HETATM    6  C   UNK N   1      -4.478  -0.020  -0.064  0.00  0.00     0.034 A 
HETATM    7  C   UNK N   1      -5.770  -0.537  -0.205  0.00  0.00     0.029 A 
HETATM    8  C   UNK N   1      -6.876   0.318  -0.236  0.00  0.00     0.002 A 
HETATM    9  C   UNK N   1      -6.695   1.699  -0.129  0.00  0.00     0.000 A 
HETATM   10  C   UNK N   1      -5.409   2.226   0.007  0.00  0.00     0.002 A 
HETATM   11  C   UNK N   1      -4.304   1.371   0.042  0.00  0.00     0.029 A 
ENDBRANCH   3   6
ENDBRANCH   1   2
BRANCH   1  12
HETATM   12  C   UNK N   1       0.161  -1.367  -0.452  0.00  0.00     0.009 C 
BRANCH  12  13
HETATM   13  C   UNK N   1       1.320  -1.195   0.511  0.00  0.00     0.000 C 
BRANCH  13  14
HETATM   14  C   UNK N   1       1.580   0.272   0.850  0.00  0.00     0.000 C 
BRANCH  14  15
HETATM   15  C   UNK N   1       2.138   1.091  -0.323  0.00  0.00     0.008 C 
BRANCH  15  16
HETATM   16  C   UNK N   1       3.082   0.319  -1.251  0.00  0.00     0.088 C 
BRANCH  16  17
HETATM   17  C   UNK N   1       4.194  -0.383  -0.526  0.00  0.00     0.232 C 
HETATM   18  O   UNK N   1       4.213  -1.604  -0.513  0.00  0.00    -0.288 OA
BRANCH  17  19
HETATM   19  C   UNK N   1       5.289   0.389   0.152  0.00  0.00     0.451 C 
HETATM   20  F   UNK N   1       5.953   1.158  -0.784  0.00  0.00    -0.163 F 
HETATM   21  F   UNK N   1       6.192  -0.478   0.743  0.00  0.00    -0.163 F 
HETATM   22  F   UNK N   1       4.759   1.212   1.127  0.00  0.00    -0.163 F 
ENDBRANCH  17  19
ENDBRANCH  16  17
ENDBRANCH  15  16
ENDBRANCH  14  15
ENDBRANCH  13  14
ENDBRANCH  12  13
ENDBRANCH   1  12
TORSDOF 9
