REMARK  3 active torsions:
REMARK  status: ('A' for Active; 'I' for Inactive)
REMARK       I    between atoms: C_9  and  N_10 
REMARK       I    between atoms: C_17  and  N_18 
REMARK    1  A    between atoms: N_18  and  C_19 
REMARK    2  A    between atoms: C_19  and  C_20 
REMARK    3  A    between atoms: C_20  and  N_21 
ROOT
HETATM    1  N   UNK N   1       0.422  -0.357  -0.111  0.00  0.00    -0.190 N 
ATOM      2  HN  UNK N   1      -0.066   0.533  -0.215  1.00  0.00     0.184 HD
HETATM    3  C   UNK N   1       1.743  -0.575  -0.027  0.00  0.00     0.077 A 
HETATM    4  C   UNK N   1       2.776   0.359  -0.071  0.00  0.00     0.052 A 
HETATM    5  C   UNK N   1       4.101  -0.133  -0.013  0.00  0.00     0.062 A 
HETATM    6  C   UNK N   1       5.212   0.719  -0.059  0.00  0.00     0.272 A 
HETATM    7  O   UNK N   1       5.068   1.928  -0.130  0.00  0.00    -0.267 OA
HETATM    8  N   UNK N   1       6.475   0.186  -0.031  0.00  0.00    -0.156 N 
HETATM    9  C   UNK N   1       6.672  -1.157   0.045  0.00  0.00     0.679 A 
HETATM   10  N   UNK N   1       7.982  -1.674   0.053  0.00  0.00    -0.234 N 
HETATM   11  N   UNK N   1       5.612  -2.004   0.108  0.00  0.00    -0.191 N 
ATOM     12  HN  UNK N   1       5.776  -3.009   0.174  1.00  0.00     0.184 HD
HETATM   13  C   UNK N   1       4.339  -1.536   0.084  0.00  0.00     0.067 A 
HETATM   14  C   UNK N   1       3.263  -2.438   0.146  0.00  0.00     0.063 A 
HETATM   15  C   UNK N   1       1.980  -1.911   0.091  0.00  0.00     0.078 A 
HETATM   16  N   UNK N   1       0.819  -2.580   0.106  0.00  0.00    -0.190 N 
HETATM   17  C   UNK N   1      -0.113  -1.605  -0.023  0.00  0.00     0.679 A 
HETATM   18  N   UNK N   1      -1.496  -1.879  -0.127  0.00  0.00    -0.224 N 
HETATM   19  H   UNK N   1       7.253   0.788  -0.066  0.00  0.00     0.187 HD
HETATM   20  H   UNK N   1       8.127  -2.648   0.059  0.00  0.00     0.174 HD
HETATM   21  H   UNK N   1       8.753  -1.062   0.053  0.00  0.00     0.174 HD
HETATM   22  H   UNK N   1       0.676  -3.550   0.192  0.00  0.00     0.184 HD
HETATM   23  H   UNK N   1      -1.851  -2.731   0.215  0.00  0.00     0.177 HD
ENDROOT
BRANCH  18  24
HETATM   24  C   UNK N   1      -2.388  -0.927  -0.729  0.00  0.00     0.168 C 
BRANCH  24  25
HETATM   25  C   UNK N   1      -3.100  -0.102   0.320  0.00  0.00     0.292 C 
BRANCH  25  26
HETATM   26  N   UNK N   1      -3.267   1.239  -0.210  0.00  0.00     0.094 N 
HETATM   27  C   UNK N   1      -4.522   1.797   0.288  0.00  0.00     0.298 C 
HETATM   28  C   UNK N   1      -4.618   3.256  -0.167  0.00  0.00     0.198 C 
HETATM   29  O   UNK N   1      -3.553   3.989   0.390  0.00  0.00    -0.388 OA
HETATM   30  C   UNK N   1      -2.367   3.501  -0.189  0.00  0.00     0.198 C 
HETATM   31  C   UNK N   1      -2.144   2.055   0.256  0.00  0.00     0.298 C 
ENDBRANCH  25  26
ENDBRANCH  24  25
ENDBRANCH  18  24
TORSDOF 3
