REMARK  13 active torsions:
REMARK  status: ('A' for Active; 'I' for Inactive)
REMARK    1  A    between atoms: C_1  and  C_4 
REMARK       I    between atoms: C_4  and  N_6 
REMARK    2  A    between atoms: C_7  and  N_6 
REMARK    3  A    between atoms: C_7  and  C_8 
REMARK    4  A    between atoms: C_7  and  C_9 
REMARK    5  A    between atoms: C_8  and  O_20 
REMARK    6  A    between atoms: C_9  and  O_10 
REMARK    7  A    between atoms: C_9  and  C_11 
REMARK    8  A    between atoms: C_14  and  N_15 
REMARK    9  A    between atoms: O_20  and  C_26 
REMARK   10  A    between atoms: C_22  and  O_23 
REMARK   11  A    between atoms: C_22  and  C_24 
REMARK   12  A    between atoms: C_24  and  C_25 
REMARK   13  A    between atoms: C_25  and  C_26 
ROOT
HETATM    1  C   UNK N   1      19.894  21.247   0.188  0.00  0.00     0.142 C 
ENDROOT
BRANCH   1   2
HETATM    2  N   UNK N   1      18.539  21.762   0.046  0.00  0.00    -0.349 N 
HETATM    3  C   UNK N   1      18.097  22.951   0.542  0.00  0.00     0.251 C 
HETATM    4  O   UNK N   1      18.858  23.697   1.138  0.00  0.00    -0.271 OA
HETATM    5  H   UNK N   1      17.892  21.208  -0.448  0.00  0.00     0.163 HD
BRANCH   3   6
HETATM    6  C   UNK N   1      16.652  23.350   0.401  0.00  0.00     0.269 C 
HETATM    7 Cl   UNK N   1      15.635  22.092  -0.354  0.00  0.00    -0.098 Cl
HETATM    8 Cl   UNK N   1      16.500  24.866  -0.522  0.00  0.00    -0.098 Cl
ENDBRANCH   3   6
ENDBRANCH   1   2
BRANCH   1   9
HETATM    9  C   UNK N   1      20.908  22.160  -0.521  0.00  0.00     0.206 C 
BRANCH   9  10
HETATM   10  O   UNK N   1      21.319  23.195   0.288  0.00  0.00    -0.319 OA
BRANCH  10  11
HETATM   11  C   UNK N   1      22.467  23.884   0.072  0.00  0.00     0.259 C 
HETATM   12  O   UNK N   1      22.734  24.836   0.788  0.00  0.00    -0.265 OA
BRANCH  11  13
HETATM   13  C   UNK N   1      23.417  23.519  -1.033  0.00  0.00     0.121 C 
BRANCH  13  14
HETATM   14  C   UNK N   1      24.337  22.386  -0.598  0.00  0.00     0.119 C 
BRANCH  14  15
HETATM   15  C   UNK N   1      25.721  22.859  -0.260  0.00  0.00     0.139 C 
HETATM   16  O   UNK N   1      26.556  22.052   0.114  0.00  0.00    -0.650 OA
BRANCH  15  17
HETATM   17  O   UNK N   1      26.056  24.159  -0.374  0.00  0.00    -0.776 OA
HETATM   18  H   UNK N   1      26.956  24.409  -0.453  0.00  0.00     0.167 HD
ENDBRANCH  15  17
ENDBRANCH  14  15
ENDBRANCH  13  14
ENDBRANCH  11  13
ENDBRANCH  10  11
ENDBRANCH   9  10
ENDBRANCH   1   9
BRANCH   1  19
HETATM   19  C   UNK N   1      19.957  19.828  -0.432  0.00  0.00     0.176 C 
BRANCH  19  20
HETATM   20  O   UNK N   1      18.940  19.041   0.122  0.00  0.00    -0.389 OA
HETATM   21  H   UNK N   1      18.115  19.379   0.505  0.00  0.00     0.210 HD
ENDBRANCH  19  20
BRANCH  19  22
HETATM   22  C   UNK N   1      21.304  19.144  -0.232  0.00  0.00    -0.028 A 
HETATM   23  C   UNK N   1      22.477  19.742  -0.710  0.00  0.00     0.012 A 
HETATM   24  C   UNK N   1      23.718  19.130  -0.533  0.00  0.00     0.037 A 
HETATM   25  C   UNK N   1      23.810  17.887   0.105  0.00  0.00     0.102 A 
HETATM   26  C   UNK N   1      22.639  17.270   0.570  0.00  0.00     0.037 A 
HETATM   27  C   UNK N   1      21.396  17.896   0.409  0.00  0.00     0.012 A 
BRANCH  25  28
HETATM   28  N   UNK N   1      25.076  17.260   0.274  0.00  0.00    -0.116 N 
HETATM   29  O   UNK N   1      25.154  16.058   0.805  0.00  0.00    -0.532 OA
HETATM   30  O   UNK N   1      26.074  17.814  -0.074  0.00  0.00    -0.532 OA
ENDBRANCH  25  28
ENDBRANCH  19  22
ENDBRANCH   1  19
TORSDOF 13
