REMARK  7 active torsions:
REMARK  status: ('A' for Active; 'I' for Inactive)
REMARK    1  A    between atoms: C_3  and  C_2 
REMARK       I    between atoms: C_2  and  N_10 
REMARK    2  A    between atoms: C_11  and  N_10 
REMARK    3  A    between atoms: C_11  and  C_12 
REMARK    4  A    between atoms: C_11  and  C_16 
REMARK    5  A    between atoms: C_12  and  C_13 
REMARK    6  A    between atoms: C_13  and  S_14 
REMARK       I    between atoms: C_16  and  N_18 
REMARK    7  A    between atoms: N_18  and  C_19 
ROOT
HETATM    1  C   UNK N   1     -10.457   0.109   0.390  0.00  0.00     0.177 C 
ENDROOT
BRANCH   1   2
HETATM    2  N   UNK N   1     -10.445  -1.337   0.477  0.00  0.00    -0.347 N 
HETATM    3  C   UNK N   1     -11.278  -2.129  -0.247  0.00  0.00     0.222 C 
HETATM    4  O   UNK N   1     -12.283  -1.662  -0.764  0.00  0.00    -0.273 OA
HETATM    5  H   UNK N   1      -9.804  -1.765   1.089  0.00  0.00     0.163 HD
BRANCH   3   6
HETATM    6  C   UNK N   1     -10.892  -3.556  -0.532  0.00  0.00     0.078 C 
HETATM    7  C   UNK N   1      -9.486  -3.880   0.003  0.00  0.00     0.014 C 
HETATM    8  C   UNK N   1      -9.191  -5.344  -0.267  0.00  0.00     0.005 C 
HETATM    9  C   UNK N   1     -10.116  -6.242   0.559  0.00  0.00    -0.019 C 
HETATM   10  C   UNK N   1     -10.413  -7.493  -0.243  0.00  0.00     0.010 C 
HETATM   11  C   UNK N   1     -11.425  -5.547   0.985  0.00  0.00     0.005 C 
HETATM   12  C   UNK N   1     -11.957  -4.570  -0.070  0.00  0.00     0.014 C 
ENDBRANCH   3   6
ENDBRANCH   1   2
BRANCH   1  13
HETATM   13  C   UNK N   1     -11.311   0.727   1.497  0.00  0.00     0.045 C 
BRANCH  13  14
HETATM   14  C   UNK N   1     -11.679   2.177   1.190  0.00  0.00     0.076 C 
BRANCH  14  15
HETATM   15  S   UNK N   1     -12.934   2.237  -0.132  0.00  0.00    -0.173 SA
HETATM   16  C   UNK N   1     -12.939   4.049  -0.180  0.00  0.00     0.089 C 
ENDBRANCH  14  15
ENDBRANCH  13  14
ENDBRANCH   1  13
BRANCH   1  17
HETATM   17  C   UNK N   1      -9.025   0.590   0.417  0.00  0.00     0.245 C 
HETATM   18  O   UNK N   1      -8.125  -0.206   0.642  0.00  0.00    -0.271 OA
HETATM   19  N   UNK N   1      -8.744   1.889   0.115  0.00  0.00    -0.325 N 
HETATM   20  H   UNK N   1      -9.507   2.492  -0.039  0.00  0.00     0.169 HD
BRANCH  19  21
HETATM   21  C   UNK N   1      -7.435   2.445   0.003  0.00  0.00     0.037 A 
HETATM   22  C   UNK N   1      -7.300   3.759  -0.448  0.00  0.00     0.046 A 
HETATM   23  C   UNK N   1      -6.026   4.312  -0.599  0.00  0.00     0.090 A 
HETATM   24  N   UNK N   1      -4.921   3.575  -0.307  0.00  0.00    -0.375 N 
HETATM   25  C   UNK N   1      -5.022   2.293   0.135  0.00  0.00     0.090 A 
ATOM     26  HN  UNK N   1      -3.997   3.992  -0.422  1.00  0.00     0.164 HD
HETATM   27  C   UNK N   1      -6.277   1.706   0.294  0.00  0.00     0.046 A 
ENDBRANCH  19  21
ENDBRANCH   1  17
TORSDOF 7
