REMARK  6 active torsions:
REMARK  status: ('A' for Active; 'I' for Inactive)
REMARK       I    between atoms: N_6  and  C_7 
REMARK    1  A    between atoms: C_7  and  C_9 
REMARK    2  A    between atoms: C_9  and  N_10 
REMARK    3  A    between atoms: C_13  and  C_14 
REMARK    4  A    between atoms: C_14  and  O_16 
REMARK    5  A    between atoms: C_20  and  C_21 
REMARK    6  A    between atoms: C_27  and  C_28 
ROOT
HETATM    1  N   UNK N   1       0.084   0.339  -0.002  0.00  0.00    -0.336 N 
HETATM    2  C   UNK N   1       1.332  -0.198  -0.008  0.00  0.00     0.047 A 
HETATM    3  C   UNK N   1       2.558   0.457   0.014  0.00  0.00     0.048 A 
HETATM    4  C   UNK N   1       3.745  -0.293  -0.009  0.00  0.00     0.040 A 
HETATM    5  C   UNK N   1       3.676  -1.703  -0.054  0.00  0.00     0.019 A 
HETATM    6  C   UNK N   1       2.429  -2.352  -0.085  0.00  0.00     0.015 A 
HETATM    7  C   UNK N   1       1.271  -1.570  -0.064  0.00  0.00    -0.000 A 
HETATM    8  C   UNK N   1      -0.069  -1.929  -0.104  0.00  0.00    -0.014 A 
HETATM    9  C   UNK N   1      -0.791  -0.716  -0.065  0.00  0.00     0.053 A 
ENDROOT
BRANCH   1  10
HETATM   10  C   UNK N   1      -0.373   1.747   0.015  0.00  0.00     0.232 C 
BRANCH  10  11
HETATM   11  C   UNK N   1       0.522   2.969   0.121  0.00  0.00     0.238 C 
HETATM   12  N   UNK N   1      -0.036   4.210   0.008  0.00  0.00    -0.347 N 
HETATM   13  C   UNK N   1      -1.481   4.330  -0.188  0.00  0.00     0.152 C 
HETATM   14  C   UNK N   1       0.818   5.391   0.124  0.00  0.00     0.152 C 
HETATM   15  C   UNK N   1      -1.936   5.777  -0.372  0.00  0.00     0.187 C 
HETATM   16  O   UNK N   1      -1.209   6.611   0.481  0.00  0.00    -0.388 OA
HETATM   17  C   UNK N   1       0.053   6.693  -0.114  0.00  0.00     0.187 C 
HETATM   18  O   UNK N   1       1.720   2.866   0.317  0.00  0.00    -0.272 OA
ENDBRANCH  10  11
ENDBRANCH   1  10
BRANCH   9  19
HETATM   19  C   UNK N   1      -2.295  -0.576  -0.113  0.00  0.00    -0.009 A 
HETATM   20  C   UNK N   1      -3.121  -1.688  -0.339  0.00  0.00     0.014 A 
HETATM   21  C   UNK N   1      -4.513  -1.558  -0.378  0.00  0.00     0.001 A 
HETATM   22  C   UNK N   1      -5.104  -0.308  -0.195  0.00  0.00     0.000 A 
HETATM   23  C   UNK N   1      -4.303   0.811   0.024  0.00  0.00     0.001 A 
HETATM   24  C   UNK N   1      -2.914   0.675   0.063  0.00  0.00     0.014 A 
ENDBRANCH   9  19
BRANCH   8  25
HETATM   25  C   UNK N   1      -0.645  -3.332  -0.203  0.00  0.00     0.022 C 
HETATM   26  C   UNK N   1       0.381  -4.443  -0.440  0.00  0.00     0.009 C 
HETATM   27  C   UNK N   1      -0.336  -5.767  -0.701  0.00  0.00     0.001 C 
HETATM   28  C   UNK N   1      -1.255  -6.125   0.466  0.00  0.00     0.000 C 
HETATM   29  C   UNK N   1      -2.241  -4.993   0.744  0.00  0.00     0.001 C 
HETATM   30  C   UNK N   1      -1.483  -3.697   1.023  0.00  0.00     0.009 C 
ENDBRANCH   8  25
BRANCH   4  31
HETATM   31  C   UNK N   1       5.045   0.406   0.008  0.00  0.00     0.176 C 
HETATM   32  O   UNK N   1       6.088  -0.228  -0.010  0.00  0.00    -0.646 OA
BRANCH  31  33
HETATM   33  O   UNK N   1       5.088   1.754   0.037  0.00  0.00    -0.773 OA
HETATM   34  H   UNK N   1       5.914   2.196   0.057  0.00  0.00     0.167 HD
ENDBRANCH  31  33
ENDBRANCH   4  31
TORSDOF 6
