REMARK  8 active torsions:
REMARK  status: ('A' for Active; 'I' for Inactive)
REMARK       I    between atoms: C_2  and  N_3 
REMARK    1  A    between atoms: C_2  and  O_11 
REMARK    2  A    between atoms: N_3  and  C_4 
REMARK    3  A    between atoms: O_11  and  C_12 
REMARK    4  A    between atoms: C_12  and  C_13 
REMARK    5  A    between atoms: C_13  and  C_14 
REMARK    6  A    between atoms: C_14  and  N_15 
REMARK    7  A    between atoms: N_15  and  S_16 
REMARK    8  A    between atoms: S_16  and  C_19 
ROOT
HETATM    1  C   UNK N   1     -10.375   1.805   0.148  0.00  0.00     0.047 C 
ENDROOT
BRANCH   1   2
HETATM    2  C   UNK N   1     -11.726   1.126   0.338  0.00  0.00     0.182 C 
BRANCH   2   3
HETATM    3  O   UNK N   1     -11.644  -0.182  -0.078  0.00  0.00    -0.304 OA
BRANCH   3   4
HETATM    4  C   UNK N   1     -12.703  -1.025  -0.148  0.00  0.00     0.365 C 
HETATM    5  O   UNK N   1     -12.503  -2.192  -0.429  0.00  0.00    -0.238 OA
HETATM    6  N   UNK N   1     -13.972  -0.562   0.067  0.00  0.00    -0.303 N 
HETATM    7  H   UNK N   1     -14.077   0.399   0.252  0.00  0.00     0.171 HD
BRANCH   6   8
HETATM    8  C   UNK N   1     -15.157  -1.360   0.045  0.00  0.00     0.039 A 
HETATM    9  C   UNK N   1     -15.114  -2.760  -0.029  0.00  0.00     0.046 A 
HETATM   10  C   UNK N   1     -16.303  -3.492  -0.037  0.00  0.00     0.090 A 
HETATM   11  N   UNK N   1     -17.499  -2.848   0.024  0.00  0.00    -0.375 N 
HETATM   12  C   UNK N   1     -17.570  -1.492   0.098  0.00  0.00     0.090 A 
ATOM     13  HN  UNK N   1     -18.361  -3.394   0.015  1.00  0.00     0.164 HD
HETATM   14  C   UNK N   1     -16.401  -0.726   0.113  0.00  0.00     0.046 A 
ENDBRANCH   6   8
ENDBRANCH   3   4
ENDBRANCH   2   3
ENDBRANCH   1   2
BRANCH   1  15
HETATM   15  C   UNK N   1      -9.269   1.047   0.873  0.00  0.00     0.134 C 
BRANCH  15  16
HETATM   16  N   UNK N   1      -8.201   0.721  -0.060  0.00  0.00    -0.315 N 
HETATM   17  H   UNK N   1      -7.728   1.379  -0.680  0.00  0.00     0.172 HD
BRANCH  16  18
HETATM   18  S   UNK N   1      -7.863  -1.014   0.065  0.00  0.00     0.258 S 
HETATM   19  O   UNK N   1      -9.126  -1.826  -0.258  0.00  0.00    -0.201 OA
HETATM   20  O   UNK N   1      -7.571  -0.959  -1.440  0.00  0.00    -0.201 OA
BRANCH  18  21
HETATM   21  C   UNK N   1      -6.305  -1.901   0.145  0.00  0.00     0.079 A 
HETATM   22  C   UNK N   1      -5.102  -1.236   0.417  0.00  0.00     0.026 A 
HETATM   23  C   UNK N   1      -3.892  -1.943   0.387  0.00  0.00     0.008 A 
HETATM   24  C   UNK N   1      -3.885  -3.309   0.079  0.00  0.00    -0.062 A 
HETATM   25  C   UNK N   1      -2.602  -4.058   0.020  0.00  0.00     0.048 C 
HETATM   26  C   UNK N   1      -5.085  -3.972  -0.184  0.00  0.00     0.008 A 
HETATM   27  C   UNK N   1      -6.290  -3.270  -0.152  0.00  0.00     0.026 A 
ENDBRANCH  18  21
ENDBRANCH  16  18
ENDBRANCH  15  16
ENDBRANCH   1  15
TORSDOF 8
