REMARK  10 active torsions:
REMARK  status: ('A' for Active; 'I' for Inactive)
REMARK    1  A    between atoms: C_1  and  C_10 
REMARK    2  A    between atoms: C_1  and  O_19 
REMARK    3  A    between atoms: C_4  and  N_2 
REMARK    4  A    between atoms: C_5  and  C_4 
REMARK    5  A    between atoms: C_7  and  C_4 
REMARK    6  A    between atoms: C_6  and  C_5 
REMARK    7  A    between atoms: C_7  and  O_8 
REMARK    8  A    between atoms: C_7  and  C_12 
REMARK    9  A    between atoms: C_10  and  C_12 
REMARK   10  A    between atoms: C_10  and  C_11 
ROOT
HETATM    1  C   UNK N   1       0.585   0.125  -0.610  0.00  0.00     0.141 C 
ENDROOT
BRANCH   1   2
HETATM    2  C   UNK N   1      -0.030  -0.440   0.685  0.00  0.00     0.103 C 
BRANCH   2   3
HETATM    3  N   UNK N   1      -0.634  -1.742   0.432  0.00  0.00    -0.424 N 
HETATM    4  H   UNK N   1      -1.634  -1.831   0.255  0.00  0.00     0.150 HD
HETATM    5  H   UNK N   1      -0.047  -2.576   0.432  0.00  0.00     0.150 HD
ENDBRANCH   2   3
BRANCH   2   6
HETATM    6  C   UNK N   1      -1.086   0.516   1.255  0.00  0.00     0.031 C 
BRANCH   6   7
HETATM    7  C   UNK N   1      -2.339   0.560   0.392  0.00  0.00    -0.013 C 
HETATM    8  C   UNK N   1      -3.409  -0.353   0.984  0.00  0.00     0.005 C 
HETATM    9  C   UNK N   1      -4.634  -0.367   0.076  0.00  0.00     0.000 C 
HETATM   10  C   UNK N   1      -5.174   1.050  -0.110  0.00  0.00     0.000 C 
HETATM   11  C   UNK N   1      -4.089   1.974  -0.661  0.00  0.00     0.000 C 
HETATM   12  C   UNK N   1      -2.876   1.979   0.268  0.00  0.00     0.005 C 
ENDBRANCH   6   7
ENDBRANCH   2   6
ENDBRANCH   1   2
BRANCH   1  13
HETATM   13  O   UNK N   1       1.078   1.415  -0.401  0.00  0.00    -0.394 OA
HETATM   14  H   UNK N   1       2.025   1.566  -0.255  0.00  0.00     0.210 HD
ENDBRANCH   1  13
BRANCH   1  15
HETATM   15  C   UNK N   1       1.675  -0.760  -1.250  0.00  0.00     0.049 C 
BRANCH  15  16
HETATM   16  C   UNK N   1       3.029  -1.040  -0.548  0.00  0.00     0.089 C 
BRANCH  16  17
HETATM   17  C   UNK N   1       2.985  -2.187   0.444  0.00  0.00     0.144 C 
HETATM   18  O   UNK N   1       4.005  -2.541   1.011  0.00  0.00    -0.650 OA
BRANCH  17  19
HETATM   19  O   UNK N   1       1.844  -2.866   0.667  0.00  0.00    -0.776 OA
HETATM   20  H   UNK N   1       1.038  -2.414   0.822  0.00  0.00     0.167 HD
ENDBRANCH  17  19
ENDBRANCH  16  17
BRANCH  16  21
HETATM   21  C   UNK N   1       3.714   0.232   0.011  0.00  0.00    -0.009 C 
HETATM   22  C   UNK N   1       3.163   0.682   1.356  0.00  0.00     0.010 C 
HETATM   23  C   UNK N   1       5.218   0.050   0.150  0.00  0.00     0.010 C 
ENDBRANCH  16  21
ENDBRANCH  15  16
ENDBRANCH   1  15
TORSDOF 10
