REMARK  8 active torsions:
REMARK  status: ('A' for Active; 'I' for Inactive)
REMARK    1  A    between atoms: C_4  and  C_25 
REMARK       I    between atoms: C_5  and  N_6 
REMARK       I    between atoms: C_5  and  N_12 
REMARK    2  A    between atoms: N_6  and  C_7 
REMARK    3  A    between atoms: C_13  and  N_12 
REMARK    4  A    between atoms: C_13  and  C_14 
REMARK    5  A    between atoms: C_13  and  C_17 
REMARK       I    between atoms: C_17  and  N_19 
REMARK    6  A    between atoms: C_20  and  C_27 
REMARK    7  A    between atoms: C_21  and  N_24 
REMARK       I    between atoms: N_24  and  C_25 
REMARK    8  A    between atoms: C_27  and  C_28 
ROOT
HETATM    1  C   UNK N   1       0.582   1.412  -0.254  0.00  0.00     0.243 C 
HETATM    2  O   UNK N   1       1.195   1.980   0.639  0.00  0.00    -0.271 OA
HETATM    3  N   UNK N   1       0.827   0.089  -0.521  0.00  0.00    -0.342 N 
HETATM    4  C   UNK N   1       1.642  -0.758   0.334  0.00  0.00     0.125 C 
HETATM    5  C   UNK N   1       1.296  -2.183  -0.150  0.00  0.00     0.110 C 
HETATM    6  C   UNK N   1      -0.027  -2.035  -0.890  0.00  0.00     0.047 C 
HETATM    7  C   UNK N   1       0.046  -0.642  -1.481  0.00  0.00     0.128 C 
ENDROOT
BRANCH   1   8
HETATM    8  C   UNK N   1      -0.523   2.173  -0.984  0.00  0.00     0.181 C 
BRANCH   8   9
HETATM    9  N   UNK N   1      -1.824   1.556  -0.745  0.00  0.00    -0.330 N 
HETATM   10  C   UNK N   1      -2.318   1.208   0.483  0.00  0.00     0.317 C 
HETATM   11  O   UNK N   1      -1.627   1.312   1.484  0.00  0.00    -0.247 OA
HETATM   12  N   UNK N   1      -3.582   0.733   0.606  0.00  0.00    -0.339 N 
HETATM   13  H   UNK N   1      -3.895   0.458   1.498  0.00  0.00     0.164 HD
HETATM   14  H   UNK N   1      -2.392   1.377  -1.529  0.00  0.00     0.165 HD
BRANCH  12  15
HETATM   15  C   UNK N   1      -4.491   0.613  -0.512  0.00  0.00     0.086 C 
HETATM   16  C   UNK N   1      -5.807   0.038  -0.027  0.00  0.00     0.025 C 
HETATM   17  C   UNK N   1      -6.673   1.221   0.383  0.00  0.00     0.002 C 
HETATM   18  C   UNK N   1      -5.966   2.472  -0.108  0.00  0.00     0.002 C 
HETATM   19  C   UNK N   1      -4.869   1.987  -1.031  0.00  0.00     0.025 C 
ENDBRANCH  12  15
ENDBRANCH   8   9
BRANCH   8  20
HETATM   20  C   UNK N   1      -0.596   3.688  -0.665  0.00  0.00     0.009 C 
HETATM   21  C   UNK N   1       0.661   4.424  -1.097  0.00  0.00     0.012 C 
HETATM   22  C   UNK N   1      -0.909   4.023   0.785  0.00  0.00     0.012 C 
ENDBRANCH   8  20
ENDBRANCH   1   8
BRANCH   4  23
HETATM   23  C   UNK N   1       3.191  -0.505   0.301  0.00  0.00     0.035 A 
HETATM   24  C   UNK N   1       3.656   0.926   0.469  0.00  0.00     0.019 A 
HETATM   25  C   UNK N   1       4.297   0.878  -0.908  0.00  0.00     0.002 A 
HETATM   26  C   UNK N   1       3.803  -0.545  -1.091  0.00  0.00     0.019 A 
BRANCH  23  27
HETATM   27  C   UNK N   1       3.959  -1.365   1.269  0.00  0.00     0.242 C 
HETATM   28  O   UNK N   1       3.975  -2.581   1.166  0.00  0.00    -0.306 OA
ENDBRANCH  23  27
ENDBRANCH   4  23
BRANCH   5  29
HETATM   29  N   UNK N   1       1.151  -3.088   0.973  0.00  0.00    -0.354 N 
HETATM   30  C   UNK N   1       1.014  -4.437   0.882  0.00  0.00     0.222 C 
HETATM   31  O   UNK N   1       0.719  -5.067   1.885  0.00  0.00    -0.273 OA
HETATM   32  H   UNK N   1       1.151  -2.693   1.875  0.00  0.00     0.162 HD
BRANCH  30  33
HETATM   33  C   UNK N   1       1.209  -5.178  -0.414  0.00  0.00     0.078 A 
HETATM   34  C   UNK N   1       2.656  -5.054  -0.874  0.00  0.00     0.015 A 
HETATM   35  C   UNK N   1       2.193  -6.322  -0.207  0.00  0.00     0.015 A 
ENDBRANCH  30  33
ENDBRANCH   5  29
TORSDOF 8
