REMARK  3 active torsions:
REMARK  status: ('A' for Active; 'I' for Inactive)
REMARK    1  A    between atoms: N_1  and  C_2 
REMARK    2  A    between atoms: N_1  and  C_18 
REMARK    3  A    between atoms: C_15  and  C_16 
ROOT
HETATM    1  C   UNK N   1       1.352   0.516  -0.015  0.00  0.00     0.047 A 
HETATM    2  C   UNK N   1       2.633  -0.054  -0.017  0.00  0.00     0.030 A 
HETATM    3  C   UNK N   1       3.767   0.764  -0.012  0.00  0.00     0.002 A 
HETATM    4  C   UNK N   1       3.628   2.154  -0.005  0.00  0.00     0.001 A 
HETATM    5  C   UNK N   1       1.209   1.923  -0.007  0.00  0.00     0.036 A 
HETATM    6  C   UNK N   1       2.355   2.731  -0.002  0.00  0.00     0.017 A 
ENDROOT
BRANCH   1   7
HETATM    7  N   UNK N   1       0.180  -0.284  -0.021  0.00  0.00    -0.341 N 
HETATM    8  H   UNK N   1      -0.667   0.219  -0.042  0.00  0.00     0.167 HD
BRANCH   7   9
HETATM    9  C   UNK N   1       0.040  -1.690  -0.000  0.00  0.00     0.120 A 
HETATM   10  C   UNK N   1      -1.231  -2.236  -0.013  0.00  0.00     0.053 A 
HETATM   11  C   UNK N   1      -2.478  -1.657  -0.048  0.00  0.00     0.036 A 
HETATM   12  C   UNK N   1      -1.395  -3.573   0.011  0.00  0.00     0.120 A 
HETATM   13  C   UNK N   1      -3.371  -2.731  -0.042  0.00  0.00     0.091 A 
HETATM   14  N   UNK N   1      -2.693  -3.908  -0.006  0.00  0.00    -0.351 N 
HETATM   15  H   UNK N   1      -3.075  -4.815   0.006  0.00  0.00     0.166 HD
HETATM   16  N   UNK N   1      -0.345  -4.427   0.049  0.00  0.00    -0.338 N 
HETATM   17  C   UNK N   1       0.920  -3.901   0.062  0.00  0.00     0.183 A 
ATOM     18  HN  UNK N   1      -0.491  -5.437   0.067  1.00  0.00     0.168 HD
HETATM   19  N   UNK N   1       1.110  -2.539   0.038  0.00  0.00    -0.338 N 
ATOM     20  HN  UNK N   1       2.057  -2.160   0.049  1.00  0.00     0.168 HD
ENDBRANCH   7   9
ENDBRANCH   1   7
BRANCH   5  21
HETATM   21  C   UNK N   1      -0.135   2.561  -0.002  0.00  0.00     0.134 A 
HETATM   22  N   UNK N   1      -1.301   1.881  -0.004  0.00  0.00    -0.330 N 
HETATM   23  C   UNK N   1      -2.224   2.852   0.005  0.00  0.00     0.093 A 
HETATM   24  H   UNK N   1      -1.439   0.906  -0.011  0.00  0.00     0.168 HD
HETATM   25  C   UNK N   1      -3.691   2.600   0.007  0.00  0.00     0.090 C 
HETATM   26  N   UNK N   1      -1.661   4.072   0.014  0.00  0.00    -0.288 N 
HETATM   27  N   UNK N   1      -0.348   3.890   0.009  0.00  0.00    -0.283 N 
ATOM     28  HN  UNK N   1      -2.151   4.967   0.022  1.00  0.00     0.188 HD
ATOM     29  HN  UNK N   1       0.366   4.619   0.013  1.00  0.00     0.188 HD
ENDBRANCH   5  21
TORSDOF 3
