REMARK  1 active torsions:
REMARK  status: ('A' for Active; 'I' for Inactive)
REMARK    1  A    between atoms: C_12  and  N_15 
ROOT
HETATM    1  C   UNK N   1       2.686  -2.066   0.000  0.00  0.00     0.121 A 
HETATM    2  C   UNK N   1       3.699   0.033  -0.000  0.00  0.00     0.183 A 
HETATM    3  C   UNK N   1       1.416  -1.528   0.000  0.00  0.00     0.075 A 
HETATM    4  N   UNK N   1       2.675  -3.405   0.000  0.00  0.00    -0.350 N 
HETATM    5 Cl   UNK N   1      -1.180  -2.871   0.000  0.00  0.00    -0.082 Cl
HETATM    6  C   UNK N   1       0.564  -2.652   0.000  0.00  0.00     0.067 A 
HETATM    7  C   UNK N   1       1.381  -3.773   0.000  0.00  0.00     0.114 A 
HETATM    8  N   UNK N   1       3.810  -1.318  -0.000  0.00  0.00    -0.338 N 
ATOM      9  HN  UNK N   1       4.728  -1.763  -0.000  1.00  0.00     0.168 HD
HETATM   10  C   UNK N   1       1.302  -0.095  -0.000  0.00  0.00     0.120 A 
HETATM   11  N   UNK N   1       2.470   0.621  -0.000  0.00  0.00    -0.338 N 
ATOM     12  HN  UNK N   1       2.418   1.640  -0.000  1.00  0.00     0.168 HD
HETATM   13  H   UNK N   1       3.459  -4.002   0.000  0.00  0.00     0.166 HD
ENDROOT
BRANCH  10  14
HETATM   14  N   UNK N   1       0.068   0.642  -0.000  0.00  0.00    -0.360 N 
HETATM   15  C   UNK N   1      -1.195  -0.066  -0.000  0.00  0.00     0.183 A 
HETATM   16  C   UNK N   1      -2.392   0.793  -0.000  0.00  0.00     0.051 A 
HETATM   17  C   UNK N   1      -2.371   2.136  -0.000  0.00  0.00     0.036 A 
HETATM   18  N   UNK N   1      -3.662   0.362  -0.000  0.00  0.00    -0.353 N 
HETATM   19  C   UNK N   1      -1.136   2.949  -0.000  0.00  0.00     0.079 A 
HETATM   20  N   UNK N   1      -3.629   2.602  -0.000  0.00  0.00    -0.354 N 
HETATM   21  C   UNK N   1       0.161   2.112  -0.000  0.00  0.00     0.131 A 
HETATM   22  C   UNK N   1      -4.405   1.492  -0.000  0.00  0.00     0.181 A 
HETATM   23  H   UNK N   1      -3.923   3.542  -0.000  0.00  0.00     0.166 HD
ATOM     24  HN  UNK N   1      -3.993  -0.603   0.000  1.00  0.00     0.166 HD
ENDBRANCH  10  14
TORSDOF 1
