REMARK  6 active torsions:
REMARK  status: ('A' for Active; 'I' for Inactive)
REMARK    1  A    between atoms: C_9  and  C_10 
REMARK    2  A    between atoms: C_11  and  C_12 
REMARK    3  A    between atoms: C_12  and  O_14 
REMARK    4  A    between atoms: C_16  and  C_17 
REMARK    5  A    between atoms: C_17  and  O_19 
REMARK    6  A    between atoms: C_20  and  C_21 
ROOT
HETATM    1  C   UNK N   1      -0.451   0.599  -0.264  0.00  0.00     0.024 A 
HETATM    2  C   UNK N   1      -0.431   1.990  -0.387  0.00  0.00     0.119 A 
HETATM    3  N   UNK N   1       0.825   2.448  -0.231  0.00  0.00    -0.344 N 
HETATM    4  C   UNK N   1       1.628   1.390  -0.016  0.00  0.00     0.119 A 
HETATM    5  C   UNK N   1       0.875   0.203  -0.029  0.00  0.00     0.024 A 
HETATM    6  H   UNK N   1       1.107   3.390  -0.268  0.00  0.00     0.166 HD
ENDROOT
BRANCH   1   7
HETATM    7  C   UNK N   1      -1.623  -0.315  -0.398  0.00  0.00     0.005 A 
HETATM    8  C   UNK N   1      -2.922  -0.155   0.050  0.00  0.00     0.003 A 
HETATM    9  C   UNK N   1      -3.608  -1.278  -0.328  0.00  0.00     0.043 A 
HETATM   10  C   UNK N   1      -3.539   0.854   0.790  0.00  0.00     0.014 A 
HETATM   11  C   UNK N   1      -4.955  -1.460  -0.027  0.00  0.00     0.030 A 
HETATM   12  N   UNK N   1      -2.813  -2.138  -0.983  0.00  0.00    -0.364 N 
HETATM   13  C   UNK N   1      -5.608  -0.447   0.697  0.00  0.00     0.002 A 
HETATM   14  C   UNK N   1      -4.901   0.704   1.108  0.00  0.00     0.001 A 
HETATM   15  C   UNK N   1      -1.588  -1.561  -1.026  0.00  0.00     0.101 A 
HETATM   16  H   UNK N   1      -3.068  -3.012  -1.357  0.00  0.00     0.165 HD
ENDBRANCH   1   7
BRANCH   2  17
HETATM   17  C   UNK N   1      -1.530   2.920  -0.728  0.00  0.00     0.194 C 
HETATM   18  O   UNK N   1      -1.344   4.123  -0.654  0.00  0.00    -0.645 OA
BRANCH  17  19
HETATM   19  O   UNK N   1      -2.702   2.470  -1.209  0.00  0.00    -0.772 OA
HETATM   20  H   UNK N   1      -3.383   3.020  -1.543  0.00  0.00     0.167 HD
ENDBRANCH  17  19
ENDBRANCH   2  17
BRANCH   5  21
HETATM   21  C   UNK N   1       1.304  -1.207   0.253  0.00  0.00     0.005 A 
HETATM   22  C   UNK N   1       2.475  -1.898  -0.031  0.00  0.00     0.003 A 
HETATM   23  C   UNK N   1       3.634  -1.552  -0.728  0.00  0.00     0.014 A 
HETATM   24  C   UNK N   1       2.324  -3.157   0.492  0.00  0.00     0.043 A 
HETATM   25  C   UNK N   1       4.654  -2.515  -0.846  0.00  0.00     0.001 A 
HETATM   26  C   UNK N   1       4.494  -3.800  -0.284  0.00  0.00     0.002 A 
HETATM   27  C   UNK N   1       3.309  -4.134   0.390  0.00  0.00     0.030 A 
HETATM   28  N   UNK N   1       1.128  -3.301   1.080  0.00  0.00    -0.364 N 
HETATM   29  C   UNK N   1       0.493  -2.116   0.936  0.00  0.00     0.101 A 
HETATM   30  H   UNK N   1       0.781  -4.107   1.527  0.00  0.00     0.165 HD
ENDBRANCH   5  21
BRANCH   4  31
HETATM   31  C   UNK N   1       3.061   1.612   0.281  0.00  0.00     0.194 C 
HETATM   32  O   UNK N   1       3.781   0.709   0.657  0.00  0.00    -0.645 OA
BRANCH  31  33
HETATM   33  O   UNK N   1       3.560   2.861   0.204  0.00  0.00    -0.772 OA
HETATM   34  H   UNK N   1       4.486   2.995   0.150  0.00  0.00     0.167 HD
ENDBRANCH  31  33
ENDBRANCH   4  31
TORSDOF 6
