REMARK  2 active torsions:
REMARK  status: ('A' for Active; 'I' for Inactive)
REMARK    1  A    between atoms: C_22  and  C_23 
REMARK    2  A    between atoms: C_29  and  C_30 
ROOT
HETATM    1  C   UNK N   1      -1.394  -0.013   0.000  0.00  0.00     0.411 A 
HETATM    2  C   UNK N   1      -1.299  -0.833   0.000  0.00  0.00     0.219 A 
HETATM    3  N   UNK N   1      -0.542  -1.160   0.000  0.00  0.00    -0.393 N 
HETATM    4  C   UNK N   1      -1.962  -1.324   0.000  0.00  0.00    -0.027 A 
HETATM    5  F   UNK N   1      -0.574   0.082   0.000  0.00  0.00    -0.168 F 
HETATM    6  F   UNK N   1      -2.213  -0.108   0.000  0.00  0.00    -0.168 F 
HETATM    7  F   UNK N   1      -1.488   0.807   0.000  0.00  0.00    -0.168 F 
HETATM    8  C   UNK N   1       0.120  -0.669   0.000  0.00  0.00     0.184 A 
HETATM    9  C   UNK N   1       0.026   0.151   0.000  0.00  0.00     0.241 A 
HETATM   10  C   UNK N   1       0.877  -0.997   0.000  0.00  0.00     0.175 A 
HETATM   11  S   UNK N   1       1.540  -0.505   0.000  0.00  0.00     0.150 SA
HETATM   12  C   UNK N   1       2.202  -0.013   0.000  0.00  0.00     0.178 A 
HETATM   13  N   UNK N   1      -0.731   0.479   0.000  0.00  0.00    -0.348 N 
HETATM   14  O   UNK N   1       0.688   0.643   0.000  0.00  0.00    -0.271 OA
HETATM   15  C   UNK N   1      -0.826   1.298   0.000  0.00  0.00     0.048 A 
HETATM   16  N   UNK N   1      -2.019   2.085   0.000  0.00  0.00    -0.428 N 
HETATM   17  C   UNK N   1      -0.635   2.101   0.000  0.00  0.00     0.035 A 
HETATM   18  C   UNK N   1      -0.035   1.534   0.000  0.00  0.00     0.035 A 
HETATM   19  C   UNK N   1      -1.867  -2.144   0.000  0.00  0.00     0.012 A 
HETATM   20  C   UNK N   1      -2.529  -2.636   0.000  0.00  0.00     0.037 A 
HETATM   21  C   UNK N   1      -3.286  -2.308   0.000  0.00  0.00     0.065 A 
HETATM   22  C   UNK N   1      -3.381  -1.488   0.000  0.00  0.00     0.037 A 
HETATM   23  C   UNK N   1      -2.719  -0.997   0.000  0.00  0.00     0.012 A 
HETATM   24  O   UNK N   1      -3.949  -2.800   0.000  0.00  0.00    -0.361 OA
HETATM   25  C   UNK N   1       2.959  -0.341   0.000  0.00  0.00    -0.044 A 
HETATM   26  C   UNK N   1       3.622   0.151   0.000  0.00  0.00     0.008 A 
HETATM   27  C   UNK N   1       4.379  -0.177   0.000  0.00  0.00     0.001 A 
HETATM   28  C   UNK N   1       4.474  -0.997   0.000  0.00  0.00     0.000 A 
HETATM   29  C   UNK N   1       3.811  -1.488   0.000  0.00  0.00     0.001 A 
HETATM   30  C   UNK N   1       3.054  -1.160   0.000  0.00  0.00     0.008 A 
HETATM   31  O   UNK N   1       2.032  -1.167   0.000  0.00  0.00    -0.228 OA
HETATM   32  O   UNK N   1       1.048   0.158   0.000  0.00  0.00    -0.228 OA
HETATM   33  C   UNK N   1      -1.649   1.347   0.000  0.00  0.00     0.142 A 
HETATM   34  H   UNK N   1      -0.425  -2.174   0.000  0.00  0.00     0.155 HD
HETATM   35  H   UNK N   1      -1.522  -0.108   0.000  0.00  0.00     0.163 HD
HETATM   36  H   UNK N   1      -1.457   2.937   0.000  0.00  0.00     0.150 HD
HETATM   37  H   UNK N   1      -3.037   2.146   0.000  0.00  0.00     0.150 HD
HETATM   38  H   UNK N   1      -4.809  -2.427   0.000  0.00  0.00     0.217 HD
ENDROOT
TORSDOF 2
