REMARK  10 active torsions:
REMARK  status: ('A' for Active; 'I' for Inactive)
REMARK    1  A    between atoms: C_2  and  C_3 
REMARK    2  A    between atoms: C_3  and  C_4 
REMARK    3  A    between atoms: C_4  and  C_22 
REMARK       I    between atoms: N_6  and  C_7 
REMARK    4  A    between atoms: C_22  and  N_6 
REMARK    5  A    between atoms: C_7  and  O_9 
REMARK    6  A    between atoms: C_10  and  O_9 
REMARK    7  A    between atoms: C_10  and  C_11 
REMARK    8  A    between atoms: C_10  and  C_18 
REMARK    9  A    between atoms: C_11  and  C_12 
REMARK   10  A    between atoms: C_21  and  C_22 
ROOT
HETATM    1  O   UNK N   1       0.036   1.113  -0.466  0.00  0.00    -0.298 OA
ENDROOT
BRANCH   1   2
HETATM    2  C   UNK N   1      -1.114   0.785   0.185  0.00  0.00     0.361 C 
HETATM    3  N   UNK N   1      -2.302   0.959  -0.450  0.00  0.00    -0.326 N 
HETATM    4  H   UNK N   1      -2.303   1.431  -1.314  0.00  0.00     0.165 HD
HETATM    5  O   UNK N   1      -1.078   0.301   1.308  0.00  0.00    -0.238 OA
BRANCH   3   6
HETATM    6  C   UNK N   1      -3.572   0.486   0.074  0.00  0.00     0.148 C 
BRANCH   6   7
HETATM    7  C   UNK N   1      -4.681   1.002  -0.859  0.00  0.00     0.032 C 
BRANCH   7   8
HETATM    8  C   UNK N   1      -5.929   0.123  -0.993  0.00  0.00     0.002 C 
BRANCH   8   9
HETATM    9  C   UNK N   1      -6.587  -0.186   0.337  0.00  0.00    -0.004 C 
HETATM   10  C   UNK N   1      -7.264  -1.538   0.236  0.00  0.00     0.005 C 
ENDBRANCH   8   9
ENDBRANCH   7   8
ENDBRANCH   6   7
BRANCH   6  11
HETATM   11  C   UNK N   1      -3.591  -1.026   0.167  0.00  0.00     0.256 C 
HETATM   12  O   UNK N   1      -2.652  -1.710  -0.207  0.00  0.00    -0.305 OA
ENDBRANCH   6  11
ENDBRANCH   3   6
ENDBRANCH   1   2
BRANCH   1  13
HETATM   13  C   UNK N   1       1.311   0.737  -0.063  0.00  0.00     0.141 C 
BRANCH  13  14
HETATM   14  C   UNK N   1       2.274   1.647  -0.849  0.00  0.00     0.071 C 
BRANCH  14  15
HETATM   15  C   UNK N   1       3.712   1.694  -0.423  0.00  0.00    -0.056 A 
HETATM   16  C   UNK N   1       4.213   2.867   0.153  0.00  0.00     0.007 A 
HETATM   17  C   UNK N   1       5.563   2.956   0.510  0.00  0.00     0.001 A 
HETATM   18  C   UNK N   1       6.419   1.874   0.284  0.00  0.00     0.000 A 
HETATM   19  C   UNK N   1       5.928   0.709  -0.310  0.00  0.00     0.001 A 
HETATM   20  C   UNK N   1       4.581   0.626  -0.675  0.00  0.00     0.007 A 
ENDBRANCH  14  15
ENDBRANCH  13  14
BRANCH  13  21
HETATM   21  C   UNK N   1       1.579  -0.766  -0.380  0.00  0.00     0.007 C 
HETATM   22  C   UNK N   1       2.753  -1.311   0.411  0.00  0.00     0.012 C 
HETATM   23  C   UNK N   1       0.419  -1.705  -0.105  0.00  0.00     0.012 C 
ENDBRANCH  13  21
ENDBRANCH   1  13
TORSDOF 10
