REMARK  9 active torsions:
REMARK  status: ('A' for Active; 'I' for Inactive)
REMARK    1  A    between atoms: C_2  and  C_3 
REMARK    2  A    between atoms: C_3  and  C_4 
REMARK    3  A    between atoms: C_4  and  C_5 
REMARK    4  A    between atoms: C_5  and  N_6 
REMARK    5  A    between atoms: C_5  and  C_22 
REMARK       I    between atoms: N_6  and  C_7 
REMARK    6  A    between atoms: C_7  and  O_9 
REMARK    7  A    between atoms: O_9  and  C_10 
REMARK    8  A    between atoms: C_10  and  C_11 
REMARK    9  A    between atoms: C_11  and  C_12 
ROOT
HETATM    1  C   UNK N   1       1.041  -0.016   0.394  0.00  0.00     0.076 C 
HETATM    2  C   UNK N   1       1.573   1.105  -0.504  0.00  0.00     0.039 C 
HETATM    3  C   UNK N   1       2.179   2.160   0.405  0.00  0.00     0.003 C 
HETATM    4  C   UNK N   1       2.379   1.481   1.740  0.00  0.00     0.003 C 
HETATM    5  C   UNK N   1       1.263   0.463   1.818  0.00  0.00     0.039 C 
ENDROOT
BRANCH   1   6
HETATM    6  O   UNK N   1      -0.323  -0.176   0.165  0.00  0.00    -0.292 OA
BRANCH   6   7
HETATM    7  C   UNK N   1      -0.841  -0.607  -1.026  0.00  0.00     0.362 C 
HETATM    8  N   UNK N   1      -2.166  -0.524  -1.299  0.00  0.00    -0.326 N 
HETATM    9  H   UNK N   1      -2.450  -0.822  -2.193  0.00  0.00     0.165 HD
HETATM   10  O   UNK N   1      -0.096  -1.033  -1.901  0.00  0.00    -0.238 OA
BRANCH   8  11
HETATM   11  C   UNK N   1      -3.210  -0.042  -0.415  0.00  0.00     0.148 C 
BRANCH  11  12
HETATM   12  C   UNK N   1      -3.623  -1.123   0.582  0.00  0.00     0.032 C 
BRANCH  12  13
HETATM   13  C   UNK N   1      -4.929  -0.778   1.304  0.00  0.00     0.002 C 
BRANCH  13  14
HETATM   14  C   UNK N   1      -6.140  -0.953   0.394  0.00  0.00    -0.004 C 
HETATM   15  C   UNK N   1      -6.577   0.384  -0.180  0.00  0.00     0.005 C 
ENDBRANCH  13  14
ENDBRANCH  12  13
ENDBRANCH  11  12
BRANCH  11  16
HETATM   16  C   UNK N   1      -2.825   1.231   0.280  0.00  0.00     0.256 C 
HETATM   17  O   UNK N   1      -2.503   2.215  -0.365  0.00  0.00    -0.305 OA
ENDBRANCH  11  16
ENDBRANCH   8  11
ENDBRANCH   6   7
ENDBRANCH   1   6
BRANCH   1  18
HETATM   18  C   UNK N   1       1.747  -1.371   0.146  0.00  0.00     0.077 C 
BRANCH  18  19
HETATM   19  C   UNK N   1       3.241  -1.446   0.047  0.00  0.00    -0.055 A 
HETATM   20  C   UNK N   1       3.941  -0.687  -0.902  0.00  0.00     0.007 A 
HETATM   21  C   UNK N   1       5.317  -0.863  -1.069  0.00  0.00     0.001 A 
HETATM   22  C   UNK N   1       5.995  -1.823  -0.312  0.00  0.00     0.000 A 
HETATM   23  C   UNK N   1       5.298  -2.596   0.621  0.00  0.00     0.001 A 
HETATM   24  C   UNK N   1       3.923  -2.410   0.797  0.00  0.00     0.007 A 
ENDBRANCH  18  19
ENDBRANCH   1  18
TORSDOF 9
