REMARK  5 active torsions:
REMARK  status: ('A' for Active; 'I' for Inactive)
REMARK    1  A    between atoms: C_1  and  O_9 
REMARK    2  A    between atoms: C_4  and  O_12 
REMARK    3  A    between atoms: S_7  and  N_8 
REMARK    4  A    between atoms: S_7  and  O_9 
REMARK    5  A    between atoms: C_23  and  C_26 
ROOT
HETATM    1  C   UNK N   1      -5.007   2.254   0.176  0.00  0.00     0.129 C 
HETATM    2  C   UNK N   1      -6.472   2.219   0.109  0.00  0.00     0.059 C 
HETATM    3  N   UNK N   1      -7.628   2.191   0.057  0.00  0.00    -0.197 NA
ENDROOT
BRANCH   1   4
HETATM    4  C   UNK N   1      -4.352   0.869   0.082  0.00  0.00     0.007 C 
HETATM    5  C   UNK N   1      -2.897   0.882   0.563  0.00  0.00    -0.035 C 
HETATM    6  C   UNK N   1      -1.935   1.816  -0.186  0.00  0.00     0.010 C 
HETATM    7  C   UNK N   1      -2.537  -0.637   0.611  0.00  0.00    -0.001 C 
HETATM    8  C   UNK N   1      -2.832   1.443   1.995  0.00  0.00     0.016 C 
HETATM    9  C   UNK N   1      -1.298   1.238  -1.420  0.00  0.00     0.010 C 
HETATM   10  C   UNK N   1      -0.648  -0.099  -1.096  0.00  0.00     0.024 C 
HETATM   11  C   UNK N   1       0.623  -0.083  -0.291  0.00  0.00    -0.044 C 
HETATM   12  C   UNK N   1      -1.703  -1.106  -0.660  0.00  0.00    -0.001 C 
HETATM   13  C   UNK N   1       1.442   1.055  -0.280  0.00  0.00     0.047 C 
HETATM   14  C   UNK N   1       1.131  -1.307   0.174  0.00  0.00    -0.049 C 
HETATM   15  C   UNK N   1       2.790   0.967   0.109  0.00  0.00     0.103 C 
HETATM   16  C   UNK N   1       3.333  -0.293   0.402  0.00  0.00     0.124 C 
HETATM   17  C   UNK N   1       2.486  -1.409   0.489  0.00  0.00     0.049 C 
HETATM   18  C   UNK N   1       0.264  -2.536   0.282  0.00  0.00     0.039 C 
HETATM   19  C   UNK N   1      -1.049  -2.496  -0.515  0.00  0.00     0.010 C 
HETATM   20  C   UNK N   1      -3.783  -1.165   1.361  0.00  0.00     0.006 C 
HETATM   21  C   UNK N   1      -4.970  -0.196   1.010  0.00  0.00     0.007 C 
BRANCH  15  22
HETATM   22  O   UNK N   1       3.586   2.064   0.139  0.00  0.00    -0.353 OA
HETATM   23  C   UNK N   1       3.095   3.348   0.050  0.00  0.00     0.210 C 
ENDBRANCH  15  22
BRANCH  16  24
HETATM   24  O   UNK N   1       4.673  -0.428   0.553  0.00  0.00    -0.214 OA
BRANCH  24  25
HETATM   25  S   UNK N   1       5.477  -1.887   0.170  0.00  0.00     0.360 S 
HETATM   26  O   UNK N   1       5.349  -2.175  -1.336  0.00  0.00    -0.176 OA
HETATM   27  O   UNK N   1       6.985  -1.737   0.414  0.00  0.00    -0.176 OA
BRANCH  25  28
HETATM   28  N   UNK N   1       4.894  -3.293   1.061  0.00  0.00    -0.305 N 
HETATM   29  H   UNK N   1       4.021  -3.408   1.576  0.00  0.00     0.171 HD
HETATM   30  H   UNK N   1       5.514  -4.103   1.061  0.00  0.00     0.171 HD
ENDBRANCH  25  28
ENDBRANCH  24  25
ENDBRANCH  16  24
ENDBRANCH   1   4
TORSDOF 5
