REMARK  2 active torsions:
REMARK  status: ('A' for Active; 'I' for Inactive)
REMARK    1  A    between atoms: C_1  and  O_11 
REMARK    2  A    between atoms: C_2  and  N_12 
ROOT
HETATM    1  C   UNK N   1      -0.463  -1.201   0.011  0.00  0.00     0.173 C 
HETATM    2  C   UNK N   1      -1.748  -0.354  -0.066  0.00  0.00     0.107 C 
HETATM    3  C   UNK N   1      -1.646   0.856   0.847  0.00  0.00     0.032 C 
HETATM    4  C   UNK N   1      -0.539   1.781   0.337  0.00  0.00     0.041 C 
HETATM    5  C   UNK N   1       0.750   1.050   0.071  0.00  0.00    -0.049 A 
HETATM    6  C   UNK N   1       1.935   1.787   0.010  0.00  0.00     0.007 A 
HETATM    7  C   UNK N   1       0.789  -0.360  -0.067  0.00  0.00    -0.021 A 
HETATM    8  C   UNK N   1       2.030  -0.996  -0.231  0.00  0.00     0.010 A 
HETATM    9  C   UNK N   1       3.207  -0.249  -0.286  0.00  0.00     0.001 A 
HETATM   10  C   UNK N   1       3.161   1.141  -0.174  0.00  0.00     0.001 A 
ENDROOT
BRANCH   2  11
HETATM   11  N   UNK N   1      -2.909  -1.154   0.292  0.00  0.00    -0.423 N 
HETATM   12  H   UNK N   1      -3.802  -0.729   0.542  0.00  0.00     0.150 HD
HETATM   13  H   UNK N   1      -2.828  -2.171   0.292  0.00  0.00     0.150 HD
ENDBRANCH   2  11
BRANCH   1  14
HETATM   14  O   UNK N   1      -0.426  -1.932   1.202  0.00  0.00    -0.389 OA
HETATM   15  H   UNK N   1      -0.853  -2.207   2.029  0.00  0.00     0.210 HD
ENDBRANCH   1  14
TORSDOF 2
