REMARK  0 active torsions:
REMARK  status: ('A' for Active; 'I' for Inactive)
ROOT
HETATM    1  O   UNK N   1       1.306   1.583   0.139  0.00  0.00    -0.325 OA
HETATM    2  O   UNK N   1       1.414  -2.401  -0.026  0.00  0.00    -0.267 OA
HETATM    3  N   UNK N   1       2.512  -0.447  -0.160  0.00  0.00    -0.321 N 
HETATM    4  C   UNK N   1       2.518   0.991  -0.201  0.00  0.00     0.232 C 
HETATM    5  C   UNK N   1       3.668   1.326   0.715  0.00  0.00     0.056 C 
HETATM    6  C   UNK N   1       4.673   0.202   0.398  0.00  0.00     0.024 C 
HETATM    7  C   UNK N   1       3.821  -1.009  -0.007  0.00  0.00     0.129 C 
HETATM    8  C   UNK N   1       1.371  -1.179  -0.077  0.00  0.00     0.258 C 
HETATM    9  C   UNK N   1       0.088  -0.472  -0.020  0.00  0.00     0.068 A 
HETATM   10  C   UNK N   1       0.120   0.924   0.115  0.00  0.00     0.090 A 
HETATM   11  C   UNK N   1      -1.077   1.641   0.198  0.00  0.00     0.077 A 
HETATM   12  C   UNK N   1      -2.302   0.970   0.126  0.00  0.00     0.104 A 
HETATM   13  C   UNK N   1      -2.333  -0.421  -0.007  0.00  0.00     0.103 A 
HETATM   14  C   UNK N   1      -1.139  -1.146  -0.069  0.00  0.00     0.059 A 
HETATM   15  O   UNK N   1      -3.454   1.670   0.165  0.00  0.00    -0.346 OA
HETATM   16  O   UNK N   1      -3.516  -1.066  -0.075  0.00  0.00    -0.346 OA
HETATM   17  C   UNK N   1      -4.748  -0.437   0.009  0.00  0.00     0.202 C 
HETATM   18  C   UNK N   1      -4.708   1.106  -0.001  0.00  0.00     0.202 C 
ENDROOT
TORSDOF 0
