REMARK  8 active torsions:
REMARK  status: ('A' for Active; 'I' for Inactive)
REMARK    1  A    between atoms: O_2  and  N_3 
REMARK    2  A    between atoms: C_5  and  C_6 
REMARK    3  A    between atoms: C_5  and  C_13 
REMARK       I    between atoms: C_6  and  N_8 
REMARK    4  A    between atoms: N_8  and  C_9 
REMARK    5  A    between atoms: C_9  and  B_10 
REMARK    6  A    between atoms: B_10  and  O_11 
REMARK    7  A    between atoms: B_10  and  O_12 
REMARK    8  A    between atoms: C_16  and  N_17 
ROOT
HETATM    1  N   UNK N   1       0.119  -1.121  -0.162  0.00  0.00    -0.260 N 
ATOM      2  HN  UNK N   1       1.113  -1.349  -0.184  1.00  0.00     0.194 HD
HETATM    3  C   UNK N   1      -0.223   0.127  -0.159  0.00  0.00     0.149 C 
ENDROOT
BRANCH   3   4
HETATM    4  C   UNK N   1       0.857   1.181  -0.182  0.00  0.00     0.271 C 
HETATM    5  O   UNK N   1       0.541   2.355  -0.263  0.00  0.00    -0.266 OA
HETATM    6  N   UNK N   1       2.185   0.885  -0.127  0.00  0.00    -0.359 N 
HETATM    7  H   UNK N   1       2.819   1.637  -0.163  0.00  0.00     0.161 HD
BRANCH   6   8
HETATM    8  C   UNK N   1       2.736  -0.442  -0.019  0.00  0.00     0.143 C 
BRANCH   8   9
HETATM    9  B   UNK N   1       4.321  -0.375   0.006  0.00  0.00     0.510 B 
BRANCH   9  10
HETATM   10  O   UNK N   1       5.011   0.911  -0.067  0.00  0.00    -0.436 OA
HETATM   11  H   UNK N   1       5.979   0.941  -0.116  0.00  0.00     0.184 HD
ENDBRANCH   9  10
BRANCH   9  12
HETATM   12  O   UNK N   1       5.093  -1.610   0.080  0.00  0.00    -0.436 OA
HETATM   13  H   UNK N   1       4.638  -2.466   0.130  0.00  0.00     0.184 HD
ENDBRANCH   9  12
ENDBRANCH   8   9
ENDBRANCH   6   8
ENDBRANCH   3   4
BRANCH   3  14
HETATM   14  C   UNK N   1      -1.667   0.555  -0.144  0.00  0.00     0.075 A 
HETATM   15  C   UNK N   1      -2.762  -0.336  -0.252  0.00  0.00     0.085 A 
HETATM   16  S   UNK N   1      -4.114   0.626  -0.189  0.00  0.00    -0.064 SA
HETATM   17  C   UNK N   1      -3.352   2.070  -0.028  0.00  0.00     0.142 A 
HETATM   18  N   UNK N   1      -2.015   1.887  -0.020  0.00  0.00    -0.335 N 
ATOM     19  HN  UNK N   1      -1.339   2.645   0.068  1.00  0.00     0.168 HD
BRANCH  17  20
HETATM   20  N   UNK N   1      -3.975   3.327   0.091  0.00  0.00    -0.380 N 
HETATM   21  H   UNK N   1      -3.432   4.144   0.174  0.00  0.00     0.158 HD
HETATM   22  H   UNK N   1      -4.958   3.389   0.091  0.00  0.00     0.158 HD
ENDBRANCH  17  20
ENDBRANCH   3  14
BRANCH   1  23
HETATM   23  O   UNK N   1      -0.747  -2.112  -0.139  0.00  0.00    -0.285 OA
HETATM   24  C   UNK N   1      -0.300  -3.407  -0.157  0.00  0.00     0.237 C 
ENDBRANCH   1  23
TORSDOF 8
