REMARK  7 active torsions:
REMARK  status: ('A' for Active; 'I' for Inactive)
REMARK    1  A    between atoms: C_6  and  N_7 
REMARK    2  A    between atoms: N_7  and  C_8 
REMARK    3  A    between atoms: C_8  and  C_9 
REMARK    4  A    between atoms: C_9  and  N_10 
REMARK    5  A    between atoms: C_16  and  C_20 
REMARK    6  A    between atoms: C_23  and  O_27 
REMARK    7  A    between atoms: C_25  and  O_26 
ROOT
HETATM    1  C   UNK N   1      -0.622  -2.700  -0.469  0.00  0.00     0.032 A 
HETATM    2  C   UNK N   1      -1.897  -3.236  -0.214  0.00  0.00     0.042 A 
HETATM    3  C   UNK N   1      -2.942  -2.339  -0.026  0.00  0.00     0.111 A 
HETATM    4  C   UNK N   1      -2.768  -0.985  -0.072  0.00  0.00     0.031 A 
HETATM    5  C   UNK N   1      -1.518  -0.434  -0.318  0.00  0.00     0.045 A 
HETATM    6  C   UNK N   1      -0.431  -1.301  -0.519  0.00  0.00     0.029 A 
HETATM    7  C   UNK N   1      -4.031  -0.450   0.120  0.00  0.00     0.081 A 
HETATM    8  N   UNK N   1      -4.892  -1.491   0.268  0.00  0.00    -0.259 N 
ATOM      9  HN  UNK N   1      -5.898  -1.420   0.421  1.00  0.00     0.195 HD
HETATM   10  O   UNK N   1      -4.207  -2.599   0.183  0.00  0.00    -0.237 OA
ENDROOT
BRANCH   7  11
HETATM   11  C   UNK N   1      -4.494   0.970   0.121  0.00  0.00     0.028 A 
HETATM   12  C   UNK N   1      -5.880   1.185   0.060  0.00  0.00     0.043 A 
HETATM   13  C   UNK N   1      -6.414   2.473   0.016  0.00  0.00     0.068 A 
HETATM   14  C   UNK N   1      -5.561   3.581   0.042  0.00  0.00     0.090 A 
HETATM   15 Cl   UNK N   1      -8.152   2.680  -0.083  0.00  0.00    -0.081 Cl
HETATM   16  C   UNK N   1      -4.184   3.392   0.120  0.00  0.00     0.075 A 
HETATM   17  C   UNK N   1      -3.640   2.106   0.160  0.00  0.00     0.081 A 
BRANCH  14  18
HETATM   18  O   UNK N   1      -6.059   4.828  -0.008  0.00  0.00    -0.359 OA
HETATM   19  H   UNK N   1      -5.479   5.563  -0.042  0.00  0.00     0.217 HD
ENDBRANCH  14  18
BRANCH  17  20
HETATM   20  O   UNK N   1      -2.309   1.994   0.256  0.00  0.00    -0.360 OA
HETATM   21  H   UNK N   1      -1.911   1.148   0.323  0.00  0.00     0.217 HD
ENDBRANCH  17  20
ENDBRANCH   7  11
BRANCH   6  22
HETATM   22  N   UNK N   1       0.856  -0.790  -0.788  0.00  0.00    -0.388 N 
HETATM   23  H   UNK N   1       1.555  -1.414  -1.089  0.00  0.00     0.159 HD
BRANCH  22  24
HETATM   24  C   UNK N   1       1.197   0.606  -0.642  0.00  0.00     0.150 C 
BRANCH  24  25
HETATM   25  C   UNK N   1       2.401   0.739   0.285  0.00  0.00     0.292 C 
BRANCH  25  26
HETATM   26  N   UNK N   1       3.425  -0.215  -0.116  0.00  0.00     0.094 N 
HETATM   27  C   UNK N   1       4.752   0.345   0.110  0.00  0.00     0.298 C 
HETATM   28  C   UNK N   1       5.784  -0.720  -0.278  0.00  0.00     0.198 C 
HETATM   29  O   UNK N   1       5.627  -1.856   0.544  0.00  0.00    -0.388 OA
HETATM   30  C   UNK N   1       4.366  -2.414   0.261  0.00  0.00     0.198 C 
HETATM   31  C   UNK N   1       3.278  -1.431   0.686  0.00  0.00     0.298 C 
ENDBRANCH  25  26
ENDBRANCH  24  25
ENDBRANCH  22  24
ENDBRANCH   6  22
TORSDOF 7
