REMARK  11 active torsions:
REMARK  status: ('A' for Active; 'I' for Inactive)
REMARK    1  A    between atoms: C_6  and  N_7 
REMARK    2  A    between atoms: N_7  and  C_8 
REMARK    3  A    between atoms: C_19  and  N_20 
REMARK       I    between atoms: N_20  and  C_21 
REMARK    4  A    between atoms: C_21  and  C_23 
REMARK    5  A    between atoms: C_23  and  C_24 
REMARK    6  A    between atoms: C_24  and  S_25 
REMARK    7  A    between atoms: S_25  and  C_26 
REMARK    8  A    between atoms: C_26  and  C_27 
REMARK    9  A    between atoms: C_27  and  C_28 
REMARK   10  A    between atoms: C_27  and  N_30 
REMARK   11  A    between atoms: C_28  and  O_31 
ROOT
HETATM    1  C   UNK N   1      -2.456  -1.574   0.277  0.00  0.00     0.119 A 
HETATM    2  C   UNK N   1      -1.284  -2.275  -0.032  0.00  0.00     0.037 A 
HETATM    3  C   UNK N   1      -0.051  -1.629  -0.140  0.00  0.00     0.047 A 
HETATM    4  N   UNK N   1      -3.630  -2.252   0.378  0.00  0.00    -0.338 N 
ATOM      5  HN  UNK N   1      -4.484  -1.742   0.602  1.00  0.00     0.168 HD
HETATM    6  C   UNK N   1      -3.687  -3.598   0.185  0.00  0.00     0.182 A 
HETATM    7  N   UNK N   1      -2.565  -4.291  -0.148  0.00  0.00    -0.352 N 
ATOM      8  HN  UNK N   1      -2.623  -5.297  -0.310  1.00  0.00     0.166 HD
HETATM    9  C   UNK N   1      -1.371  -3.661  -0.267  0.00  0.00     0.047 A 
HETATM   10  C   UNK N   1      -0.230  -4.375  -0.647  0.00  0.00     0.033 A 
HETATM   11  C   UNK N   1       0.997  -3.718  -0.781  0.00  0.00     0.032 A 
HETATM   12  C   UNK N   1       1.096  -2.350  -0.502  0.00  0.00     0.035 A 
ENDROOT
BRANCH  12  13
HETATM   13  N   UNK N   1       2.348  -1.697  -0.608  0.00  0.00    -0.327 N 
HETATM   14  C   UNK N   1       2.799  -0.816   0.325  0.00  0.00     0.222 C 
HETATM   15  O   UNK N   1       2.217  -0.695   1.394  0.00  0.00    -0.273 OA
HETATM   16  H   UNK N   1       2.916  -1.888  -1.390  0.00  0.00     0.169 HD
BRANCH  14  17
HETATM   17  C   UNK N   1       4.038  -0.009   0.085  0.00  0.00     0.113 C 
BRANCH  17  18
HETATM   18  C   UNK N   1       4.470   0.014  -1.376  0.00  0.00     0.083 C 
BRANCH  18  19
HETATM   19  S   UNK N   1       5.463  -1.451  -1.795  0.00  0.00    -0.166 SA
BRANCH  19  20
HETATM   20  C   UNK N   1       6.967  -0.631  -1.187  0.00  0.00     0.109 C 
BRANCH  20  21
HETATM   21  C   UNK N   1       7.366  -1.161   0.184  0.00  0.00     0.182 C 
BRANCH  21  22
HETATM   22  C   UNK N   1       8.146  -2.437   0.053  0.00  0.00     0.163 C 
HETATM   23  O   UNK N   1       9.201  -2.452  -0.561  0.00  0.00    -0.648 OA
BRANCH  22  24
HETATM   24  O   UNK N   1       7.692  -3.568   0.626  0.00  0.00    -0.775 OA
HETATM   25  H   UNK N   1       6.852  -3.688   1.024  0.00  0.00     0.167 HD
ENDBRANCH  22  24
ENDBRANCH  21  22
BRANCH  21  26
HETATM   26  N   UNK N   1       8.183  -0.164   0.852  0.00  0.00    -0.417 N 
HETATM   27  H   UNK N   1       9.077  -0.311   1.321  0.00  0.00     0.150 HD
HETATM   28  H   UNK N   1       7.823   0.790   0.852  0.00  0.00     0.150 HD
ENDBRANCH  21  26
ENDBRANCH  20  21
ENDBRANCH  19  20
ENDBRANCH  18  19
ENDBRANCH  17  18
ENDBRANCH  14  17
ENDBRANCH  12  13
BRANCH   1  29
HETATM   29  N   UNK N   1      -2.409  -0.157   0.438  0.00  0.00    -0.342 N 
HETATM   30  H   UNK N   1      -1.535   0.244   0.650  0.00  0.00     0.167 HD
BRANCH  29  31
HETATM   31  C   UNK N   1      -3.517   0.726   0.317  0.00  0.00     0.033 A 
HETATM   32  C   UNK N   1      -4.791   0.270  -0.059  0.00  0.00     0.029 A 
HETATM   33  C   UNK N   1      -5.844   1.174  -0.231  0.00  0.00     0.002 A 
HETATM   34  C   UNK N   1      -5.629   2.540  -0.038  0.00  0.00     0.000 A 
HETATM   35  C   UNK N   1      -4.363   3.003   0.329  0.00  0.00     0.002 A 
HETATM   36  C   UNK N   1      -3.310   2.098   0.502  0.00  0.00     0.029 A 
ENDBRANCH  29  31
ENDBRANCH   1  29
TORSDOF 11
