REMARK  2 active torsions:
REMARK  status: ('A' for Active; 'I' for Inactive)
REMARK    1  A    between atoms: C_3  and  C_4 
REMARK    2  A    between atoms: C_24  and  O_25 
ROOT
HETATM    1  O   UNK N   1      -1.638   0.434   0.089  0.00  0.00    -0.290 OA
HETATM    2  C   UNK N   1      -2.002  -0.729   0.156  0.00  0.00     0.190 A 
HETATM    3  C   UNK N   1      -3.376  -1.215  -0.062  0.00  0.00     0.108 A 
HETATM    4  C   UNK N   1      -1.127  -1.881   0.542  0.00  0.00     0.171 A 
HETATM    5  C   UNK N   1       0.027  -2.338  -0.343  0.00  0.00     0.058 C 
HETATM    6  C   UNK N   1       1.373  -1.720  -0.142  0.00  0.00    -0.023 A 
HETATM    7  C   UNK N   1       1.816  -0.406  -0.041  0.00  0.00     0.097 A 
HETATM    8  N   UNK N   1       3.174  -0.408   0.110  0.00  0.00    -0.365 N 
HETATM    9  C   UNK N   1       3.550  -1.705   0.078  0.00  0.00     0.043 A 
HETATM   10  C   UNK N   1       2.476  -2.502  -0.090  0.00  0.00     0.005 A 
HETATM   11  C   UNK N   1       4.830  -2.247   0.174  0.00  0.00     0.030 A 
HETATM   12  C   UNK N   1       4.953  -3.657   0.083  0.00  0.00     0.003 A 
HETATM   13  C   UNK N   1       3.806  -4.478  -0.116  0.00  0.00     0.008 A 
HETATM   14  C   UNK N   1       2.533  -3.885  -0.206  0.00  0.00    -0.045 A 
HETATM   15  C   UNK N   1       1.239  -4.656  -0.444  0.00  0.00     0.047 C 
HETATM   16  C   UNK N   1       0.074  -3.823   0.146  0.00  0.00     0.028 C 
HETATM   17  C   UNK N   1      -1.407  -4.243   0.031  0.00  0.00     0.033 C 
HETATM   18  C   UNK N   1      -1.764  -4.631  -1.402  0.00  0.00     0.039 C 
HETATM   19  C   UNK N   1      -1.772  -5.369   0.983  0.00  0.00     0.039 C 
HETATM   20  N   UNK N   1      -2.040  -2.987   0.402  0.00  0.00    -0.339 N 
HETATM   21  C   UNK N   1      -3.338  -2.541   0.059  0.00  0.00     0.157 A 
HETATM   22  H   UNK N   1       3.760   0.376   0.220  0.00  0.00     0.165 HD
ENDROOT
BRANCH   3  23
HETATM   23  C   UNK N   1      -4.568  -0.386  -0.367  0.00  0.00     0.163 C 
HETATM   24  C   UNK N   1      -4.458   1.100  -0.452  0.00  0.00     0.097 C 
HETATM   25  O   UNK N   1      -5.662  -0.909  -0.512  0.00  0.00    -0.292 OA
ENDBRANCH   3  23
BRANCH  21  26
HETATM   26  O   UNK N   1      -4.387  -3.368  -0.128  0.00  0.00    -0.345 OA
HETATM   27  H   UNK N   1      -5.249  -3.024  -0.259  0.00  0.00     0.219 HD
ENDBRANCH  21  26
TORSDOF 2
