REMARK  4 active torsions:
REMARK  status: ('A' for Active; 'I' for Inactive)
REMARK    1  A    between atoms: N_1  and  C_10 
REMARK    2  A    between atoms: N_17  and  C_18 
REMARK    3  A    between atoms: C_23  and  S_24 
REMARK    4  A    between atoms: N_28  and  O_29 
ROOT
HETATM    1  N   UNK N   1      -1.166  -2.898   0.000  0.00  0.00    -0.345 N 
HETATM    2  C   UNK N   1      -1.705  -3.498  -0.000  0.00  0.00     0.043 A 
HETATM    3  C   UNK N   1      -1.330  -4.424  -0.000  0.00  0.00     0.032 A 
HETATM    4  C   UNK N   1      -2.485  -5.112  -0.000  0.00  0.00     0.026 A 
HETATM    5  C   UNK N   1      -3.729  -4.293  -0.000  0.00  0.00     0.035 A 
HETATM    6 Cl   UNK N   1      -4.762  -4.806   0.000  0.00  0.00    -0.084 Cl
HETATM    7  C   UNK N   1      -3.870  -3.079  -0.000  0.00  0.00     0.037 A 
HETATM    8  C   UNK N   1      -2.944  -2.682  -0.000  0.00  0.00    -0.005 A 
HETATM    9  C   UNK N   1      -3.216  -1.709   0.000  0.00  0.00     0.057 A 
HETATM   10  C   UNK N   1      -1.772  -1.783   0.000  0.00  0.00     0.150 A 
HETATM   11  S   UNK N   1      -0.920  -0.991   0.000  0.00  0.00     0.276 S 
HETATM   12  O   UNK N   1      -0.020  -1.622  -0.000  0.00  0.00    -0.199 OA
HETATM   13  O   UNK N   1      -1.753  -0.330  -0.000  0.00  0.00    -0.199 OA
HETATM   14  N   UNK N   1      -0.860   0.250   0.000  0.00  0.00    -0.302 N 
HETATM   15  C   UNK N   1      -1.730   1.649   0.000  0.00  0.00     0.155 A 
HETATM   16  C   UNK N   1      -0.988   2.000   0.000  0.00  0.00     0.146 A 
HETATM   17  N   UNK N   1       0.318   1.846  -0.000  0.00  0.00    -0.344 N 
HETATM   18  C   UNK N   1       1.147   0.697   0.000  0.00  0.00     0.146 A 
HETATM   19  C   UNK N   1       1.083   0.576  -0.000  0.00  0.00     0.155 A 
HETATM   20  H   UNK N   1      -0.188  -3.013   0.000  0.00  0.00     0.167 HD
ENDROOT
BRANCH  17  21
HETATM   21  C   UNK N   1       0.662   2.893  -0.000  0.00  0.00     0.260 A 
HETATM   22  O   UNK N   1      -0.063   3.883  -0.000  0.00  0.00    -0.267 OA
HETATM   23  C   UNK N   1       1.619   3.035   0.000  0.00  0.00     0.075 A 
HETATM   24  C   UNK N   1       2.435   2.409  -0.000  0.00  0.00     0.058 A 
HETATM   25  S   UNK N   1       2.275   3.992   0.000  0.00  0.00    -0.082 SA
HETATM   26  C   UNK N   1       3.157   1.790   0.000  0.00  0.00     0.080 A 
HETATM   27  C   UNK N   1       3.352   3.167   0.000  0.00  0.00     0.035 A 
HETATM   28  N   UNK N   1       4.037   1.037  -0.000  0.00  0.00    -0.235 N 
HETATM   29  C   UNK N   1       5.130   1.545   0.000  0.00  0.00     0.123 A 
HETATM   30  C   UNK N   1       5.291   2.915  -0.000  0.00  0.00     0.021 A 
HETATM   31  C   UNK N   1       4.371   3.799   0.000  0.00  0.00     0.023 A 
BRANCH  28  32
HETATM   32  O   UNK N   1       3.998  -0.218  -0.000  0.00  0.00    -0.283 OA
ATOM     33  HO  UNK N   1       4.720  -0.836  -0.000  1.00  0.00     0.245 HD
ENDBRANCH  28  32
BRANCH  27  34
ENDBRANCH  27  34
BRANCH  25  34
ENDBRANCH  25  34
ENDBRANCH  17  21
TORSDOF 4
