REMARK  6 active torsions:
REMARK  status: ('A' for Active; 'I' for Inactive)
REMARK    1  A    between atoms: C_2  and  C_22 
REMARK    2  A    between atoms: N_8  and  C_13 
REMARK    3  A    between atoms: C_11  and  C_20 
REMARK    4  A    between atoms: C_22  and  C_25 
REMARK    5  A    between atoms: C_27  and  O_31 
REMARK    6  A    between atoms: C_28  and  O_32 
ROOT
HETATM    1  N   UNK N   1       2.245   2.553   0.350  0.00  0.00    -0.312 N 
HETATM    2  C   UNK N   1       2.205   1.181   0.350  0.00  0.00     0.089 A 
HETATM    3  N   UNK N   1       1.014   0.533   0.169  0.00  0.00    -0.329 N 
ATOM      4  HN  UNK N   1       0.978  -0.487   0.176  1.00  0.00     0.168 HD
HETATM    5  C   UNK N   1      -0.113   1.251  -0.020  0.00  0.00     0.146 A 
HETATM    6  C   UNK N   1      -0.105   2.606   0.009  0.00  0.00     0.102 A 
HETATM    7  C   UNK N   1       1.093   3.291   0.183  0.00  0.00     0.262 A 
HETATM    8  N   UNK N   1      -1.379   0.793  -0.162  0.00  0.00    -0.235 N 
HETATM    9  N   UNK N   1      -2.181   1.857  -0.205  0.00  0.00    -0.295 N 
ATOM     10  HN  UNK N   1      -3.197   1.831  -0.293  1.00  0.00     0.187 HD
HETATM   11  C   UNK N   1      -1.424   2.979  -0.114  0.00  0.00     0.045 A 
HETATM   12  O   UNK N   1       1.128   4.508   0.215  0.00  0.00    -0.267 OA
HETATM   13  H   UNK N   1       3.106   3.014   0.469  0.00  0.00     0.170 HD
ENDROOT
BRANCH   2  14
HETATM   14  C   UNK N   1       3.465   0.395   0.602  0.00  0.00     0.115 C 
BRANCH  14  15
HETATM   15  C   UNK N   1       3.245  -1.091   0.587  0.00  0.00    -0.048 A 
HETATM   16  C   UNK N   1       3.942  -1.888  -0.327  0.00  0.00     0.047 A 
HETATM   17  C   UNK N   1       3.713  -3.268  -0.373  0.00  0.00     0.099 A 
HETATM   18  C   UNK N   1       2.774  -3.852   0.490  0.00  0.00     0.098 A 
HETATM   19  C   UNK N   1       2.086  -3.059   1.411  0.00  0.00     0.040 A 
HETATM   20  C   UNK N   1       2.327  -1.684   1.466  0.00  0.00     0.010 A 
BRANCH  17  21
HETATM   21  O   UNK N   1       4.392  -4.027  -1.250  0.00  0.00    -0.358 OA
HETATM   22  H   UNK N   1       4.170  -4.702  -1.861  0.00  0.00     0.217 HD
ENDBRANCH  17  21
BRANCH  18  23
HETATM   23  O   UNK N   1       2.532  -5.173   0.438  0.00  0.00    -0.358 OA
HETATM   24  H   UNK N   1       1.650  -5.488   0.403  0.00  0.00     0.217 HD
ENDBRANCH  18  23
ENDBRANCH  14  15
ENDBRANCH   2  14
BRANCH   8  25
HETATM   25  C   UNK N   1      -1.872  -0.582  -0.164  0.00  0.00     0.102 A 
HETATM   26  C   UNK N   1      -1.111  -1.681  -0.684  0.00  0.00     0.066 A 
HETATM   27  C   UNK N   1      -1.618  -2.980  -0.610  0.00  0.00     0.050 A 
HETATM   28 Cl   UNK N   1       0.404  -1.527  -1.557  0.00  0.00    -0.082 Cl
HETATM   29  C   UNK N   1      -2.858  -3.235  -0.044  0.00  0.00     0.037 A 
HETATM   30  C   UNK N   1      -3.633  -2.184   0.424  0.00  0.00     0.050 A 
HETATM   31 Cl   UNK N   1      -3.452  -4.878   0.064  0.00  0.00    -0.084 Cl
HETATM   32  C   UNK N   1      -3.167  -0.870   0.366  0.00  0.00     0.066 A 
HETATM   33 Cl   UNK N   1      -4.237   0.361   1.027  0.00  0.00    -0.082 Cl
ENDBRANCH   8  25
BRANCH  11  34
HETATM   34  C   UNK N   1      -1.956   4.377  -0.068  0.00  0.00     0.055 C 
HETATM   35  C   UNK N   1      -3.470   4.403   0.054  0.00  0.00     0.011 C 
ENDBRANCH  11  34
TORSDOF 6
