REMARK  4 active torsions:
REMARK  status: ('A' for Active; 'I' for Inactive)
REMARK    1  A    between atoms: C_1  and  C_21 
REMARK    2  A    between atoms: C_4  and  C_7 
REMARK    3  A    between atoms: C_5  and  C_14 
REMARK    4  A    between atoms: C_24  and  S_27 
ROOT
HETATM    1  C   UNK N   1      -0.269   0.536  -0.233  0.00  0.00     0.116 A 
HETATM    2  N   UNK N   1       0.863  -0.189  -0.286  0.00  0.00    -0.339 N 
ATOM      3  HN  UNK N   1       1.818   0.164  -0.354  1.00  0.00     0.167 HD
HETATM    4  C   UNK N   1       0.473  -1.478  -0.233  0.00  0.00     0.072 A 
HETATM    5  C   UNK N   1      -0.934  -1.504  -0.161  0.00  0.00     0.072 A 
HETATM    6  N   UNK N   1      -1.370  -0.229  -0.157  0.00  0.00    -0.339 N 
HETATM    7  H   UNK N   1      -2.304   0.079  -0.108  0.00  0.00     0.167 HD
ENDROOT
BRANCH   1   8
HETATM    8  C   UNK N   1      -0.291   1.999  -0.119  0.00  0.00     0.008 A 
HETATM    9  C   UNK N   1      -1.509   2.668   0.060  0.00  0.00     0.016 A 
HETATM   10  C   UNK N   1      -1.526   4.043   0.298  0.00  0.00     0.022 A 
HETATM   11  C   UNK N   1      -0.326   4.765   0.355  0.00  0.00     0.031 A 
HETATM   12  C   UNK N   1       0.891   4.095   0.167  0.00  0.00     0.022 A 
HETATM   13  C   UNK N   1       0.908   2.720  -0.074  0.00  0.00     0.016 A 
BRANCH  11  14
HETATM   14  S   UNK N   1      -0.356   6.514   0.797  0.00  0.00     0.045 S 
HETATM   15  O   UNK N   1      -1.418   6.855  -0.260  0.00  0.00    -0.253 OA
HETATM   16  C   UNK N   1       0.985   7.010  -0.325  0.00  0.00     0.133 C 
ENDBRANCH  11  14
ENDBRANCH   1   8
BRANCH   4  17
HETATM   17  C   UNK N   1       1.500  -2.554  -0.173  0.00  0.00    -0.004 A 
HETATM   18  C   UNK N   1       2.848  -2.201  -0.343  0.00  0.00     0.030 A 
HETATM   19  C   UNK N   1       3.846  -3.169  -0.226  0.00  0.00     0.088 A 
HETATM   20  N   UNK N   1       3.516  -4.454   0.069  0.00  0.00    -0.375 N 
HETATM   21  C   UNK N   1       2.220  -4.825   0.249  0.00  0.00     0.088 A 
ATOM     22  HN  UNK N   1       4.253  -5.153   0.157  1.00  0.00     0.164 HD
HETATM   23  C   UNK N   1       1.196  -3.881   0.133  0.00  0.00     0.030 A 
ENDBRANCH   4  17
BRANCH   5  24
HETATM   24  C   UNK N   1      -1.919  -2.617  -0.081  0.00  0.00    -0.006 A 
HETATM   25  C   UNK N   1      -1.576  -3.961  -0.260  0.00  0.00     0.032 A 
HETATM   26  C   UNK N   1      -2.553  -4.961  -0.196  0.00  0.00     0.007 A 
HETATM   27  I   UNK N   1      -2.023  -6.974  -0.489  0.00  0.00    -0.045 I 
HETATM   28  C   UNK N   1      -3.885  -4.625   0.049  0.00  0.00     0.018 A 
HETATM   29  C   UNK N   1      -4.243  -3.289   0.225  0.00  0.00     0.002 A 
HETATM   30  C   UNK N   1      -3.267  -2.293   0.153  0.00  0.00     0.014 A 
ENDBRANCH   5  24
TORSDOF 4
