REMARK  2 active torsions:
REMARK  status: ('A' for Active; 'I' for Inactive)
REMARK    1  A    between atoms: O_1  and  C_2 
REMARK    2  A    between atoms: C_7  and  O_8 
ROOT
HETATM    1  C   UNK N   1      -1.104  -1.546   0.000  0.00  0.00     0.099 A 
HETATM    2  C   UNK N   1      -0.974  -2.937   0.000  0.00  0.00     0.040 A 
HETATM    3  C   UNK N   1       0.290  -3.527   0.000  0.00  0.00     0.015 A 
HETATM    4  C   UNK N   1       1.432  -2.729   0.000  0.00  0.00    -0.023 A 
HETATM    5  C   UNK N   1       1.315  -1.318  -0.000  0.00  0.00     0.010 A 
HETATM    6  C   UNK N   1       0.037  -0.727  -0.000  0.00  0.00     0.110 A 
HETATM    7  C   UNK N   1       2.478  -0.533  -0.000  0.00  0.00     0.015 A 
HETATM    8  C   UNK N   1       3.737  -1.144  -0.000  0.00  0.00     0.001 A 
HETATM    9  C   UNK N   1       3.843  -2.538  -0.000  0.00  0.00     0.001 A 
HETATM   10  C   UNK N   1       2.693  -3.329   0.000  0.00  0.00     0.012 A 
ENDROOT
BRANCH   1  11
HETATM   11  O   UNK N   1      -2.332  -0.999  -0.000  0.00  0.00    -0.358 OA
HETATM   12  H   UNK N   1      -2.430  -0.067  -0.000  0.00  0.00     0.217 HD
ENDBRANCH   1  11
BRANCH   6  13
HETATM   13  O   UNK N   1      -0.098   0.613  -0.000  0.00  0.00    -0.357 OA
HETATM   14  H   UNK N   1       0.662   1.160  -0.000  0.00  0.00     0.217 HD
ENDBRANCH   6  13
TORSDOF 2
