REMARK  5 active torsions:
REMARK  status: ('A' for Active; 'I' for Inactive)
REMARK    1  A    between atoms: C_2  and  N_7 
REMARK    2  A    between atoms: C_6  and  C_8 
REMARK    3  A    between atoms: C_16  and  C_25 
REMARK    4  A    between atoms: C_19  and  N_20 
REMARK    5  A    between atoms: N_20  and  C_21 
ROOT
HETATM    1  C   UNK N   1      -1.982  -1.168   0.111  0.00  0.00    -0.025 A 
HETATM    2  C   UNK N   1      -1.930  -2.571   0.225  0.00  0.00     0.014 A 
HETATM    3  C   UNK N   1      -0.691  -3.233   0.254  0.00  0.00     0.031 A 
HETATM    4  C   UNK N   1       0.497  -2.498   0.145  0.00  0.00     0.047 A 
HETATM    5  C   UNK N   1       0.438  -1.098   0.058  0.00  0.00     0.035 A 
HETATM    6  C   UNK N   1      -0.789  -0.449   0.053  0.00  0.00     0.029 A 
HETATM    7  N   UNK N   1       1.700  -3.122   0.093  0.00  0.00    -0.338 N 
ATOM      8  HN  UNK N   1       1.744  -4.138   0.167  1.00  0.00     0.167 HD
HETATM    9  C   UNK N   1       2.852  -2.406  -0.057  0.00  0.00     0.192 A 
HETATM   10  N   UNK N   1       2.806  -1.040  -0.110  0.00  0.00    -0.324 N 
ATOM     11  HN  UNK N   1       3.674  -0.513  -0.202  1.00  0.00     0.169 HD
HETATM   12  C   UNK N   1       1.623  -0.374  -0.043  0.00  0.00     0.116 A 
ENDROOT
BRANCH   1  13
HETATM   13  C   UNK N   1      -3.257  -0.439  -0.073  0.00  0.00    -0.024 A 
HETATM   14  C   UNK N   1      -4.471  -1.127  -0.215  0.00  0.00     0.041 A 
HETATM   15  C   UNK N   1      -5.649  -0.424  -0.493  0.00  0.00     0.026 A 
HETATM   16  C   UNK N   1      -5.623   0.967  -0.631  0.00  0.00     0.029 A 
HETATM   17  C   UNK N   1      -4.421   1.661  -0.484  0.00  0.00     0.003 A 
HETATM   18  C   UNK N   1      -3.245   0.961  -0.215  0.00  0.00     0.012 A 
BRANCH  15  19
HETATM   19  N   UNK N   1      -6.860  -1.121  -0.660  0.00  0.00    -0.399 N 
HETATM   20  H   UNK N   1      -7.706  -0.631  -0.777  0.00  0.00     0.156 HD
HETATM   21  H   UNK N   1      -6.862  -2.105  -0.660  0.00  0.00     0.156 HD
ENDBRANCH  15  19
ENDBRANCH   1  13
BRANCH  12  22
HETATM   22  N   UNK N   1       1.549   1.052  -0.081  0.00  0.00    -0.367 N 
HETATM   23  H   UNK N   1       0.661   1.423  -0.291  0.00  0.00     0.162 HD
BRANCH  22  24
HETATM   24  C   UNK N   1       2.594   2.029   0.146  0.00  0.00     0.021 C 
HETATM   25  C   UNK N   1       3.952   1.427   0.458  0.00  0.00     0.037 C 
HETATM   26  C   UNK N   1       2.174   2.887   1.322  0.00  0.00     0.037 C 
HETATM   27  C   UNK N   1       2.712   2.917  -1.074  0.00  0.00     0.037 C 
ENDBRANCH  22  24
ENDBRANCH  12  22
BRANCH   9  28
HETATM   28  C   UNK N   1       4.157  -3.124  -0.206  0.00  0.00     0.449 C 
HETATM   29  F   UNK N   1       4.435  -3.834   0.945  0.00  0.00    -0.163 F 
HETATM   30  F   UNK N   1       4.073  -4.003  -1.272  0.00  0.00    -0.163 F 
HETATM   31  F   UNK N   1       5.184  -2.229  -0.449  0.00  0.00    -0.163 F 
ENDBRANCH   9  28
TORSDOF 5
