REMARK  2 active torsions:
REMARK  status: ('A' for Active; 'I' for Inactive)
REMARK    1  A    between atoms: C_2  and  C_3 
REMARK    2  A    between atoms: C_9  and  C_10 
ROOT
HETATM    1  C   UNK N   1     -17.910   5.917   0.000  0.00  0.00     0.129 A 
HETATM    2  C   UNK N   1     -17.526   7.235   0.000  0.00  0.00     0.074 A 
HETATM    3  O   UNK N   1     -16.842   5.151  -0.000  0.00  0.00    -0.235 OA
HETATM    4  N   UNK N   1     -15.759   5.878  -0.000  0.00  0.00    -0.260 N 
ATOM      5  HN  UNK N   1     -14.798   5.535  -0.000  1.00  0.00     0.195 HD
HETATM    6  C   UNK N   1     -16.150   7.168   0.000  0.00  0.00     0.068 A 
ENDROOT
BRANCH   1   7
HETATM    7  C   UNK N   1     -19.302   5.457   0.000  0.00  0.00     0.085 A 
HETATM    8  C   UNK N   1     -20.410   6.278   0.000  0.00  0.00     0.052 A 
HETATM    9  C   UNK N   1     -21.480   5.403  -0.000  0.00  0.00     0.109 A 
HETATM   10  N   UNK N   1     -21.007   4.140  -0.000  0.00  0.00    -0.311 N 
HETATM   11  N   UNK N   1     -19.684   4.173  -0.000  0.00  0.00    -0.298 N 
HETATM   12  H   UNK N   1     -21.558   3.324  -0.000  0.00  0.00     0.186 HD
ATOM     13  HN  UNK N   1     -19.064   3.363  -0.000  1.00  0.00     0.187 HD
ENDBRANCH   1   7
BRANCH   6  14
HETATM   14  C   UNK N   1     -15.258   8.337   0.000  0.00  0.00    -0.007 A 
HETATM   15  C   UNK N   1     -15.814   9.626   0.000  0.00  0.00     0.014 A 
HETATM   16  C   UNK N   1     -14.991  10.752   0.000  0.00  0.00     0.001 A 
HETATM   17  C   UNK N   1     -13.603  10.599  -0.000  0.00  0.00     0.000 A 
HETATM   18  C   UNK N   1     -13.041   9.318  -0.000  0.00  0.00     0.001 A 
HETATM   19  C   UNK N   1     -13.866   8.187  -0.000  0.00  0.00     0.014 A 
ENDBRANCH   6  14
TORSDOF 2
