REMARK  6 active torsions:
REMARK  status: ('A' for Active; 'I' for Inactive)
REMARK    1  A    between atoms: N_1  and  C_2 
REMARK    2  A    between atoms: C_2  and  C_3 
REMARK    3  A    between atoms: N_6  and  C_9 
REMARK    4  A    between atoms: C_9  and  C_10 
REMARK       I    between atoms: C_10  and  N_11 
REMARK    5  A    between atoms: N_11  and  C_12 
REMARK    6  A    between atoms: C_22  and  C_23 
ROOT
HETATM    1  C   UNK N   1       0.811  -2.102  -0.728  0.00  0.00     0.050 A 
HETATM    2  C   UNK N   1       1.602  -3.247  -0.925  0.00  0.00     0.030 A 
HETATM    3  C   UNK N   1       1.021  -4.534  -0.841  0.00  0.00     0.003 A 
HETATM    4  C   UNK N   1      -0.347  -4.690  -0.539  0.00  0.00     0.015 A 
HETATM    5  C   UNK N   1      -1.110  -3.538  -0.360  0.00  0.00     0.009 A 
HETATM    6  C   UNK N   1      -0.546  -2.274  -0.463  0.00  0.00     0.054 A 
HETATM    7  C   UNK N   1      -2.514  -3.345  -0.021  0.00  0.00     0.075 A 
HETATM    8  C   UNK N   1      -2.810  -2.039   0.065  0.00  0.00     0.068 A 
HETATM    9  C   UNK N   1      -1.603  -1.278  -0.223  0.00  0.00     0.199 A 
HETATM   10  N   UNK N   1      -4.599  -3.261   0.497  0.00  0.00    -0.303 N 
HETATM   11  C   UNK N   1      -4.143  -1.981   0.393  0.00  0.00     0.046 A 
HETATM   12  O   UNK N   1      -1.495  -0.064  -0.286  0.00  0.00    -0.286 OA
HETATM   13  N   UNK N   1      -3.593  -4.098   0.244  0.00  0.00    -0.299 N 
ATOM     14  HN  UNK N   1      -3.636  -5.117   0.250  1.00  0.00     0.187 HD
HETATM   15  H   UNK N   1      -5.521  -3.524   0.722  0.00  0.00     0.186 HD
ENDROOT
BRANCH   1  16
HETATM   16  N   UNK N   1       1.392  -0.810  -0.675  0.00  0.00    -0.325 N 
HETATM   17  C   UNK N   1       1.467  -0.151   0.514  0.00  0.00     0.250 C 
HETATM   18  O   UNK N   1       1.151  -0.719   1.550  0.00  0.00    -0.271 OA
HETATM   19  H   UNK N   1       1.740  -0.391  -1.496  0.00  0.00     0.169 HD
BRANCH  17  20
HETATM   20  C   UNK N   1       1.947   1.266   0.612  0.00  0.00     0.374 C 
BRANCH  20  21
HETATM   21  N   UNK N   1       2.230   1.917  -0.669  0.00  0.00     0.097 N 
HETATM   22  C   UNK N   1       3.357   1.291  -1.380  0.00  0.00     0.273 C 
HETATM   23  C   UNK N   1       4.697   1.384  -0.630  0.00  0.00     0.036 C 
HETATM   24  C   UNK N   1       4.637   2.348   0.551  0.00  0.00     0.006 C 
HETATM   25  C   UNK N   1       3.906   3.630   0.163  0.00  0.00     0.036 C 
HETATM   26  C   UNK N   1       2.501   3.342  -0.410  0.00  0.00     0.273 C 
BRANCH  24  27
HETATM   27  C   UNK N   1       6.019   2.614   1.130  0.00  0.00     0.115 C 
BRANCH  27  28
HETATM   28  N   UNK N   1       6.894   3.214   0.136  0.00  0.00    -0.430 N 
HETATM   29  H   UNK N   1       7.566   2.893  -0.561  0.00  0.00     0.149 HD
HETATM   30  H   UNK N   1       6.815   4.231   0.136  0.00  0.00     0.149 HD
ENDBRANCH  27  28
ENDBRANCH  24  27
ENDBRANCH  20  21
ENDBRANCH  17  20
ENDBRANCH   1  16
BRANCH  11  31
HETATM   31  C   UNK N   1      -4.991  -0.761   0.621  0.00  0.00     0.038 C 
HETATM   32  C   UNK N   1      -6.129  -0.715  -0.401  0.00  0.00     0.011 C 
HETATM   33  C   UNK N   1      -7.012   0.518  -0.184  0.00  0.00     0.001 C 
HETATM   34  C   UNK N   1      -6.221   1.820   0.017  0.00  0.00     0.000 C 
HETATM   35  C   UNK N   1      -4.728   1.650  -0.246  0.00  0.00     0.001 C 
HETATM   36  C   UNK N   1      -4.160   0.538   0.636  0.00  0.00     0.011 C 
ENDBRANCH  11  31
TORSDOF 6
