REMARK  3 active torsions:
REMARK  status: ('A' for Active; 'I' for Inactive)
REMARK    1  A    between atoms: N_3  and  N_8 
REMARK       I    between atoms: N_8  and  C_9 
REMARK       I    between atoms: C_9  and  N_10 
REMARK    2  A    between atoms: N_10  and  C_11 
REMARK    3  A    between atoms: C_23  and  C_24 
ROOT
HETATM    1  C   UNK N   1       1.461  -1.876  -0.379  0.00  0.00     0.051 A 
HETATM    2  C   UNK N   1       2.134  -3.098  -0.548  0.00  0.00     0.030 A 
HETATM    3  C   UNK N   1       1.414  -4.316  -0.499  0.00  0.00     0.003 A 
HETATM    4  C   UNK N   1       0.018  -4.320  -0.300  0.00  0.00     0.015 A 
HETATM    5  C   UNK N   1      -0.622  -3.092  -0.150  0.00  0.00     0.009 A 
HETATM    6  C   UNK N   1       0.083  -1.903  -0.189  0.00  0.00     0.054 A 
HETATM    7  C   UNK N   1      -2.028  -2.741  -0.002  0.00  0.00     0.076 A 
HETATM    8  C   UNK N   1      -2.197  -1.404   0.044  0.00  0.00     0.073 A 
HETATM    9  C   UNK N   1      -0.874  -0.793  -0.062  0.00  0.00     0.200 A 
HETATM   10  N   UNK N   1      -3.202  -3.382   0.030  0.00  0.00    -0.298 N 
ATOM     11  HN  UNK N   1      -3.343  -4.392   0.010  1.00  0.00     0.187 HD
HETATM   12  N   UNK N   1      -4.151  -2.449   0.091  0.00  0.00    -0.298 N 
HETATM   13  C   UNK N   1      -3.566  -1.219   0.109  0.00  0.00     0.083 A 
HETATM   14  O   UNK N   1      -0.608   0.392  -0.148  0.00  0.00    -0.286 OA
HETATM   15  H   UNK N   1      -5.120  -2.621   0.120  0.00  0.00     0.187 HD
ENDROOT
BRANCH   1  16
HETATM   16  N   UNK N   1       2.144  -0.637  -0.440  0.00  0.00    -0.307 N 
HETATM   17  C   UNK N   1       2.277   0.162   0.652  0.00  0.00     0.335 C 
HETATM   18  N   UNK N   1       2.705   1.442   0.523  0.00  0.00    -0.271 N 
HETATM   19  O   UNK N   1       1.990  -0.260   1.763  0.00  0.00    -0.246 OA
HETATM   20  H   UNK N   1       2.881   1.967   1.337  0.00  0.00     0.185 HD
HETATM   21  H   UNK N   1       2.533  -0.347  -1.296  0.00  0.00     0.170 HD
BRANCH  18  22
HETATM   22  N   UNK N   1       2.905   2.045  -0.720  0.00  0.00    -0.224 NA
HETATM   23  C   UNK N   1       3.993   1.386  -1.461  0.00  0.00     0.144 C 
HETATM   24  C   UNK N   1       5.383   1.642  -0.860  0.00  0.00     0.288 C 
HETATM   25  N   UNK N   1       5.322   2.534   0.294  0.00  0.00     0.086 N 
HETATM   26  C   UNK N   1       4.635   3.759  -0.097  0.00  0.00     0.288 C 
HETATM   27  C   UNK N   1       6.689   2.890   0.625  0.00  0.00     0.310 C 
HETATM   28  C   UNK N   1       3.179   3.471  -0.497  0.00  0.00     0.144 C 
ENDBRANCH  18  22
ENDBRANCH   1  16
BRANCH  13  29
HETATM   29  C   UNK N   1      -4.346   0.040   0.100  0.00  0.00     0.058 A 
HETATM   30  S   UNK N   1      -5.946   0.119  -0.325  0.00  0.00    -0.073 SA
HETATM   31  C   UNK N   1      -6.135   1.749  -0.178  0.00  0.00     0.048 A 
HETATM   32  N   UNK N   1      -4.971   2.308   0.231  0.00  0.00    -0.357 N 
HETATM   33  C   UNK N   1      -7.376   2.516  -0.459  0.00  0.00     0.076 C 
HETATM   34  C   UNK N   1      -3.969   1.373   0.392  0.00  0.00     0.025 A 
ATOM     35  HN  UNK N   1      -4.848   3.306   0.402  1.00  0.00     0.166 HD
HETATM   36  C   UNK N   1      -2.639   1.790   0.892  0.00  0.00     0.070 C 
ENDBRANCH  13  29
TORSDOF 3
