REMARK  8 active torsions:
REMARK  status: ('A' for Active; 'I' for Inactive)
REMARK    1  A    between atoms: C_2  and  C_4 
REMARK    2  A    between atoms: C_2  and  C_29 
REMARK    3  A    between atoms: C_3  and  C_5 
REMARK       I    between atoms: C_4  and  N_30 
REMARK    4  A    between atoms: C_5  and  C_8 
REMARK    5  A    between atoms: C_5  and  O_19 
REMARK    6  A    between atoms: C_11  and  S_20 
REMARK    7  A    between atoms: S_20  and  N_23 
REMARK    8  A    between atoms: N_28  and  C_29 
ROOT
HETATM    1  S   UNK N   1      -0.599  -0.205   0.664  0.00  0.00     0.244 S 
HETATM    2  O   UNK N   1      -0.146  -0.585   2.084  0.00  0.00    -0.206 OA
HETATM    3  O   UNK N   1      -1.876  -1.033   0.453  0.00  0.00    -0.206 OA
ENDROOT
BRANCH   1   4
HETATM    4  C   UNK N   1      -0.849   1.528   0.417  0.00  0.00     0.074 A 
HETATM    5  C   UNK N   1      -0.055   2.182  -0.525  0.00  0.00     0.025 A 
HETATM    6  C   UNK N   1      -0.156   3.558  -0.687  0.00  0.00     0.012 A 
HETATM    7  C   UNK N   1      -1.049   4.297   0.101  0.00  0.00    -0.015 A 
HETATM    8  C   UNK N   1      -1.867   3.623   1.027  0.00  0.00     0.012 A 
HETATM    9  C   UNK N   1      -1.772   2.239   1.181  0.00  0.00     0.025 A 
BRANCH   7  10
HETATM   10  C   UNK N   1      -1.058   5.807   0.023  0.00  0.00     0.179 C 
HETATM   11  C   UNK N   1      -0.547   6.346   1.352  0.00  0.00     0.061 C 
BRANCH  10  12
HETATM   12  C   UNK N   1      -2.459   6.374  -0.260  0.00  0.00     0.422 C 
HETATM   13  F   UNK N   1      -2.929   5.909  -1.475  0.00  0.00    -0.167 F 
HETATM   14  F   UNK N   1      -2.396   7.756  -0.306  0.00  0.00    -0.167 F 
HETATM   15  F   UNK N   1      -3.350   6.011   0.736  0.00  0.00    -0.167 F 
ENDBRANCH  10  12
BRANCH  10  16
HETATM   16  O   UNK N   1      -0.186   6.244  -0.982  0.00  0.00    -0.376 OA
HETATM   17  H   UNK N   1       0.378   5.872  -1.678  0.00  0.00     0.211 HD
ENDBRANCH  10  16
ENDBRANCH   7  10
ENDBRANCH   1   4
BRANCH   1  18
HETATM   18  N   UNK N   1       0.635  -0.829  -0.468  0.00  0.00    -0.199 NA
HETATM   19  C   UNK N   1       0.150  -2.048  -1.128  0.00  0.00     0.138 C 
HETATM   20  C   UNK N   1       1.240  -3.107  -1.276  0.00  0.00     0.288 C 
HETATM   21  N   UNK N   1       1.861  -3.426   0.026  0.00  0.00     0.092 N 
HETATM   22  C   UNK N   1       2.189  -2.241   0.839  0.00  0.00     0.292 C 
HETATM   23  C   UNK N   1       2.010  -0.928   0.073  0.00  0.00     0.098 C 
HETATM   24  C   UNK N   1       2.403   0.266   0.932  0.00  0.00     0.029 C 
BRANCH  21  25
HETATM   25  C   UNK N   1       1.088  -4.348   0.877  0.00  0.00     0.291 C 
BRANCH  25  26
HETATM   26  C   UNK N   1      -0.060  -5.090   0.179  0.00  0.00     0.067 A 
HETATM   27  C   UNK N   1       0.273  -6.055  -0.945  0.00  0.00     0.022 A 
HETATM   28  C   UNK N   1       0.020  -6.577   0.454  0.00  0.00     0.022 A 
BRANCH  26  29
HETATM   29  C   UNK N   1      -1.471  -4.588   0.325  0.00  0.00     0.226 C 
HETATM   30  O   UNK N   1      -2.350  -4.982  -0.428  0.00  0.00    -0.273 OA
HETATM   31  N   UNK N   1      -1.776  -3.708   1.297  0.00  0.00    -0.369 N 
HETATM   32  H   UNK N   1      -1.330  -3.193   2.008  0.00  0.00     0.159 HD
HETATM   33  H   UNK N   1      -2.743  -3.522   1.297  0.00  0.00     0.159 HD
ENDBRANCH  26  29
ENDBRANCH  25  26
ENDBRANCH  21  25
ENDBRANCH   1  18
TORSDOF 8
