REMARK  9 active torsions:
REMARK  status: ('A' for Active; 'I' for Inactive)
REMARK    1  A    between atoms: C_6  and  N_7 
REMARK    2  A    between atoms: N_7  and  C_8 
REMARK    3  A    between atoms: C_8  and  N_10 
REMARK    4  A    between atoms: C_11  and  N_10 
REMARK    5  A    between atoms: C_11  and  C_12 
REMARK    6  A    between atoms: C_11  and  C_16 
REMARK    7  A    between atoms: C_12  and  C_13 
REMARK       I    between atoms: C_16  and  N_18 
REMARK    8  A    between atoms: C_19  and  N_18 
REMARK    9  A    between atoms: C_23  and  O_24 
ROOT
HETATM    1  C   UNK N   1       0.027  -0.015   0.592  0.00  0.00     0.176 C 
ENDROOT
BRANCH   1   2
HETATM    2  N   UNK N   1      -1.214   0.201  -0.143  0.00  0.00    -0.354 N 
HETATM    3  H   UNK N   1      -1.192   0.883  -0.852  0.00  0.00     0.162 HD
BRANCH   2   4
HETATM    4  C   UNK N   1      -2.460  -0.471   0.057  0.00  0.00     0.172 C 
HETATM    5  S   UNK N   1      -2.511  -1.751   0.725  0.00  0.00    -0.041 SA
BRANCH   4   6
HETATM    6  N   UNK N   1      -3.655   0.248  -0.274  0.00  0.00    -0.333 N 
HETATM    7  H   UNK N   1      -3.514   1.160  -0.618  0.00  0.00     0.168 HD
BRANCH   6   8
HETATM    8  C   UNK N   1      -5.019  -0.162  -0.178  0.00  0.00     0.034 A 
HETATM    9  C   UNK N   1      -5.394  -1.505  -0.007  0.00  0.00     0.029 A 
HETATM   10  C   UNK N   1      -6.744  -1.857   0.076  0.00  0.00     0.002 A 
HETATM   11  C   UNK N   1      -7.731  -0.872  -0.010  0.00  0.00     0.000 A 
HETATM   12  C   UNK N   1      -7.367   0.465  -0.185  0.00  0.00     0.002 A 
HETATM   13  C   UNK N   1      -6.016   0.816  -0.274  0.00  0.00     0.029 A 
ENDBRANCH   6   8
ENDBRANCH   4   6
ENDBRANCH   2   4
ENDBRANCH   1   2
BRANCH   1  14
HETATM   14  C   UNK N   1       0.545  -1.459   0.480  0.00  0.00     0.038 C 
BRANCH  14  15
HETATM   15  C   UNK N   1       0.905  -1.917  -0.925  0.00  0.00    -0.020 C 
HETATM   16  C   UNK N   1       2.344  -1.551  -1.235  0.00  0.00     0.009 C 
HETATM   17  C   UNK N   1       0.777  -3.425  -0.981  0.00  0.00     0.009 C 
ENDBRANCH  14  15
ENDBRANCH   1  14
BRANCH   1  18
HETATM   18  C   UNK N   1       1.062   0.992   0.146  0.00  0.00     0.240 C 
HETATM   19  O   UNK N   1       0.798   1.792  -0.740  0.00  0.00    -0.271 OA
HETATM   20  N   UNK N   1       2.283   1.007   0.743  0.00  0.00    -0.352 N 
HETATM   21  H   UNK N   1       2.472   0.342   1.444  0.00  0.00     0.163 HD
BRANCH  20  22
HETATM   22  C   UNK N   1       3.318   1.958   0.394  0.00  0.00     0.113 C 
HETATM   23  C   UNK N   1       3.750   1.805  -1.054  0.00  0.00     0.196 C 
HETATM   24  O   UNK N   1       5.152   1.851  -1.094  0.00  0.00    -0.359 OA
HETATM   25  C   UNK N   1       5.553   1.241   0.103  0.00  0.00     0.258 C 
HETATM   26  C   UNK N   1       4.571   1.666   1.171  0.00  0.00     0.088 C 
BRANCH  25  27
HETATM   27  O   UNK N   1       5.540  -0.150  -0.042  0.00  0.00    -0.371 OA
HETATM   28  H   UNK N   1       4.700  -0.624  -0.143  0.00  0.00     0.212 HD
ENDBRANCH  25  27
ENDBRANCH  20  22
ENDBRANCH   1  18
TORSDOF 9
