REMARK  2 active torsions:
REMARK  status: ('A' for Active; 'I' for Inactive)
REMARK    1  A    between atoms: C_17  and  N_16 
REMARK    2  A    between atoms: C_18  and  C_17 
ROOT
HETATM    1  O   UNK N   1      -0.211   2.276  -0.067  0.00  0.00    -0.264 OA
HETATM    2  C   UNK N   1       0.072   1.092   0.005  0.00  0.00     0.290 A 
HETATM    3  C   UNK N   1       1.407   0.671   0.025  0.00  0.00     0.118 A 
HETATM    4  N   UNK N   1       2.563   1.394  -0.029  0.00  0.00    -0.345 N 
HETATM    5  C   UNK N   1       2.717   2.838  -0.108  0.00  0.00     0.156 C 
HETATM    6  C   UNK N   1       3.556   0.476  -0.001  0.00  0.00     0.053 A 
HETATM    7  C   UNK N   1       4.972   0.564  -0.040  0.00  0.00     0.045 A 
HETATM    8  C   UNK N   1       5.538  -0.735   0.010  0.00  0.00    -0.018 A 
HETATM    9  C   UNK N   1       6.985  -1.067  -0.018  0.00  0.00     0.056 C 
HETATM   10  S   UNK N   1       4.290  -1.853   0.097  0.00  0.00    -0.092 SA
HETATM   11  C   UNK N   1       3.047  -0.782   0.074  0.00  0.00     0.046 A 
HETATM   12  C   UNK N   1       1.691  -0.671   0.097  0.00  0.00     0.033 A 
HETATM   13  C   UNK N   1       0.702  -1.615   0.171  0.00  0.00     0.122 A 
HETATM   14  N   UNK N   1      -0.584  -1.177   0.159  0.00  0.00    -0.306 N 
ATOM     15  HN  UNK N   1      -1.332  -1.868   0.229  1.00  0.00     0.186 HD
HETATM   16  N   UNK N   1      -0.921   0.114   0.061  0.00  0.00    -0.252 N 
ENDROOT
BRANCH  16  17
HETATM   17  C   UNK N   1      -2.338   0.517   0.017  0.00  0.00     0.194 C 
BRANCH  17  18
HETATM   18  C   UNK N   1      -3.508  -0.481   0.004  0.00  0.00     0.000 A 
HETATM   19  C   UNK N   1      -3.485  -1.908  -0.142  0.00  0.00     0.124 A 
HETATM   20  C   UNK N   1      -4.681  -2.632  -0.128  0.00  0.00     0.043 A 
HETATM   21  F   UNK N   1      -2.368  -2.637  -0.322  0.00  0.00    -0.205 F 
HETATM   22  C   UNK N   1      -5.905  -1.991   0.016  0.00  0.00     0.003 A 
HETATM   23  C   UNK N   1      -5.947  -0.608   0.142  0.00  0.00     0.001 A 
HETATM   24  C   UNK N   1      -4.764   0.132   0.136  0.00  0.00     0.012 A 
ENDBRANCH  17  18
ENDBRANCH  16  17
TORSDOF 2
