REMARK  4 active torsions:
REMARK  status: ('A' for Active; 'I' for Inactive)
REMARK    1  A    between atoms: C_10  and  C_11 
REMARK       I    between atoms: C_11  and  N_13 
REMARK    2  A    between atoms: C_14  and  N_13 
REMARK    3  A    between atoms: C_19  and  N_20 
REMARK       I    between atoms: N_20  and  C_21 
REMARK    4  A    between atoms: C_21  and  C_23 
ROOT
HETATM    1  C   UNK N   1      -2.011   1.235  -1.016  0.00  0.00     0.107 C 
HETATM    2  C   UNK N   1      -3.513   1.502  -1.228  0.00  0.00     0.027 C 
HETATM    3  C   UNK N   1      -4.362   1.187   0.004  0.00  0.00     0.002 C 
HETATM    4  C   UNK N   1      -3.781   1.832   1.260  0.00  0.00     0.002 C 
HETATM    5  C   UNK N   1      -2.340   1.368   1.480  0.00  0.00     0.027 C 
HETATM    6  C   UNK N   1      -1.456   1.796   0.308  0.00  0.00     0.107 C 
ENDROOT
BRANCH   1   7
HETATM    7  N   UNK N   1      -1.598  -0.148  -1.104  0.00  0.00    -0.349 N 
HETATM    8  C   UNK N   1      -2.051  -1.245  -0.457  0.00  0.00     0.268 C 
HETATM    9  O   UNK N   1      -3.165  -1.292   0.049  0.00  0.00    -0.266 OA
HETATM   10  H   UNK N   1      -0.866  -0.318  -1.741  0.00  0.00     0.163 HD
BRANCH   8  11
HETATM   11  C   UNK N   1      -1.110  -2.349  -0.311  0.00  0.00     0.102 A 
HETATM   12  N   UNK N   1       0.213  -2.140  -0.521  0.00  0.00    -0.351 N 
HETATM   13  C   UNK N   1       0.802  -3.307  -0.277  0.00  0.00     0.043 A 
HETATM   14  H   UNK N   1       0.647  -1.300  -0.796  0.00  0.00     0.166 HD
HETATM   15  C   UNK N   1       2.162  -3.572  -0.372  0.00  0.00     0.032 A 
HETATM   16  C   UNK N   1      -0.113  -4.260   0.070  0.00  0.00    -0.005 A 
HETATM   17  C   UNK N   1       2.584  -4.886  -0.131  0.00  0.00     0.026 A 
HETATM   18  C   UNK N   1       1.643  -5.888   0.197  0.00  0.00     0.035 A 
HETATM   19 Cl   UNK N   1       2.188  -7.535   0.409  0.00  0.00    -0.084 Cl
HETATM   20  C   UNK N   1       0.271  -5.575   0.313  0.00  0.00     0.037 A 
HETATM   21  C   UNK N   1      -1.362  -3.662   0.082  0.00  0.00     0.049 A 
ENDBRANCH   8  11
ENDBRANCH   1   7
BRANCH   6  22
HETATM   22  N   UNK N   1      -1.372   3.239   0.271  0.00  0.00    -0.349 N 
HETATM   23  C   UNK N   1      -0.253   4.017   0.162  0.00  0.00     0.275 C 
HETATM   24  O   UNK N   1      -0.401   5.226   0.231  0.00  0.00    -0.265 OA
HETATM   25  H   UNK N   1      -2.228   3.722   0.333  0.00  0.00     0.163 HD
BRANCH  23  26
HETATM   26  C   UNK N   1       1.140   3.514  -0.090  0.00  0.00     0.143 A 
HETATM   27  N   UNK N   1       1.573   2.220  -0.169  0.00  0.00    -0.348 N 
HETATM   28  C   UNK N   1       2.926   2.139  -0.453  0.00  0.00     0.026 A 
ATOM     29  HN  UNK N   1       0.970   1.408  -0.034  1.00  0.00     0.166 HD
HETATM   30  C   UNK N   1       3.567   3.359  -0.615  0.00  0.00     0.035 A 
HETATM   31  C   UNK N   1       3.679   0.851  -0.564  0.00  0.00     0.088 C 
HETATM   32  S   UNK N   1       2.429   4.523  -0.379  0.00  0.00    -0.068 SA
HETATM   33  C   UNK N   1       5.014   3.526  -0.938  0.00  0.00     0.320 C 
HETATM   34  N   UNK N   1       5.782   2.310  -0.635  0.00  0.00     0.089 N 
HETATM   35  C   UNK N   1       6.109   2.277   0.783  0.00  0.00     0.310 C 
HETATM   36  C   UNK N   1       5.130   1.057  -1.069  0.00  0.00     0.278 C 
ENDBRANCH  23  26
ENDBRANCH   6  22
TORSDOF 4
