REMARK  3 active torsions:
REMARK  status: ('A' for Active; 'I' for Inactive)
REMARK    1  A    between atoms: S_2  and  N_4 
REMARK    2  A    between atoms: S_2  and  C_5 
REMARK    3  A    between atoms: C_11  and  C_12 
ROOT
HETATM    1  C   UNK N   1      -0.918   1.930   0.181  0.00  0.00     0.207 A 
HETATM    2  S   UNK N   1       0.496   1.055   0.087  0.00  0.00    -0.037 SA
HETATM    3  N   UNK N   1      -1.950   1.030   0.221  0.00  0.00    -0.282 N 
ATOM      4  HN  UNK N   1      -2.925   1.311   0.320  1.00  0.00     0.188 HD
HETATM    5  N   UNK N   1      -1.566  -0.262   0.117  0.00  0.00    -0.291 N 
ATOM      6  HN  UNK N   1      -2.227  -1.038   0.103  1.00  0.00     0.187 HD
HETATM    7  C   UNK N   1      -0.220  -0.433   0.032  0.00  0.00     0.103 A 
ENDROOT
BRANCH   7   8
HETATM    8  C   UNK N   1       0.493  -1.735  -0.010  0.00  0.00     0.021 A 
HETATM    9  C   UNK N   1       1.892  -1.716  -0.132  0.00  0.00     0.016 A 
HETATM   10  C   UNK N   1       2.628  -2.900  -0.147  0.00  0.00     0.001 A 
HETATM   11  C   UNK N   1       1.976  -4.126  -0.033  0.00  0.00     0.002 A 
HETATM   12  C   UNK N   1       0.587  -4.168   0.090  0.00  0.00     0.025 A 
HETATM   13  C   UNK N   1      -0.165  -2.987   0.100  0.00  0.00     0.047 A 
HETATM   14 Cl   UNK N   1      -1.908  -3.144   0.281  0.00  0.00    -0.083 Cl
ENDBRANCH   7   8
BRANCH   1  15
HETATM   15  S   UNK N   1      -1.094   3.720   0.610  0.00  0.00     0.280 S 
HETATM   16  O   UNK N   1      -1.250   5.085  -0.074  0.00  0.00    -0.199 OA
HETATM   17  O   UNK N   1      -2.290   3.462  -0.319  0.00  0.00    -0.199 OA
BRANCH  15  18
HETATM   18  N   UNK N   1       0.182   3.741  -0.612  0.00  0.00    -0.323 N 
HETATM   19  H   UNK N   1       0.561   3.109  -1.318  0.00  0.00     0.169 HD
HETATM   20  H   UNK N   1       0.678   4.632  -0.612  0.00  0.00     0.169 HD
ENDBRANCH  15  18
ENDBRANCH   1  15
TORSDOF 3
