REMARK  16 active torsions:
REMARK  status: ('A' for Active; 'I' for Inactive)
REMARK    1  A    between atoms: C_1  and  C_2 
REMARK    2  A    between atoms: C_1  and  C_28 
REMARK    3  A    between atoms: C_2  and  C_3 
REMARK    4  A    between atoms: C_3  and  C_4 
REMARK    5  A    between atoms: C_4  and  C_5 
REMARK    6  A    between atoms: C_5  and  C_6 
REMARK    7  A    between atoms: C_6  and  O_7 
REMARK    8  A    between atoms: C_8  and  O_7 
REMARK    9  A    between atoms: C_10  and  C_11 
REMARK   10  A    between atoms: C_11  and  O_12 
REMARK   11  A    between atoms: C_13  and  O_14 
REMARK   12  A    between atoms: C_16  and  O_17 
REMARK   13  A    between atoms: C_18  and  O_17 
REMARK   14  A    between atoms: C_22  and  O_23 
REMARK   15  A    between atoms: C_24  and  O_25 
REMARK   16  A    between atoms: C_26  and  O_27 
ROOT
HETATM    1  C   UNK N   1      -0.513  -1.226  -0.696  0.00  0.00     0.289 C 
HETATM    2  O   UNK N   1      -0.325  -2.571  -0.298  0.00  0.00    -0.349 OA
HETATM    3  C   UNK N   1      -1.560  -3.299  -0.215  0.00  0.00     0.177 C 
HETATM    4  C   UNK N   1      -2.833  -2.397  -0.106  0.00  0.00     0.151 C 
HETATM    5  C   UNK N   1      -2.527  -1.261   0.856  0.00  0.00     0.071 C 
HETATM    6  C   UNK N   1      -1.319  -0.411   0.359  0.00  0.00     0.182 C 
ENDROOT
BRANCH   6   7
HETATM    7  O   UNK N   1      -1.661   0.821  -0.261  0.00  0.00    -0.348 OA
BRANCH   7   8
HETATM    8  C   UNK N   1      -2.769   1.480   0.319  0.00  0.00     0.292 C 
HETATM    9  O   UNK N   1      -3.957   0.908  -0.213  0.00  0.00    -0.351 OA
HETATM   10  C   UNK N   1      -5.109   1.519   0.338  0.00  0.00     0.152 C 
HETATM   11  C   UNK N   1      -6.328   0.773  -0.175  0.00  0.00     0.042 C 
HETATM   12  C   UNK N   1      -5.176   2.996  -0.088  0.00  0.00     0.178 C 
HETATM   13  C   UNK N   1      -3.922   3.708   0.431  0.00  0.00     0.183 C 
HETATM   14  C   UNK N   1      -2.682   2.966  -0.079  0.00  0.00     0.204 C 
BRANCH  12  15
HETATM   15  O   UNK N   1      -6.320   3.606   0.433  0.00  0.00    -0.390 OA
HETATM   16  H   UNK N   1      -6.350   4.506   0.795  0.00  0.00     0.210 HD
ENDBRANCH  12  15
BRANCH  13  17
HETATM   17  O   UNK N   1      -3.904   5.035  -0.008  0.00  0.00    -0.390 OA
HETATM   18  H   UNK N   1      -3.100   5.484  -0.312  0.00  0.00     0.210 HD
ENDBRANCH  13  17
BRANCH  14  19
HETATM   19  O   UNK N   1      -1.525   3.542   0.452  0.00  0.00    -0.388 OA
HETATM   20  H   UNK N   1      -0.777   3.046   0.821  0.00  0.00     0.210 HD
ENDBRANCH  14  19
ENDBRANCH   7   8
ENDBRANCH   6   7
BRANCH   1  21
HETATM   21  O   UNK N   1       0.711  -0.620  -1.062  0.00  0.00    -0.359 OA
BRANCH  21  22
HETATM   22  C   UNK N   1       1.590  -0.592   0.030  0.00  0.00     0.171 C 
BRANCH  22  23
HETATM   23  C   UNK N   1       2.352   0.725   0.014  0.00  0.00     0.026 C 
BRANCH  23  24
HETATM   24  C   UNK N   1       3.147   0.853  -1.281  0.00  0.00     0.002 C 
BRANCH  24  25
HETATM   25  C   UNK N   1       4.618   0.519  -1.084  0.00  0.00     0.000 C 
BRANCH  25  26
HETATM   26  C   UNK N   1       4.814  -0.923  -0.644  0.00  0.00     0.000 C 
BRANCH  26  27
HETATM   27  C   UNK N   1       5.416  -0.956   0.752  0.00  0.00    -0.000 C 
BRANCH  27  28
HETATM   28  C   UNK N   1       6.937  -0.946   0.699  0.00  0.00    -0.005 C 
HETATM   29  C   UNK N   1       7.467   0.427   0.325  0.00  0.00     0.005 C 
ENDBRANCH  27  28
ENDBRANCH  26  27
ENDBRANCH  25  26
ENDBRANCH  24  25
ENDBRANCH  23  24
ENDBRANCH  22  23
ENDBRANCH  21  22
ENDBRANCH   1  21
BRANCH   4  30
HETATM   30  O   UNK N   1      -3.958  -3.112   0.313  0.00  0.00    -0.393 OA
HETATM   31  H   UNK N   1      -4.778  -2.685   0.604  0.00  0.00     0.210 HD
ENDBRANCH   4  30
BRANCH   3  32
HETATM   32  C   UNK N   1      -1.427  -4.223   0.996  0.00  0.00     0.198 C 
BRANCH  32  33
HETATM   33  O   UNK N   1      -2.412  -5.214   0.978  0.00  0.00    -0.398 OA
HETATM   34  H   UNK N   1      -3.350  -4.966   0.966  0.00  0.00     0.209 HD
ENDBRANCH  32  33
ENDBRANCH   3  32
TORSDOF 16
