REMARK  1 active torsions:
REMARK  status: ('A' for Active; 'I' for Inactive)
REMARK    1  A    between atoms: C_13  and  O_1 
ROOT
HETATM    1  O   UNK N   1      12.572  -7.560   0.755  0.00  0.00    -0.298 OA
HETATM    2  C   UNK N   1      18.552  -5.707   0.653  0.00  0.00    -0.005 C 
HETATM    3  C   UNK N   1      17.404  -5.235  -0.280  0.00  0.00    -0.002 C 
HETATM    4  C   UNK N   1      19.903  -5.050   0.293  0.00  0.00     0.001 C 
HETATM    5  C   UNK N   1      19.812  -3.522   0.217  0.00  0.00    -0.014 C 
HETATM    6  C   UNK N   1      16.050  -5.855   0.173  0.00  0.00    -0.036 C 
HETATM    7  C   UNK N   1      16.167  -7.410   0.189  0.00  0.00     0.001 C 
HETATM    8  C   UNK N   1      17.335  -3.698  -0.292  0.00  0.00     0.007 C 
HETATM    9  C   UNK N   1      18.670  -3.096  -0.725  0.00  0.00     0.012 C 
HETATM   10  C   UNK N   1      18.655  -7.236   0.620  0.00  0.00     0.006 C 
HETATM   11  C   UNK N   1      20.465  -5.422  -1.074  0.00  0.00     0.008 C 
HETATM   12  C   UNK N   1      21.147  -3.148  -0.421  0.00  0.00     0.126 C 
HETATM   13  C   UNK N   1      17.338  -7.875   1.061  0.00  0.00     0.006 C 
HETATM   14  C   UNK N   1      21.373  -4.249  -1.462  0.00  0.00     0.033 C 
HETATM   15  C   UNK N   1      14.933  -5.427  -0.805  0.00  0.00     0.017 C 
HETATM   16  C   UNK N   1      19.608  -2.861   1.579  0.00  0.00     0.018 C 
HETATM   17  C   UNK N   1      15.675  -5.334   1.570  0.00  0.00     0.016 C 
HETATM   18  C   UNK N   1      14.881  -8.039   0.744  0.00  0.00     0.083 C 
HETATM   19  C   UNK N   1      13.743  -6.394  -0.926  0.00  0.00     0.079 C 
HETATM   20  C   UNK N   1      13.648  -7.363   0.215  0.00  0.00     0.127 C 
ENDROOT
BRANCH  12  21
HETATM   21  O   UNK N   1      22.183  -3.216   0.518  0.00  0.00    -0.395 OA
HETATM   22  H   UNK N   1      22.501  -3.861   1.168  0.00  0.00     0.210 HD
ENDBRANCH  12  21
TORSDOF 1
