REMARK  15 active torsions:
REMARK  status: ('A' for Active; 'I' for Inactive)
REMARK    1  A    between atoms: C_5  and  C_4 
REMARK    2  A    between atoms: C_6  and  C_4 
REMARK    3  A    between atoms: C_7  and  C_5 
REMARK    4  A    between atoms: C_13  and  C_6 
REMARK    5  A    between atoms: C_17  and  C_7 
REMARK    6  A    between atoms: C_13  and  C_8 
REMARK    7  A    between atoms: C_14  and  C_8 
REMARK    8  A    between atoms: C_15  and  C_9 
REMARK    9  A    between atoms: C_18  and  C_10 
REMARK   10  A    between atoms: C_16  and  C_11 
REMARK   11  A    between atoms: C_16  and  C_12 
REMARK   12  A    between atoms: O_20  and  C_12 
REMARK   13  A    between atoms: C_17  and  C_16 
REMARK   14  A    between atoms: C_17  and  O_21 
REMARK   15  A    between atoms: O_23  and  C_18 
ROOT
HETATM    1  C   UNK N   1       5.436  -1.790   0.995  0.00  0.00     0.004 C 
ENDROOT
BRANCH   1   2
HETATM    2  C   UNK N   1       4.496  -2.903   0.504  0.00  0.00     0.000 C 
BRANCH   2   3
HETATM    3  C   UNK N   1       3.921  -2.735  -0.904  0.00  0.00     0.002 C 
BRANCH   3   4
HETATM    4  C   UNK N   1       2.618  -1.927  -0.894  0.00  0.00     0.032 C 
BRANCH   4   5
HETATM    5  C   UNK N   1       1.503  -2.578  -0.065  0.00  0.00     0.130 C 
BRANCH   5   6
HETATM    6  C   UNK N   1       0.257  -1.665   0.040  0.00  0.00     0.099 C 
BRANCH   6   7
HETATM    7  C   UNK N   1      -0.833  -2.336   0.827  0.00  0.00     0.240 C 
HETATM    8  O   UNK N   1      -1.340  -3.377   0.439  0.00  0.00    -0.306 OA
ENDBRANCH   6   7
BRANCH   6   9
HETATM    9  C   UNK N   1       0.561  -0.353   0.767  0.00  0.00     0.178 C 
BRANCH   9  10
HETATM   10  O   UNK N   1       1.365   0.487  -0.005  0.00  0.00    -0.400 OA
HETATM   11  H   UNK N   1       2.150   0.295  -0.542  0.00  0.00     0.209 HD
ENDBRANCH   9  10
ENDBRANCH   6   9
ENDBRANCH   5   6
BRANCH   5  12
HETATM   12  O   UNK N   1       1.161  -3.792  -0.666  0.00  0.00    -0.395 OA
HETATM   13  H   UNK N   1       0.313  -4.008  -1.083  0.00  0.00     0.210 HD
ENDBRANCH   5  12
ENDBRANCH   4   5
ENDBRANCH   3   4
ENDBRANCH   2   3
ENDBRANCH   1   2
BRANCH   1  14
HETATM   14  C   UNK N   1       5.014  -0.368   0.633  0.00  0.00    -0.015 C 
HETATM   15  C   UNK N   1       5.417   0.590   1.744  0.00  0.00     0.010 C 
BRANCH  14  16
HETATM   16  C   UNK N   1       5.597   0.040  -0.731  0.00  0.00     0.038 C 
BRANCH  16  17
HETATM   17  C   UNK N   1       6.973   0.654  -0.660  0.00  0.00    -0.083 C 
HETATM   18  C   UNK N   1       7.034   2.124  -0.915  0.00  0.00     0.043 C 
HETATM   19  C   UNK N   1       8.074  -0.095  -0.393  0.00  0.00     0.009 C 
BRANCH  19  20
HETATM   20  C   UNK N   1       9.471   0.448  -0.252  0.00  0.00    -0.055 C 
HETATM   21  C   UNK N   1       9.707   1.924  -0.114  0.00  0.00     0.048 C 
HETATM   22  C   UNK N   1      10.518  -0.414  -0.232  0.00  0.00     0.087 C 
BRANCH  22  23
HETATM   23  C   UNK N   1      11.948  -0.013  -0.089  0.00  0.00     0.165 C 
HETATM   24  O   UNK N   1      12.274   1.149   0.089  0.00  0.00    -0.647 OA
BRANCH  23  25
HETATM   25  O   UNK N   1      12.905  -0.959  -0.160  0.00  0.00    -0.773 OA
HETATM   26  H   UNK N   1      12.668  -1.864  -0.209  0.00  0.00     0.167 HD
ENDBRANCH  23  25
ENDBRANCH  22  23
ENDBRANCH  19  20
ENDBRANCH  16  17
ENDBRANCH  14  16
ENDBRANCH   1  14
TORSDOF 15
