REMARK  4 active torsions:
REMARK  status: ('A' for Active; 'I' for Inactive)
REMARK    1  A    between atoms: C_14  and  C_11 
REMARK    2  A    between atoms: C_19  and  C_15 
REMARK    3  A    between atoms: N_28  and  C_20 
REMARK    4  A    between atoms: N_28  and  C_21 
REMARK       I    between atoms: N_24  and  C_22 
ROOT
HETATM    1  C   UNK N   1       4.164  -7.517   0.367  0.00  0.00     0.136 C 
HETATM    2  C   UNK N   1       5.162  -8.584   0.188  0.00  0.00     0.060 C 
HETATM    3  N   UNK N   1       5.960  -9.411   0.040  0.00  0.00    -0.197 NA
ENDROOT
BRANCH   1   4
HETATM    4  C   UNK N   1       4.494  -6.046  -0.006  0.00  0.00     0.044 C 
HETATM    5  C   UNK N   1       5.631  -5.107   0.434  0.00  0.00    -0.015 C 
HETATM    6  C   UNK N   1       5.496  -3.745   0.333  0.00  0.00     0.026 C 
HETATM    7  C   UNK N   1       4.169  -3.124  -0.006  0.00  0.00     0.048 C 
HETATM    8  C   UNK N   1       3.035  -4.063  -0.159  0.00  0.00     0.026 C 
HETATM    9  N   UNK N   1       3.972  -1.819   0.048  0.00  0.00    -0.192 N 
HETATM   10  C   UNK N   1       3.167  -5.374  -0.088  0.00  0.00    -0.015 C 
HETATM   11  C   UNK N   1       2.653  -1.206  -0.008  0.00  0.00     0.684 A 
ATOM     12  HN  UNK N   1       4.786  -1.210   0.133  1.00  0.00     0.184 HD
HETATM   13  N   UNK N   1       1.573  -2.005   0.006  0.00  0.00    -0.191 N 
HETATM   14  N   UNK N   1       2.459   0.158  -0.002  0.00  0.00    -0.175 N 
HETATM   15  C   UNK N   1       0.321  -1.561   0.002  0.00  0.00     0.063 A 
ATOM     16  HN  UNK N   1       1.723  -3.014   0.020  1.00  0.00     0.184 HD
HETATM   17  C   UNK N   1      -0.707  -2.502   0.008  0.00  0.00     0.031 A 
HETATM   18  C   UNK N   1       0.064  -0.183  -0.005  0.00  0.00     0.036 A 
HETATM   19  C   UNK N   1      -2.031  -2.088   0.005  0.00  0.00     0.002 A 
HETATM   20  C   UNK N   1      -2.318  -0.729  -0.003  0.00  0.00     0.001 A 
HETATM   21  C   UNK N   1      -1.277   0.200  -0.008  0.00  0.00     0.017 A 
HETATM   22  C   UNK N   1       1.186   0.717  -0.005  0.00  0.00     0.135 A 
ATOM     23  HN  UNK N   1       3.272   0.774   0.006  1.00  0.00     0.186 HD
BRANCH  22  24
HETATM   24  N   UNK N   1       1.087   2.170  -0.006  0.00  0.00    -0.326 N 
ATOM     25  HN  UNK N   1       1.997   2.631  -0.008  1.00  0.00     0.169 HD
BRANCH  24  26
HETATM   26  C   UNK N   1       0.087   3.014  -0.005  0.00  0.00     0.123 A 
HETATM   27  C   UNK N   1       0.235   4.388  -0.010  0.00  0.00     0.076 A 
HETATM   28  C   UNK N   1      -1.076   4.862  -0.013  0.00  0.00     0.033 A 
HETATM   29  N   UNK N   1      -1.932   3.832  -0.002  0.00  0.00    -0.303 N 
HETATM   30  N   UNK N   1      -1.223   2.713   0.003  0.00  0.00    -0.285 N 
HETATM   31  H   UNK N   1      -2.914   3.895   0.002  0.00  0.00     0.186 HD
HETATM   32  H   UNK N   1      -1.597   1.803   0.011  0.00  0.00     0.188 HD
BRANCH  28  33
HETATM   33  C   UNK N   1      -1.407   6.325   0.071  0.00  0.00     0.037 A 
HETATM   34  C   UNK N   1      -1.838   7.764  -0.043  0.00  0.00     0.011 A 
HETATM   35  C   UNK N   1      -2.903   6.690   0.001  0.00  0.00     0.011 A 
ENDBRANCH  28  33
ENDBRANCH  24  26
ENDBRANCH  22  24
ENDBRANCH   1   4
TORSDOF 4
