REMARK  17 active torsions:
REMARK  status: ('A' for Active; 'I' for Inactive)
REMARK    1  A    between atoms: P_2  and  O_1 
REMARK    2  A    between atoms: P_2  and  O_28 
REMARK    3  A    between atoms: O_20  and  P_2 
REMARK    4  A    between atoms: C_4  and  C_3 
REMARK    5  A    between atoms: C_3  and  O_19 
REMARK    6  A    between atoms: C_7  and  C_8 
REMARK    7  A    between atoms: C_8  and  C_10 
REMARK    8  A    between atoms: C_9  and  C_10 
REMARK    9  A    between atoms: C_11  and  C_12 
REMARK   10  A    between atoms: C_12  and  C_13 
REMARK   11  A    between atoms: C_13  and  C_14 
REMARK   12  A    between atoms: C_15  and  C_16 
REMARK   13  A    between atoms: C_16  and  C_17 
REMARK   14  A    between atoms: C_17  and  C_18 
REMARK   15  A    between atoms: O_19  and  P_21 
REMARK   16  A    between atoms: P_21  and  O_20 
REMARK   17  A    between atoms: P_21  and  O_29 
ROOT
HETATM    1  C   UNK N   1       1.406   0.000   0.469  0.00  0.00     0.037 C 
ENDROOT
BRANCH   1   2
HETATM    2  C   UNK N   1       0.638  -0.161  -0.834  0.00  0.00     0.031 C 
BRANCH   2   3
HETATM    3  C   UNK N   1      -0.572  -1.004  -0.574  0.00  0.00    -0.024 C 
HETATM    4  C   UNK N   1      -1.572  -0.612   0.231  0.00  0.00    -0.087 C 
HETATM    5  C   UNK N   1      -1.553   0.716   0.922  0.00  0.00     0.043 C 
BRANCH   4   6
HETATM    6  C   UNK N   1      -2.704  -1.537   0.512  0.00  0.00     0.037 C 
BRANCH   6   7
HETATM    7  C   UNK N   1      -3.600  -1.691  -0.702  0.00  0.00     0.031 C 
BRANCH   7   8
HETATM    8  C   UNK N   1      -5.025  -1.579  -0.259  0.00  0.00    -0.024 C 
HETATM    9  C   UNK N   1      -5.598  -0.414   0.073  0.00  0.00    -0.087 C 
HETATM   10  C   UNK N   1      -4.850   0.883   0.002  0.00  0.00     0.043 C 
BRANCH   9  11
HETATM   11  C   UNK N   1      -7.016  -0.423   0.530  0.00  0.00     0.037 C 
BRANCH  11  12
HETATM   12  C   UNK N   1      -7.893   0.317  -0.459  0.00  0.00     0.031 C 
BRANCH  12  13
HETATM   13  C   UNK N   1      -9.299  -0.162  -0.307  0.00  0.00    -0.024 C 
HETATM   14  C   UNK N   1     -10.320   0.657  -0.038  0.00  0.00    -0.091 C 
HETATM   15  C   UNK N   1     -11.688   0.086   0.097  0.00  0.00     0.042 C 
HETATM   16  C   UNK N   1     -10.126   2.131   0.123  0.00  0.00     0.042 C 
ENDBRANCH  12  13
ENDBRANCH  11  12
ENDBRANCH   9  11
ENDBRANCH   7   8
ENDBRANCH   6   7
ENDBRANCH   4   6
ENDBRANCH   2   3
ENDBRANCH   1   2
BRANCH   1  17
HETATM   17  C   UNK N   1       2.579   0.903   0.319  0.00  0.00    -0.085 C 
HETATM   18  C   UNK N   1       3.787   0.432   0.636  0.00  0.00     0.002 C 
HETATM   19  C   UNK N   1       2.377   2.320  -0.126  0.00  0.00     0.043 C 
BRANCH  18  20
HETATM   20  C   UNK N   1       5.017   1.271   0.553  0.00  0.00     0.208 C 
BRANCH  20  21
HETATM   21  O   UNK N   1       5.874   0.729  -0.404  0.00  0.00    -0.293 OA
BRANCH  21  22
HETATM   22  P   UNK N   1       7.379   0.474   0.422  0.00  0.00     0.402 P 
HETATM   23  O   UNK N   1       7.708   1.572  -0.624  0.00  0.00    -0.631 OA
BRANCH  22  24
HETATM   24  O   UNK N   1       8.710  -0.209  -0.465  0.00  0.00    -0.195 OA
BRANCH  24  25
HETATM   25  P   UNK N   1      10.057  -0.189   0.637  0.00  0.00     0.399 P 
HETATM   26  O   UNK N   1      10.488   0.850  -0.432  0.00  0.00    -0.631 OA
BRANCH  25  27
HETATM   27  O   UNK N   1      11.607  -0.774   0.122  0.00  0.00    -0.307 OA
HETATM   28  H   UNK N   1      11.756  -1.688  -0.166  0.00  0.00     0.222 HD
ENDBRANCH  25  27
BRANCH  25  29
HETATM   29  O   UNK N   1       9.906  -1.760  -0.084  0.00  0.00    -0.307 OA
HETATM   30  H   UNK N   1       9.103  -2.126  -0.487  0.00  0.00     0.222 HD
ENDBRANCH  25  29
ENDBRANCH  24  25
ENDBRANCH  22  24
BRANCH  22  31
HETATM   31  O   UNK N   1       6.870  -1.003  -0.338  0.00  0.00    -0.307 OA
HETATM   32  H   UNK N   1       6.014  -1.170  -0.762  0.00  0.00     0.222 HD
ENDBRANCH  22  31
ENDBRANCH  21  22
ENDBRANCH  20  21
ENDBRANCH  18  20
ENDBRANCH   1  17
TORSDOF 17
