REMARK  5 active torsions:
REMARK  status: ('A' for Active; 'I' for Inactive)
REMARK    1  A    between atoms: O_1  and  C_6 
REMARK    2  A    between atoms: O_2  and  C_9 
REMARK    3  A    between atoms: O_3  and  C_14 
REMARK    4  A    between atoms: C_5  and  C_11 
REMARK    5  A    between atoms: C_12  and  C_14 
ROOT
HETATM    1  C   UNK N   1      18.428  -7.407   0.000  0.00  0.00    -0.033 A 
HETATM    2  C   UNK N   1      16.963  -9.350  -0.000  0.00  0.00     0.102 A 
HETATM    3  C   UNK N   1      17.152  -7.966  -0.000  0.00  0.00     0.051 A 
HETATM    4  C   UNK N   1      19.552  -8.244   0.000  0.00  0.00     0.014 A 
HETATM    5  C   UNK N   1      18.103 -10.195   0.000  0.00  0.00     0.099 A 
HETATM    6  C   UNK N   1      19.386  -9.633   0.000  0.00  0.00     0.040 A 
ENDROOT
BRANCH   1   7
HETATM    7  C   UNK N   1      18.531  -5.941  -0.000  0.00  0.00     0.018 C 
HETATM    8  C   UNK N   1      19.682  -5.265   0.000  0.00  0.00     0.082 C 
BRANCH   8   9
HETATM    9  C   UNK N   1      19.668  -3.789   0.000  0.00  0.00     0.165 C 
HETATM   10  O   UNK N   1      18.610  -3.178  -0.000  0.00  0.00    -0.647 OA
BRANCH   9  11
HETATM   11  O   UNK N   1      20.829  -3.109   0.000  0.00  0.00    -0.773 OA
HETATM   12  H   UNK N   1      21.643  -3.573   0.000  0.00  0.00     0.167 HD
ENDBRANCH   9  11
ENDBRANCH   8   9
ENDBRANCH   1   7
BRANCH   2  13
HETATM   13  O   UNK N   1      15.683  -9.805  -0.000  0.00  0.00    -0.353 OA
HETATM   14  C   UNK N   1      15.306 -11.127  -0.000  0.00  0.00     0.210 C 
ENDBRANCH   2  13
BRANCH   5  15
HETATM   15  O   UNK N   1      17.982 -11.534   0.000  0.00  0.00    -0.358 OA
HETATM   16  H   UNK N   1      17.131 -11.928   0.000  0.00  0.00     0.217 HD
ENDBRANCH   5  15
TORSDOF 5
