REMARK  8 active torsions:
REMARK  status: ('A' for Active; 'I' for Inactive)
REMARK    1  A    between atoms: O_2  and  C_13 
REMARK    2  A    between atoms: O_3  and  C_14 
REMARK    3  A    between atoms: O_4  and  C_19 
REMARK    4  A    between atoms: O_5  and  C_20 
REMARK    5  A    between atoms: C_6  and  C_7 
REMARK    6  A    between atoms: C_6  and  C_8 
REMARK    7  A    between atoms: C_7  and  C_9 
REMARK    8  A    between atoms: C_9  and  C_10 
ROOT
HETATM    1  C   UNK N   1      31.316 -20.241   0.127  0.00  0.00     0.076 A 
HETATM    2  C   UNK N   1      32.586 -20.882   0.181  0.00  0.00     0.085 A 
HETATM    3  C   UNK N   1      30.161 -21.053  -0.010  0.00  0.00     0.085 A 
HETATM    4  C   UNK N   1      32.676 -22.272   0.105  0.00  0.00     0.074 A 
HETATM    5  C   UNK N   1      30.279 -22.443  -0.081  0.00  0.00     0.074 A 
HETATM    6  C   UNK N   1      31.531 -23.050  -0.024  0.00  0.00     0.071 A 
ENDROOT
BRANCH   1   7
HETATM    7  C   UNK N   1      31.192 -18.748   0.210  0.00  0.00     0.165 C 
HETATM    8  O   UNK N   1      30.114 -18.203   0.018  0.00  0.00    -0.292 OA
BRANCH   7   9
HETATM    9  C   UNK N   1      32.365 -17.894   0.560  0.00  0.00     0.088 C 
BRANCH   9  10
HETATM   10  C   UNK N   1      32.838 -17.099  -0.640  0.00  0.00     0.046 C 
BRANCH  10  11
HETATM   11  C   UNK N   1      34.208 -16.578  -0.378  0.00  0.00    -0.058 A 
HETATM   12  C   UNK N   1      34.406 -15.202  -0.241  0.00  0.00     0.010 A 
HETATM   13  C   UNK N   1      35.685 -14.701   0.012  0.00  0.00     0.037 A 
HETATM   14  C   UNK N   1      36.770 -15.575   0.125  0.00  0.00     0.065 A 
HETATM   15  C   UNK N   1      36.577 -16.953  -0.014  0.00  0.00     0.037 A 
HETATM   16  C   UNK N   1      35.296 -17.455  -0.265  0.00  0.00     0.010 A 
BRANCH  14  17
HETATM   17  O   UNK N   1      37.998 -15.090   0.367  0.00  0.00    -0.361 OA
HETATM   18  H   UNK N   1      38.720 -15.663   0.535  0.00  0.00     0.217 HD
ENDBRANCH  14  17
ENDBRANCH  10  11
ENDBRANCH   9  10
ENDBRANCH   7   9
ENDBRANCH   1   7
BRANCH   2  19
HETATM   19  O   UNK N   1      33.725 -20.180   0.293  0.00  0.00    -0.360 OA
HETATM   20  H   UNK N   1      34.547 -20.624   0.370  0.00  0.00     0.217 HD
ENDBRANCH   2  19
BRANCH   3  21
HETATM   21  O   UNK N   1      28.931 -20.510  -0.061  0.00  0.00    -0.360 OA
HETATM   22  H   UNK N   1      28.830 -19.579  -0.096  0.00  0.00     0.217 HD
ENDBRANCH   3  21
BRANCH   6  23
HETATM   23  O   UNK N   1      31.634 -24.386  -0.092  0.00  0.00    -0.361 OA
HETATM   24  H   UNK N   1      30.862 -24.915  -0.139  0.00  0.00     0.217 HD
ENDBRANCH   6  23
TORSDOF 8
