REMARK  11 active torsions:
REMARK  status: ('A' for Active; 'I' for Inactive)
REMARK    1  A    between atoms: O_31  and  C_2 
REMARK    2  A    between atoms: C_17  and  C_14 
REMARK    3  A    between atoms: C_24  and  C_14 
REMARK    4  A    between atoms: C_24  and  C_19 
REMARK    5  A    between atoms: C_25  and  C_20 
REMARK    6  A    between atoms: O_32  and  C_22 
REMARK    7  A    between atoms: O_32  and  C_23 
REMARK    8  A    between atoms: C_26  and  C_24 
REMARK    9  A    between atoms: N_27  and  C_25 
REMARK   10  A    between atoms: N_28  and  C_25 
REMARK   11  A    between atoms: O_31  and  C_26 
ROOT
HETATM    1  C   UNK N   1      -0.781   3.729   0.590  0.00  0.00     0.122 C 
ENDROOT
BRANCH   1   2
HETATM    2  C   UNK N   1      -0.601   3.184  -0.831  0.00  0.00     0.058 C 
BRANCH   2   3
HETATM    3  C   UNK N   1      -0.320   1.734  -0.805  0.00  0.00    -0.056 A 
HETATM    4  C   UNK N   1      -1.369   0.812  -0.713  0.00  0.00     0.008 A 
HETATM    5  C   UNK N   1      -1.092  -0.552  -0.607  0.00  0.00     0.013 A 
HETATM    6  C   UNK N   1       0.234  -0.990  -0.587  0.00  0.00    -0.026 A 
HETATM    7  C   UNK N   1       0.524  -2.346  -0.443  0.00  0.00     0.013 A 
HETATM    8  C   UNK N   1       1.288  -0.055  -0.699  0.00  0.00    -0.025 A 
HETATM    9  C   UNK N   1       1.855  -2.773  -0.401  0.00  0.00     0.012 A 
HETATM   10  C   UNK N   1       2.906  -1.846  -0.515  0.00  0.00    -0.017 A 
HETATM   11  C   UNK N   1       2.612  -0.487  -0.671  0.00  0.00     0.023 A 
HETATM   12  C   UNK N   1       1.005   1.301  -0.809  0.00  0.00     0.019 A 
BRANCH  10  13
HETATM   13  C   UNK N   1       4.345  -2.278  -0.469  0.00  0.00     0.202 C 
BRANCH  13  14
HETATM   14  N   UNK N   1       5.039  -1.590   0.607  0.00  0.00    -0.407 N 
HETATM   15  H   UNK N   1       5.700  -1.771   1.362  0.00  0.00     0.152 HD
HETATM   16  H   UNK N   1       4.780  -0.604   0.607  0.00  0.00     0.152 HD
ENDBRANCH  13  14
BRANCH  13  17
HETATM   17  N   UNK N   1       4.473  -3.715  -0.280  0.00  0.00    -0.407 N 
HETATM   18  H   UNK N   1       3.645  -4.296  -0.147  0.00  0.00     0.152 HD
HETATM   19  H   UNK N   1       5.398  -4.145  -0.280  0.00  0.00     0.152 HD
ENDBRANCH  13  17
ENDBRANCH  10  13
ENDBRANCH   2   3
ENDBRANCH   1   2
BRANCH   1  20
HETATM   20  C   UNK N   1      -0.620   5.220   0.532  0.00  0.00    -0.044 A 
HETATM   21  C   UNK N   1       0.591   5.753   0.065  0.00  0.00     0.011 A 
HETATM   22  C   UNK N   1       0.712   7.123  -0.174  0.00  0.00     0.037 A 
HETATM   23  C   UNK N   1      -0.381   7.967   0.033  0.00  0.00     0.069 A 
HETATM   24  C   UNK N   1      -1.561   7.440   0.578  0.00  0.00     0.037 A 
HETATM   25  C   UNK N   1      -1.677   6.080   0.834  0.00  0.00     0.011 A 
BRANCH  23  26
HETATM   26  O   UNK N   1      -0.295   9.262  -0.368  0.00  0.00    -0.344 OA
BRANCH  26  27
HETATM   27  C   UNK N   1      -1.370  10.098  -0.650  0.00  0.00     0.147 C 
HETATM   28  C   UNK N   1      -2.245  10.360   0.552  0.00  0.00     0.053 C 
HETATM   29  C   UNK N   1      -3.621   9.853   0.160  0.00  0.00     0.116 C 
HETATM   30  N   UNK N   1      -3.481   9.017  -1.026  0.00  0.00    -0.419 N 
HETATM   31  C   UNK N   1      -2.289   9.504  -1.706  0.00  0.00     0.146 C 
HETATM   32  H   UNK N   1      -4.089   8.252  -1.317  0.00  0.00     0.153 HD
ENDBRANCH  26  27
ENDBRANCH  23  26
ENDBRANCH   1  20
BRANCH   1  33
HETATM   33  C   UNK N   1      -2.074   3.223   1.210  0.00  0.00     0.267 C 
HETATM   34  O   UNK N   1      -2.001   2.570   2.239  0.00  0.00    -0.264 OA
BRANCH  33  35
HETATM   35  O   UNK N   1      -3.299   3.420   0.650  0.00  0.00    -0.321 OA
BRANCH  35  36
HETATM   36  C   UNK N   1      -3.518   4.084  -0.536  0.00  0.00     0.174 C 
HETATM   37  C   UNK N   1      -4.534   5.188  -0.318  0.00  0.00     0.034 C 
ENDBRANCH  35  36
ENDBRANCH  33  35
ENDBRANCH   1  33
TORSDOF 11
