REMARK  8 active torsions:
REMARK  status: ('A' for Active; 'I' for Inactive)
REMARK    1  A    between atoms: C_11  and  O_31 
REMARK    2  A    between atoms: C_12  and  O_32 
REMARK    3  A    between atoms: C_17  and  C_13 
REMARK    4  A    between atoms: O_22  and  C_13 
REMARK    5  A    between atoms: C_18  and  C_14 
REMARK    6  A    between atoms: O_24  and  C_14 
REMARK       I    between atoms: N_19  and  C_15 
REMARK    7  A    between atoms: O_31  and  C_15 
REMARK       I    between atoms: N_20  and  C_16 
REMARK    8  A    between atoms: O_32  and  C_16 
ROOT
HETATM    1  C   UNK N   1       3.294  -4.009   0.712  0.00  0.00     0.148 C 
HETATM    2  C   UNK N   1       0.877  -3.816   0.146  0.00  0.00     0.148 C 
HETATM    3  C   UNK N   1       3.532  -2.620   0.124  0.00  0.00     0.148 C 
HETATM    4  C   UNK N   1       1.155  -2.468  -0.509  0.00  0.00     0.148 C 
HETATM    5  C   UNK N   1       2.145  -5.816  -0.465  0.00  0.00     0.363 C 
HETATM    6  C   UNK N   1       2.183  -0.746   0.925  0.00  0.00     0.363 C 
HETATM    7  N   UNK N   1       2.097  -4.593   0.132  0.00  0.00    -0.325 N 
HETATM    8  N   UNK N   1       2.287  -1.879   0.162  0.00  0.00    -0.325 N 
HETATM    9  O   UNK N   1       3.216  -6.397  -0.571  0.00  0.00    -0.238 OA
HETATM   10  O   UNK N   1       3.146  -0.382   1.584  0.00  0.00    -0.238 OA
ENDROOT
BRANCH   5  11
HETATM   11  O   UNK N   1       1.028  -6.423  -0.947  0.00  0.00    -0.294 OA
BRANCH  11  12
HETATM   12  C   UNK N   1      -0.075  -6.746  -0.168  0.00  0.00     0.181 C 
HETATM   13  C   UNK N   1       0.333  -7.657   0.970  0.00  0.00     0.207 C 
HETATM   14  O   UNK N   1       1.039  -8.763   0.457  0.00  0.00    -0.344 OA
HETATM   15  C   UNK N   1       0.242  -9.523  -0.446  0.00  0.00     0.248 C 
HETATM   16  C   UNK N   1       1.219 -10.446  -1.160  0.00  0.00     0.091 C 
HETATM   17  O   UNK N   1      -0.344  -8.732  -1.480  0.00  0.00    -0.344 OA
HETATM   18  C   UNK N   1      -1.022  -7.601  -0.976  0.00  0.00     0.207 C 
BRANCH  15  19
HETATM   19  C   UNK N   1      -0.796 -10.357   0.292  0.00  0.00     0.205 C 
HETATM   20  O   UNK N   1      -0.757 -11.579   0.256  0.00  0.00    -0.646 OA
BRANCH  19  21
HETATM   21  O   UNK N   1      -1.767  -9.753   1.004  0.00  0.00    -0.772 OA
HETATM   22  H   UNK N   1      -1.741  -8.958   1.499  0.00  0.00     0.167 HD
ENDBRANCH  19  21
ENDBRANCH  15  19
ENDBRANCH  11  12
ENDBRANCH   5  11
BRANCH   6  23
HETATM   23  O   UNK N   1       1.034  -0.010   1.019  0.00  0.00    -0.294 OA
BRANCH  23  24
HETATM   24  C   UNK N   1       0.080   0.220   0.041  0.00  0.00     0.181 C 
HETATM   25  C   UNK N   1      -0.975   1.150   0.609  0.00  0.00     0.207 C 
HETATM   26  O   UNK N   1      -0.382   2.390   0.901  0.00  0.00    -0.344 OA
HETATM   27  C   UNK N   1       0.092   3.025  -0.285  0.00  0.00     0.248 C 
HETATM   28  C   UNK N   1      -0.868   4.164  -0.603  0.00  0.00     0.091 C 
HETATM   29  O   UNK N   1       0.114   2.171  -1.433  0.00  0.00    -0.344 OA
HETATM   30  C   UNK N   1       0.743   0.941  -1.136  0.00  0.00     0.207 C 
BRANCH  27  31
HETATM   31  C   UNK N   1       1.483   3.569  -0.002  0.00  0.00     0.205 C 
HETATM   32  O   UNK N   1       1.712   4.768  -0.054  0.00  0.00    -0.646 OA
BRANCH  31  33
HETATM   33  O   UNK N   1       2.476   2.725   0.343  0.00  0.00    -0.772 OA
HETATM   34  H   UNK N   1       2.313   1.834   0.583  0.00  0.00     0.167 HD
ENDBRANCH  31  33
ENDBRANCH  27  31
ENDBRANCH  23  24
ENDBRANCH   6  23
TORSDOF 8
