REMARK  12 active torsions:
REMARK  status: ('A' for Active; 'I' for Inactive)
REMARK    1  A    between atoms: C_2  and  C_1 
REMARK    2  A    between atoms: C_1  and  C_12 
REMARK    3  A    between atoms: C_3  and  C_2 
REMARK    4  A    between atoms: C_4  and  C_3 
REMARK    5  A    between atoms: C_5  and  C_4 
REMARK    6  A    between atoms: C_6  and  C_5 
REMARK    7  A    between atoms: C_7  and  C_6 
REMARK    8  A    between atoms: C_8  and  C_7 
REMARK    9  A    between atoms: C_7  and  O_15 
REMARK   10  A    between atoms: C_9  and  C_8 
REMARK   11  A    between atoms: O_11  and  C_9 
REMARK   12  A    between atoms: C_12  and  C_13 
ROOT
HETATM    1  C   UNK N   1      13.479  -7.345  -0.113  0.00  0.00     0.032 C 
ENDROOT
BRANCH   1   2
HETATM    2  C   UNK N   1      12.200  -6.545   0.056  0.00  0.00     0.002 C 
BRANCH   2   3
HETATM    3  C   UNK N   1      10.968  -7.410  -0.027  0.00  0.00     0.000 C 
BRANCH   3   4
HETATM    4  C   UNK N   1       9.780  -6.481   0.086  0.00  0.00     0.000 C 
BRANCH   4   5
HETATM    5  C   UNK N   1       8.487  -7.255   0.006  0.00  0.00     0.000 C 
BRANCH   5   6
HETATM    6  C   UNK N   1       7.339  -6.271   0.042  0.00  0.00     0.000 C 
BRANCH   6   7
HETATM    7  C   UNK N   1       6.031  -7.026  -0.020  0.00  0.00    -0.000 C 
BRANCH   7   8
HETATM    8  C   UNK N   1       4.881  -6.045   0.012  0.00  0.00    -0.005 C 
HETATM    9  C   UNK N   1       3.575  -6.810  -0.012  0.00  0.00     0.005 C 
ENDBRANCH   7   8
ENDBRANCH   6   7
ENDBRANCH   5   6
ENDBRANCH   4   5
ENDBRANCH   3   4
ENDBRANCH   2   3
ENDBRANCH   1   2
BRANCH   1  10
HETATM   10  C   UNK N   1      14.657  -6.387  -0.013  0.00  0.00     0.128 C 
BRANCH  10  11
HETATM   11  C   UNK N   1      15.973  -7.146  -0.130  0.00  0.00     0.141 C 
BRANCH  11  12
HETATM   12  C   UNK N   1      17.179  -6.255   0.013  0.00  0.00     0.141 C 
HETATM   13  O   UNK N   1      18.296  -6.740  -0.063  0.00  0.00    -0.650 OA
BRANCH  12  14
HETATM   14  O   UNK N   1      17.044  -4.929   0.222  0.00  0.00    -0.776 OA
HETATM   15  H   UNK N   1      17.795  -4.388   0.368  0.00  0.00     0.167 HD
ENDBRANCH  12  14
ENDBRANCH  11  12
ENDBRANCH  10  11
BRANCH  10  16
HETATM   16  O   UNK N   1      14.570  -5.438  -1.036  0.00  0.00    -0.395 OA
HETATM   17  H   UNK N   1      15.110  -5.056  -1.745  0.00  0.00     0.210 HD
ENDBRANCH  10  16
ENDBRANCH   1  10
TORSDOF 12
