REMARK  9 active torsions:
REMARK  status: ('A' for Active; 'I' for Inactive)
REMARK    1  A    between atoms: C_8  and  C_6 
REMARK    2  A    between atoms: C_17  and  C_6 
REMARK    3  A    between atoms: N_27  and  C_8 
REMARK    4  A    between atoms: C_10  and  C_9 
REMARK    5  A    between atoms: N_25  and  C_9 
REMARK    6  A    between atoms: N_30  and  C_10 
REMARK    7  A    between atoms: C_15  and  C_12 
REMARK    8  A    between atoms: N_25  and  C_12 
REMARK    9  A    between atoms: O_31  and  C_22 
ROOT
HETATM    1  C   UNK N   1       0.393  -5.577  -0.668  0.00  0.00     0.173 C 
HETATM    2  C   UNK N   1       0.755  -4.326   0.134  0.00  0.00     0.339 C 
HETATM    3  C   UNK N   1      -1.915  -4.664  -0.836  0.00  0.00     0.133 C 
HETATM    4  C   UNK N   1      -1.526  -3.464   0.012  0.00  0.00     0.426 C 
HETATM    5 Cl   UNK N   1       2.101  -4.783   1.220  0.00  0.00    -0.090 Cl
HETATM    6  N   UNK N   1      -3.133  -5.025  -1.083  0.00  0.00    -0.376 N 
ATOM      7  HN  UNK N   1      -3.261  -5.840  -1.683  1.00  0.00     0.160 HD
HETATM    8  N   UNK N   1      -0.871  -5.460  -1.360  0.00  0.00    -0.373 N 
HETATM    9  N   UNK N   1      -0.410  -3.830   0.908  0.00  0.00     0.146 N 
HETATM   10  H   UNK N   1      -1.007  -5.942  -2.207  0.00  0.00     0.161 HD
ENDROOT
BRANCH   9  11
HETATM   11  C   UNK N   1      -0.063  -2.709   1.811  0.00  0.00     0.297 C 
BRANCH  11  12
HETATM   12  C   UNK N   1       0.776  -1.599   1.170  0.00  0.00     0.144 C 
BRANCH  12  13
HETATM   13  N   UNK N   1      -0.014  -0.812   0.237  0.00  0.00    -0.416 N 
HETATM   14  H   UNK N   1      -0.989  -0.533   0.348  0.00  0.00     0.153 HD
BRANCH  13  15
HETATM   15  C   UNK N   1       0.856  -0.499  -0.884  0.00  0.00     0.154 C 
BRANCH  15  16
HETATM   16  C   UNK N   1       1.518   0.810  -0.638  0.00  0.00    -0.023 A 
HETATM   17  C   UNK N   1       0.818   2.032  -0.652  0.00  0.00     0.060 A 
HETATM   18  S   UNK N   1       1.948   3.204  -0.275  0.00  0.00    -0.101 SA
HETATM   19  C   UNK N   1       3.283   2.251  -0.086  0.00  0.00     0.015 A 
HETATM   20  C   UNK N   1       4.583   2.596   0.258  0.00  0.00     0.021 A 
HETATM   21  C   UNK N   1       2.897   0.940  -0.323  0.00  0.00    -0.009 A 
HETATM   22  C   UNK N   1       5.529   1.563   0.363  0.00  0.00     0.025 A 
HETATM   23  C   UNK N   1       5.154   0.224   0.122  0.00  0.00     0.035 A 
HETATM   24  C   UNK N   1       3.829  -0.095  -0.222  0.00  0.00     0.037 A 
HETATM   25 Cl   UNK N   1       6.347  -1.050   0.255  0.00  0.00    -0.084 Cl
ENDBRANCH  15  16
ENDBRANCH  13  15
ENDBRANCH  12  13
ENDBRANCH  11  12
ENDBRANCH   9  11
BRANCH   4  26
HETATM   26  O   UNK N   1      -2.587  -2.934   0.754  0.00  0.00    -0.362 OA
HETATM   27  H   UNK N   1      -2.636  -2.113   1.268  0.00  0.00     0.212 HD
ENDBRANCH   4  26
BRANCH   6  28
HETATM   28  C   UNK N   1      -4.326  -4.385  -0.590  0.00  0.00     0.123 C 
BRANCH  28  29
HETATM   29  C   UNK N   1      -4.856  -5.128   0.644  0.00  0.00     0.044 C 
BRANCH  29  30
HETATM   30  C   UNK N   1      -5.045  -6.638   0.455  0.00  0.00     0.078 C 
HETATM   31  C   UNK N   1      -5.986  -6.912  -0.726  0.00  0.00     0.025 C 
HETATM   32  C   UNK N   1      -6.229  -8.413  -0.917  0.00  0.00     0.004 C 
HETATM   33  C   UNK N   1      -5.078  -9.274  -0.393  0.00  0.00     0.019 C 
HETATM   34  C   UNK N   1      -3.755  -8.526  -0.511  0.00  0.00     0.114 C 
HETATM   35  N   UNK N   1      -3.734  -7.299   0.300  0.00  0.00    -0.417 N 
HETATM   36  H   UNK N   1      -2.881  -6.933   0.723  0.00  0.00     0.153 HD
ENDBRANCH  29  30
ENDBRANCH  28  29
ENDBRANCH   6  28
TORSDOF 9
