REMARK  4 active torsions:
REMARK  status: ('A' for Active; 'I' for Inactive)
REMARK    1  A    between atoms: O_25  and  C_13 
REMARK    2  A    between atoms: C_15  and  O_21 
REMARK    3  A    between atoms: O_22  and  C_16 
REMARK    4  A    between atoms: C_18  and  O_23 
ROOT
HETATM    1  C   UNK N   1       6.674   2.268   0.490  0.00  0.00     0.040 C 
HETATM    2  C   UNK N   1       9.055   0.156   0.046  0.00  0.00    -0.020 C 
HETATM    3  C   UNK N   1       5.493  -3.888   0.293  0.00  0.00    -0.023 C 
HETATM    4  C   UNK N   1       7.665  -0.011   0.598  0.00  0.00     0.059 C 
HETATM    5  C   UNK N   1       4.277  -3.898  -0.283  0.00  0.00     0.009 C 
HETATM    6  C   UNK N   1       9.901  -0.872  -0.230  0.00  0.00     0.049 C 
HETATM    7  C   UNK N   1       6.553  -4.891  -0.101  0.00  0.00     0.061 C 
HETATM    8  C   UNK N   1       1.920  -3.247   0.050  0.00  0.00     0.049 A 
HETATM    9  C   UNK N   1       1.207  -0.995   0.543  0.00  0.00     0.074 A 
HETATM   10  C   UNK N   1       6.580   0.855  -0.052  0.00  0.00     0.131 C 
HETATM   11  C   UNK N   1       3.254  -2.835  -0.025  0.00  0.00    -0.015 A 
HETATM   12  C   UNK N   1       0.895  -2.342   0.321  0.00  0.00     0.071 A 
HETATM   13  C   UNK N   1       9.615  -2.346  -0.133  0.00  0.00     0.180 C 
HETATM   14  C   UNK N   1       8.019  -4.406   0.084  0.00  0.00     0.158 C 
HETATM   15  C   UNK N   1       2.520  -0.540   0.445  0.00  0.00     0.085 A 
HETATM   16  C   UNK N   1       3.563  -1.437   0.125  0.00  0.00     0.083 A 
HETATM   17  C   UNK N   1       8.225  -2.916  -0.295  0.00  0.00     0.220 C 
HETATM   18  C   UNK N   1       4.923  -0.893  -0.181  0.00  0.00     0.297 C 
HETATM   19  O   UNK N   1      10.560  -3.110  -0.005  0.00  0.00    -0.290 OA
HETATM   20  O   UNK N   1       5.638  -1.511  -0.946  0.00  0.00    -0.259 OA
HETATM   21  O   UNK N   1       5.324   0.339   0.247  0.00  0.00    -0.312 OA
ENDROOT
BRANCH  12  22
HETATM   22  O   UNK N   1      -0.384  -2.784   0.345  0.00  0.00    -0.356 OA
HETATM   23  C   UNK N   1      -1.467  -1.947   0.492  0.00  0.00     0.210 C 
ENDBRANCH  12  22
BRANCH  15  24
HETATM   24  O   UNK N   1       2.758   0.776   0.594  0.00  0.00    -0.360 OA
HETATM   25  H   UNK N   1       3.634   1.091   0.698  0.00  0.00     0.217 HD
ENDBRANCH  15  24
BRANCH  14  26
HETATM   26  O   UNK N   1       8.847  -5.220  -0.691  0.00  0.00    -0.392 OA
HETATM   27  H   UNK N   1       8.645  -6.001  -1.230  0.00  0.00     0.210 HD
ENDBRANCH  14  26
BRANCH  17  28
HETATM   28  O   UNK N   1       7.827  -2.707  -1.618  0.00  0.00    -0.385 OA
HETATM   29  H   UNK N   1       7.815  -2.395  -2.537  0.00  0.00     0.210 HD
ENDBRANCH  17  28
TORSDOF 4
