REMARK  13 active torsions:
REMARK  status: ('A' for Active; 'I' for Inactive)
REMARK    1  A    between atoms: C_4  and  C_3 
REMARK    2  A    between atoms: N_17  and  C_3 
REMARK    3  A    between atoms: N_19  and  C_4 
REMARK    4  A    between atoms: C_9  and  O_31 
REMARK    5  A    between atoms: C_10  and  O_32 
REMARK    6  A    between atoms: C_15  and  C_11 
REMARK    7  A    between atoms: O_22  and  C_11 
REMARK    8  A    between atoms: C_16  and  C_12 
REMARK    9  A    between atoms: O_24  and  C_12 
REMARK   10  A    between atoms: O_25  and  C_13 
REMARK   11  A    between atoms: O_31  and  C_13 
REMARK   12  A    between atoms: O_26  and  C_14 
REMARK   13  A    between atoms: O_32  and  C_14 
ROOT
HETATM    1  C   UNK N   1       2.911  -3.147   0.823  0.00  0.00     0.143 C 
ENDROOT
BRANCH   1   2
HETATM    2  C   UNK N   1       1.417  -3.442   0.864  0.00  0.00     0.143 C 
BRANCH   2   3
HETATM    3  N   UNK N   1       0.652  -2.296   0.426  0.00  0.00    -0.349 N 
HETATM    4  C   UNK N   1       0.836  -1.697  -0.708  0.00  0.00     0.258 C 
ATOM      5  HN  UNK N   1      -0.075  -1.939   1.046  1.00  0.00     0.163 HD
BRANCH   4   6
HETATM    6  O   UNK N   1       1.807  -2.088  -1.553  0.00  0.00    -0.327 OA
HETATM    7  H   UNK N   1       1.909  -2.810  -2.142  0.00  0.00     0.221 HD
ENDBRANCH   4   6
BRANCH   4   8
HETATM    8  O   UNK N   1       0.076  -0.635  -1.057  0.00  0.00    -0.307 OA
BRANCH   8   9
HETATM    9  C   UNK N   1      -0.907  -0.081  -0.264  0.00  0.00     0.180 C 
HETATM   10  C   UNK N   1      -1.444   1.152  -0.957  0.00  0.00     0.206 C 
HETATM   11  O   UNK N   1      -0.395   2.071  -1.184  0.00  0.00    -0.344 OA
HETATM   12  C   UNK N   1       0.204   2.468   0.046  0.00  0.00     0.248 C 
HETATM   13  C   UNK N   1      -0.773   3.292   0.903  0.00  0.00     0.091 C 
HETATM   14  O   UNK N   1       0.711   1.354   0.771  0.00  0.00    -0.344 OA
HETATM   15  C   UNK N   1      -0.322   0.435   1.041  0.00  0.00     0.206 C 
BRANCH  12  16
HETATM   16  C   UNK N   1       1.402   3.312  -0.316  0.00  0.00     0.205 C 
HETATM   17  O   UNK N   1       1.500   4.469   0.064  0.00  0.00    -0.646 OA
BRANCH  16  18
HETATM   18  O   UNK N   1       2.386   2.779  -1.068  0.00  0.00    -0.772 OA
HETATM   19  H   UNK N   1       2.407   2.001  -1.590  0.00  0.00     0.167 HD
ENDBRANCH  16  18
ENDBRANCH  12  16
ENDBRANCH   8   9
ENDBRANCH   4   8
ENDBRANCH   2   3
ENDBRANCH   1   2
BRANCH   1  20
HETATM   20  N   UNK N   1       3.654  -4.306   0.384  0.00  0.00    -0.349 N 
HETATM   21  C   UNK N   1       3.413  -4.938  -0.725  0.00  0.00     0.258 C 
ATOM     22  HN  UNK N   1       4.410  -4.647   0.978  1.00  0.00     0.163 HD
BRANCH  21  23
HETATM   23  O   UNK N   1       2.404  -4.570  -1.531  0.00  0.00    -0.327 OA
HETATM   24  H   UNK N   1       2.275  -3.832  -2.094  0.00  0.00     0.221 HD
ENDBRANCH  21  23
BRANCH  21  25
HETATM   25  O   UNK N   1       4.159  -6.009  -1.078  0.00  0.00    -0.307 OA
BRANCH  25  26
HETATM   26  C   UNK N   1       5.163  -6.554  -0.308  0.00  0.00     0.180 C 
HETATM   27  C   UNK N   1       5.689  -7.789  -1.005  0.00  0.00     0.206 C 
HETATM   28  O   UNK N   1       4.640  -8.714  -1.199  0.00  0.00    -0.344 OA
HETATM   29  C   UNK N   1       4.072  -9.104   0.048  0.00  0.00     0.248 C 
HETATM   30  C   UNK N   1       5.073  -9.918   0.888  0.00  0.00     0.091 C 
HETATM   31  O   UNK N   1       3.578  -7.988   0.777  0.00  0.00    -0.344 OA
HETATM   32  C   UNK N   1       4.612  -7.060   1.015  0.00  0.00     0.206 C 
BRANCH  29  33
HETATM   33  C   UNK N   1       2.870  -9.957  -0.279  0.00  0.00     0.205 C 
HETATM   34  O   UNK N   1       2.787 -11.112   0.111  0.00  0.00    -0.646 OA
BRANCH  33  35
HETATM   35  O   UNK N   1       1.867  -9.434  -1.012  0.00  0.00    -0.772 OA
HETATM   36  H   UNK N   1       1.834  -8.649  -1.522  0.00  0.00     0.167 HD
ENDBRANCH  33  35
ENDBRANCH  29  33
ENDBRANCH  25  26
ENDBRANCH  21  25
ENDBRANCH   1  20
TORSDOF 13
