REMARK  9 active torsions:
REMARK  status: ('A' for Active; 'I' for Inactive)
REMARK    1  A    between atoms: C_4  and  C_3 
REMARK    2  A    between atoms: C_7  and  C_3 
REMARK    3  A    between atoms: C_8  and  C_4 
REMARK    4  A    between atoms: P_16  and  C_7 
REMARK    5  A    between atoms: S_17  and  C_8 
REMARK    6  A    between atoms: O_11  and  C_9 
REMARK    7  A    between atoms: S_17  and  C_10 
REMARK    8  A    between atoms: P_16  and  O_12 
REMARK    9  A    between atoms: P_16  and  O_13 
ROOT
HETATM    1  C   UNK N   1       1.188   3.036  -0.729  0.00  0.00     0.114 C 
ENDROOT
BRANCH   1   2
HETATM    2  C   UNK N   1       0.630   4.404  -0.366  0.00  0.00     0.013 C 
BRANCH   2   3
HETATM    3  C   UNK N   1      -0.715   4.236   0.313  0.00  0.00     0.012 C 
BRANCH   3   4
HETATM    4  C   UNK N   1      -1.181   5.521   0.973  0.00  0.00     0.125 C 
BRANCH   4   5
HETATM    5  P   UNK N   1      -2.546   6.309  -0.019  0.00  0.00     0.235 P 
HETATM    6  O   UNK N   1      -3.545   5.224  -0.503  0.00  0.00    -0.653 OA
BRANCH   5   7
HETATM    7  O   UNK N   1      -3.546   7.409   0.878  0.00  0.00    -0.329 OA
HETATM    8  H   UNK N   1      -3.293   8.200   1.379  0.00  0.00     0.220 HD
ENDBRANCH   5   7
BRANCH   5   9
HETATM    9  O   UNK N   1      -2.069   7.123  -1.477  0.00  0.00    -0.329 OA
HETATM   10  H   UNK N   1      -1.542   7.118  -2.291  0.00  0.00     0.220 HD
ENDBRANCH   5   9
ENDBRANCH   4   5
ENDBRANCH   3   4
ENDBRANCH   2   3
ENDBRANCH   1   2
BRANCH   1  11
HETATM   11  S   UNK N   1       1.948   2.264   0.738  0.00  0.00     0.052 S 
HETATM   12  O   UNK N   1       3.329   2.264   0.061  0.00  0.00    -0.253 OA
BRANCH  11  13
HETATM   13  C   UNK N   1       1.548   0.555   0.277  0.00  0.00     0.064 A 
HETATM   14  C   UNK N   1       2.579  -0.380   0.082  0.00  0.00     0.024 A 
HETATM   15  C   UNK N   1       2.282  -1.707  -0.239  0.00  0.00     0.002 A 
HETATM   16  C   UNK N   1       0.953  -2.116  -0.361  0.00  0.00     0.003 A 
HETATM   17  C   UNK N   1      -0.080  -1.199  -0.159  0.00  0.00     0.038 A 
HETATM   18  C   UNK N   1       0.210   0.131   0.163  0.00  0.00     0.084 A 
BRANCH  18  19
HETATM   19  O   UNK N   1      -0.801   0.993   0.369  0.00  0.00    -0.359 OA
HETATM   20  H   UNK N   1      -0.633   1.904   0.512  0.00  0.00     0.217 HD
ENDBRANCH  18  19
ENDBRANCH  11  13
ENDBRANCH   1  11
TORSDOF 9
