REMARK  5 active torsions:
REMARK  status: ('A' for Active; 'I' for Inactive)
REMARK    1  A    between atoms: C_4  and  N_28 
REMARK    2  A    between atoms: C_10  and  C_12 
REMARK    3  A    between atoms: C_13  and  N_19 
REMARK    4  A    between atoms: N_19  and  C_20 
REMARK    5  A    between atoms: C_20  and  C_21 
ROOT
HETATM    1  C   UNK N   1       1.731   1.672  -0.144  0.00  0.00     0.050 C 
HETATM    2  C   UNK N   1       1.875   0.191  -0.129  0.00  0.00    -0.031 A 
HETATM    3  C   UNK N   1       0.735  -0.646  -0.105  0.00  0.00     0.039 A 
HETATM    4  C   UNK N   1       0.881  -2.063  -0.084  0.00  0.00     0.042 A 
HETATM    5  C   UNK N   1       2.169  -2.625  -0.103  0.00  0.00     0.061 A 
HETATM    6  C   UNK N   1       3.253  -1.771  -0.127  0.00  0.00     0.063 A 
HETATM    7  C   UNK N   1       3.131  -0.423  -0.129  0.00  0.00     0.067 A 
HETATM    8  N   UNK N   1       4.357   0.135  -0.122  0.00  0.00    -0.339 N 
ATOM      9  HN  UNK N   1       4.597   1.127  -0.122  1.00  0.00     0.167 HD
HETATM   10  C   UNK N   1       5.203  -0.936  -0.113  0.00  0.00     0.124 A 
HETATM   11  N   UNK N   1       4.538  -2.112  -0.130  0.00  0.00    -0.340 N 
HETATM   12  H   UNK N   1       4.921  -3.019  -0.141  0.00  0.00     0.167 HD
ENDROOT
BRANCH  10  13
HETATM   13  C   UNK N   1       6.698  -0.849  -0.075  0.00  0.00     0.102 A 
HETATM   14  C   UNK N   1       7.521  -2.018  -0.103  0.00  0.00     0.049 A 
HETATM   15  C   UNK N   1       8.909  -1.880  -0.109  0.00  0.00     0.047 A 
HETATM   16  C   UNK N   1       9.490  -0.619  -0.058  0.00  0.00     0.093 A 
HETATM   17  N   UNK N   1       8.710   0.489  -0.014  0.00  0.00    -0.333 N 
HETATM   18  C   UNK N   1       7.341   0.413  -0.027  0.00  0.00     0.261 A 
HETATM   19  H   UNK N   1       9.140   1.374   0.028  0.00  0.00     0.168 HD
HETATM   20  O   UNK N   1       6.694   1.444   0.004  0.00  0.00    -0.267 OA
BRANCH  14  21
HETATM   21  N   UNK N   1       6.994  -3.337  -0.152  0.00  0.00    -0.383 N 
HETATM   22  H   UNK N   1       7.114  -3.869  -0.971  0.00  0.00     0.160 HD
BRANCH  21  23
HETATM   23  C   UNK N   1       6.288  -3.918   0.966  0.00  0.00     0.176 C 
BRANCH  23  24
HETATM   24  C   UNK N   1       5.536  -5.135   0.532  0.00  0.00     0.026 A 
HETATM   25  C   UNK N   1       4.140  -5.155   0.621  0.00  0.00     0.027 A 
HETATM   26  C   UNK N   1       3.441  -6.293   0.217  0.00  0.00     0.003 A 
HETATM   27  C   UNK N   1       4.141  -7.399  -0.265  0.00  0.00     0.017 A 
HETATM   28  C   UNK N   1       5.536  -7.347  -0.335  0.00  0.00     0.088 A 
HETATM   29  N   UNK N   1       6.201  -6.226   0.060  0.00  0.00    -0.368 N 
ATOM     30  HN  UNK N   1       7.219  -6.203   0.001  1.00  0.00     0.165 HD
ENDBRANCH  23  24
ENDBRANCH  21  23
ENDBRANCH  14  21
ENDBRANCH  10  13
BRANCH   4  31
HETATM   31  N   UNK N   1      -0.259  -2.931  -0.020  0.00  0.00    -0.317 N 
HETATM   32  C   UNK N   1      -1.554  -2.575   0.007  0.00  0.00     0.115 A 
HETATM   33  C   UNK N   1      -2.303  -3.734   0.085  0.00  0.00     0.106 A 
HETATM   34  N   UNK N   1      -1.464  -4.791   0.109  0.00  0.00    -0.360 N 
HETATM   35  C   UNK N   1      -0.222  -4.276   0.045  0.00  0.00     0.188 A 
ATOM     36  HN  UNK N   1      -1.718  -5.777   0.165  1.00  0.00     0.166 HD
ENDBRANCH   4  31
TORSDOF 5
