REMARK  5 active torsions:
REMARK  status: ('A' for Active; 'I' for Inactive)
REMARK    1  A    between atoms: C_7  and  C_3 
REMARK    2  A    between atoms: O_13  and  C_4 
REMARK    3  A    between atoms: C_8  and  C_7 
REMARK    4  A    between atoms: C_10  and  C_8 
REMARK    5  A    between atoms: O_12  and  C_10 
ROOT
HETATM    1  C   UNK N   1      12.076  -8.120  -0.000  0.00  0.00     0.010 A 
HETATM    2  C   UNK N   1      11.792  -9.487  -0.000  0.00  0.00     0.037 A 
HETATM    3  C   UNK N   1      11.049  -7.173  -0.000  0.00  0.00    -0.051 A 
HETATM    4  C   UNK N   1      10.467  -9.922  -0.000  0.00  0.00     0.065 A 
HETATM    5  C   UNK N   1       9.721  -7.620   0.000  0.00  0.00     0.010 A 
HETATM    6  C   UNK N   1       9.429  -8.988   0.000  0.00  0.00     0.037 A 
ENDROOT
BRANCH   3   7
HETATM    7  C   UNK N   1      11.280  -5.680   0.000  0.00  0.00     0.129 C 
BRANCH   7   8
HETATM    8  C   UNK N   1      12.597  -4.912  -0.000  0.00  0.00     0.226 C 
HETATM    9  O   UNK N   1      12.501  -3.694  -0.000  0.00  0.00    -0.286 OA
BRANCH   8  10
HETATM   10  C   UNK N   1      13.980  -5.470   0.000  0.00  0.00     0.213 C 
HETATM   11  O   UNK N   1      14.199  -6.666   0.000  0.00  0.00    -0.644 OA
BRANCH  10  12
HETATM   12  O   UNK N   1      15.026  -4.623  -0.000  0.00  0.00    -0.771 OA
HETATM   13  H   UNK N   1      15.901  -4.959  -0.000  0.00  0.00     0.167 HD
ENDBRANCH  10  12
ENDBRANCH   8  10
ENDBRANCH   7   8
ENDBRANCH   3   7
BRANCH   4  14
HETATM   14  O   UNK N   1      10.193 -11.236  -0.000  0.00  0.00    -0.361 OA
HETATM   15  H   UNK N   1       9.303 -11.529  -0.000  0.00  0.00     0.217 HD
ENDBRANCH   4  14
TORSDOF 5
