REMARK  6 active torsions:
REMARK  status: ('A' for Active; 'I' for Inactive)
REMARK    1  A    between atoms: C_5  and  C_3 
REMARK    2  A    between atoms: C_6  and  C_3 
REMARK    3  A    between atoms: C_9  and  C_6 
REMARK    4  A    between atoms: O_12  and  C_7 
REMARK    5  A    between atoms: O_13  and  C_8 
REMARK    6  A    between atoms: O_15  and  C_9 
ROOT
HETATM    1  C   UNK N   1       1.706   0.618  -0.812  0.00  0.00     0.010 A 
HETATM    2  C   UNK N   1       1.598   1.984  -0.549  0.00  0.00     0.040 A 
HETATM    3  C   UNK N   1      -0.528   0.266   0.053  0.00  0.00     0.047 A 
HETATM    4  C   UNK N   1       0.651  -0.250  -0.500  0.00  0.00    -0.050 A 
HETATM    5  C   UNK N   1       0.427   2.498   0.009  0.00  0.00     0.098 A 
HETATM    6  C   UNK N   1      -0.643   1.639   0.304  0.00  0.00     0.099 A 
ENDROOT
BRANCH   4   7
HETATM    7  C   UNK N   1       0.768  -1.718  -0.794  0.00  0.00     0.102 C 
BRANCH   7   8
HETATM    8  C   UNK N   1       1.973  -2.346  -0.142  0.00  0.00     0.081 C 
HETATM    9  N   UNK N   1       3.146  -1.906  -0.439  0.00  0.00    -0.397 N 
HETATM   10  H   UNK N   1       4.002  -2.305  -0.029  0.00  0.00     0.156 HD
ATOM     11  HN  UNK N   1       3.229  -1.136  -1.103  1.00  0.00     0.156 HD
BRANCH   8  12
HETATM   12  C   UNK N   1       1.802  -3.481   0.798  0.00  0.00     0.189 C 
HETATM   13  O   UNK N   1       2.777  -4.004   1.318  0.00  0.00    -0.645 OA
BRANCH  12  14
HETATM   14  O   UNK N   1       0.573  -3.952   1.075  0.00  0.00    -0.772 OA
HETATM   15  H   UNK N   1      -0.140  -3.376   1.268  0.00  0.00     0.167 HD
ENDBRANCH  12  14
ENDBRANCH   8  12
ENDBRANCH   7   8
ENDBRANCH   4   7
BRANCH   6  16
HETATM   16  O   UNK N   1      -1.780   2.130   0.827  0.00  0.00    -0.358 OA
HETATM   17  H   UNK N   1      -1.880   2.987   1.191  0.00  0.00     0.217 HD
ENDBRANCH   6  16
BRANCH   5  18
HETATM   18  O   UNK N   1       0.331   3.815   0.256  0.00  0.00    -0.358 OA
HETATM   19  H   UNK N   1       1.094   4.332   0.429  0.00  0.00     0.217 HD
ENDBRANCH   5  18
TORSDOF 6
