REMARK  4 active torsions:
REMARK  status: ('A' for Active; 'I' for Inactive)
REMARK    1  A    between atoms: C_4  and  C_3 
REMARK    2  A    between atoms: C_15  and  C_5 
REMARK    3  A    between atoms: O_23  and  C_20 
REMARK    4  A    between atoms: C_21  and  O_24 
ROOT
HETATM    1  C   UNK N   1      -3.265   1.067  -1.610  0.00  0.00     0.018 C 
HETATM    2  C   UNK N   1       0.365   5.277  -0.614  0.00  0.00     0.039 C 
HETATM    3  C   UNK N   1      -1.107   4.877  -0.741  0.00  0.00     0.010 C 
HETATM    4  C   UNK N   1      -3.796   3.876   0.854  0.00  0.00     0.008 C 
HETATM    5  C   UNK N   1      -4.659   2.758   1.439  0.00  0.00     0.033 C 
HETATM    6  C   UNK N   1      -0.886   1.104   0.182  0.00  0.00     0.010 C 
HETATM    7  C   UNK N   1      -2.336   0.993   0.688  0.00  0.00     0.013 C 
HETATM    8  C   UNK N   1       1.850   1.803  -0.045  0.00  0.00     0.022 A 
HETATM    9  C   UNK N   1       2.675   4.450  -0.206  0.00  0.00     0.045 A 
HETATM   10  C   UNK N   1       1.330   4.141  -0.406  0.00  0.00    -0.049 A 
HETATM   11  C   UNK N   1       3.205   2.097   0.144  0.00  0.00    -0.003 A 
HETATM   12  C   UNK N   1      -0.550   2.432  -0.549  0.00  0.00     0.024 C 
HETATM   13  C   UNK N   1      -1.457   3.560  -0.040  0.00  0.00    -0.001 C 
HETATM   14  C   UNK N   1       0.907   2.798  -0.335  0.00  0.00    -0.046 A 
HETATM   15  C   UNK N   1      -2.962   3.238  -0.266  0.00  0.00     0.001 C 
HETATM   16  C   UNK N   1       3.615   3.452   0.063  0.00  0.00     0.076 A 
HETATM   17  C   UNK N   1      -4.728   1.718   0.341  0.00  0.00     0.126 C 
HETATM   18  C   UNK N   1      -3.313   1.732  -0.231  0.00  0.00    -0.014 C 
ENDROOT
BRANCH  11  19
HETATM   19  C   UNK N   1       4.085   0.934   0.469  0.00  0.00     0.010 C 
HETATM   20  C   UNK N   1       5.397   0.777   0.200  0.00  0.00    -0.026 C 
BRANCH  20  21
HETATM   21  C   UNK N   1       6.233   1.744  -0.572  0.00  0.00     0.022 C 
HETATM   22  C   UNK N   1       7.455   2.142   0.231  0.00  0.00     0.009 C 
ENDBRANCH  20  21
ENDBRANCH  11  19
BRANCH  16  23
HETATM   23  O   UNK N   1       4.878   3.826   0.312  0.00  0.00    -0.360 OA
HETATM   24  H   UNK N   1       5.546   3.193   0.486  0.00  0.00     0.217 HD
ENDBRANCH  16  23
BRANCH  17  25
HETATM   25  O   UNK N   1      -5.656   2.153  -0.613  0.00  0.00    -0.395 OA
HETATM   26  H   UNK N   1      -5.717   2.861  -1.273  0.00  0.00     0.210 HD
ENDBRANCH  17  25
TORSDOF 4
