REMARK  2 active torsions:
REMARK  status: ('A' for Active; 'I' for Inactive)
REMARK    1  A    between atoms: C_11  and  S_14 
REMARK    2  A    between atoms: S_14  and  N_18 
ROOT
HETATM    1  C   UNK N   1      -2.381   3.815  -0.191  0.00  0.00     0.100 A 
HETATM    2  C   UNK N   1      -3.074   1.558  -0.430  0.00  0.00     0.088 A 
HETATM    3  C   UNK N   1      -1.747   1.116  -0.387  0.00  0.00     0.031 A 
HETATM    4  C   UNK N   1      -1.043   3.423  -0.147  0.00  0.00    -0.009 A 
HETATM    5  C   UNK N   1      -0.715   2.045  -0.244  0.00  0.00    -0.000 A 
HETATM    6  C   UNK N   1      -0.042   4.382  -0.009  0.00  0.00     0.014 A 
HETATM    7  C   UNK N   1       1.631   2.644  -0.068  0.00  0.00     0.026 A 
HETATM    8  C   UNK N   1       1.295   3.994   0.027  0.00  0.00     0.002 A 
HETATM    9  N   UNK N   1      -3.360   2.887  -0.331  0.00  0.00    -0.374 N 
ATOM     10  HN  UNK N   1      -4.334   3.190  -0.362  1.00  0.00     0.164 HD
HETATM   11  C   UNK N   1       0.642   1.654  -0.193  0.00  0.00     0.086 A 
ENDROOT
BRANCH  11  12
HETATM   12  S   UNK N   1       1.203  -0.068  -0.300  0.00  0.00     0.245 S 
HETATM   13  O   UNK N   1       2.637  -0.207  -0.837  0.00  0.00    -0.206 OA
HETATM   14  O   UNK N   1       1.745   0.149   1.122  0.00  0.00    -0.206 OA
BRANCH  12  15
HETATM   15  N   UNK N   1       0.627  -1.659   0.282  0.00  0.00    -0.199 NA
HETATM   16  C   UNK N   1      -0.636  -1.955  -0.391  0.00  0.00     0.127 C 
HETATM   17  C   UNK N   1      -1.162  -3.315   0.066  0.00  0.00     0.129 C 
HETATM   18  N   UNK N   1      -0.210  -4.356  -0.310  0.00  0.00    -0.418 N 
HETATM   19  C   UNK N   1       1.050  -4.094   0.377  0.00  0.00     0.134 C 
HETATM   20  H   UNK N   1      -0.394  -5.133  -0.944  0.00  0.00     0.153 HD
HETATM   21  C   UNK N   1       1.605  -2.727  -0.029  0.00  0.00     0.088 C 
HETATM   22  C   UNK N   1       2.902  -2.542   0.745  0.00  0.00     0.029 C 
ENDBRANCH  12  15
ENDBRANCH  11  12
TORSDOF 2
