REMARK  17 active torsions:
REMARK  status: ('A' for Active; 'I' for Inactive)
REMARK    1  A    between atoms: C_15  and  C_9 
REMARK    2  A    between atoms: C_17  and  C_9 
REMARK    3  A    between atoms: C_16  and  C_10 
REMARK    4  A    between atoms: C_14  and  C_11 
REMARK    5  A    between atoms: O_35  and  C_11 
REMARK    6  A    between atoms: C_18  and  C_12 
REMARK    7  A    between atoms: C_19  and  C_13 
REMARK    8  A    between atoms: N_23  and  C_13 
REMARK    9  A    between atoms: C_16  and  C_15 
REMARK   10  A    between atoms: C_15  and  N_25 
REMARK   11  A    between atoms: O_31  and  C_17 
REMARK   12  A    between atoms: C_20  and  C_18 
REMARK   13  A    between atoms: C_18  and  N_27 
REMARK   14  A    between atoms: C_19  and  O_32 
REMARK   15  A    between atoms: C_20  and  O_33 
REMARK   16  A    between atoms: C_21  and  O_34 
REMARK   17  A    between atoms: O_35  and  C_21 
ROOT
HETATM    1  C   UNK N   1       1.960   0.351   0.664  0.00  0.00     0.135 C 
HETATM    2  N   UNK N   1       2.841   0.112  -0.256  0.00  0.00    -0.361 N 
ATOM      3  HN  UNK N   1       2.590  -0.545  -0.994  1.00  0.00     0.162 HD
ENDROOT
BRANCH   1   4
HETATM    4  C   UNK N   1       0.562  -0.236   0.569  0.00  0.00     0.163 C 
BRANCH   4   5
HETATM    5  C   UNK N   1       0.333  -1.130  -0.673  0.00  0.00     0.008 C 
HETATM    6  C   UNK N   1       1.265  -2.336  -0.663  0.00  0.00     0.012 C 
HETATM    7  C   UNK N   1      -1.092  -1.658  -0.711  0.00  0.00     0.012 C 
ENDBRANCH   4   5
BRANCH   4   8
HETATM    8  N   UNK N   1      -0.429   0.834   0.639  0.00  0.00    -0.338 N 
HETATM    9  C   UNK N   1      -0.421   1.917  -0.074  0.00  0.00     0.259 C 
ATOM     10  HN  UNK N   1      -1.193   0.720   1.305  1.00  0.00     0.164 HD
BRANCH   9  11
HETATM   11  O   UNK N   1       0.562   2.153  -0.967  0.00  0.00    -0.327 OA
HETATM   12  H   UNK N   1       1.046   1.643  -1.587  0.00  0.00     0.221 HD
ENDBRANCH   9  11
BRANCH   9  13
HETATM   13  O   UNK N   1      -1.389   2.841   0.132  0.00  0.00    -0.312 OA
BRANCH  13  14
HETATM   14  C   UNK N   1      -1.274   4.129  -0.345  0.00  0.00     0.218 C 
BRANCH  14  15
HETATM   15  C   UNK N   1      -2.552   4.892  -0.191  0.00  0.00    -0.034 A 
HETATM   16  C   UNK N   1      -3.779   4.229  -0.035  0.00  0.00     0.009 A 
HETATM   17  C   UNK N   1      -4.965   4.961   0.070  0.00  0.00     0.001 A 
HETATM   18  C   UNK N   1      -4.932   6.358   0.020  0.00  0.00     0.000 A 
HETATM   19  C   UNK N   1      -3.712   7.023  -0.133  0.00  0.00     0.001 A 
HETATM   20  C   UNK N   1      -2.525   6.291  -0.244  0.00  0.00     0.009 A 
ENDBRANCH  14  15
ENDBRANCH  13  14
ENDBRANCH   9  13
ENDBRANCH   4   8
ENDBRANCH   1   4
BRANCH   1  21
HETATM   21  O   UNK N   1       2.254   1.164   1.701  0.00  0.00    -0.348 OA
HETATM   22  H   UNK N   1       2.844   1.270   2.421  0.00  0.00     0.219 HD
ENDBRANCH   1  21
BRANCH   2  23
HETATM   23  C   UNK N   1       4.161   0.717  -0.308  0.00  0.00     0.153 C 
HETATM   24  C   UNK N   1       4.957   0.416   0.960  0.00  0.00     0.041 C 
BRANCH  23  25
HETATM   25  C   UNK N   1       4.020   2.190  -0.605  0.00  0.00     0.135 C 
HETATM   26  N   UNK N   1       4.512   3.086   0.188  0.00  0.00    -0.361 N 
ATOM     27  HN  UNK N   1       5.040   2.781   1.006  1.00  0.00     0.162 HD
BRANCH  26  28
HETATM   28  C   UNK N   1       4.342   4.512  -0.042  0.00  0.00     0.165 C 
BRANCH  28  29
HETATM   29  C   UNK N   1       5.366   5.252   0.823  0.00  0.00     0.143 C 
BRANCH  29  30
HETATM   30  C   UNK N   1       5.793   6.581   0.267  0.00  0.00     0.141 C 
HETATM   31  O   UNK N   1       5.004   7.507   0.183  0.00  0.00    -0.650 OA
BRANCH  30  32
HETATM   32  O   UNK N   1       7.070   6.759  -0.118  0.00  0.00    -0.776 OA
HETATM   33  H   UNK N   1       7.622   6.050  -0.386  0.00  0.00     0.167 HD
ENDBRANCH  30  32
ENDBRANCH  29  30
ENDBRANCH  28  29
BRANCH  28  34
HETATM   34  C   UNK N   1       2.918   4.935   0.289  0.00  0.00     0.178 C 
HETATM   35  O   UNK N   1       2.133   4.128   0.767  0.00  0.00    -0.293 OA
BRANCH  34  36
HETATM   36  C   UNK N   1       2.452   6.332   0.014  0.00  0.00     0.302 C 
HETATM   37  F   UNK N   1       1.124   6.496   0.371  0.00  0.00    -0.247 F 
ENDBRANCH  34  36
ENDBRANCH  28  34
ENDBRANCH  26  28
BRANCH  25  38
HETATM   38  O   UNK N   1       3.362   2.560  -1.726  0.00  0.00    -0.348 OA
HETATM   39  H   UNK N   1       3.356   3.084  -2.503  0.00  0.00     0.219 HD
ENDBRANCH  25  38
ENDBRANCH  23  25
ENDBRANCH   2  23
TORSDOF 17
