REMARK  0 active torsions:
REMARK  status: ('A' for Active; 'I' for Inactive)
ROOT
HETATM    1  O   UNK N   1      29.103 -11.902  -0.691  0.00  0.00    -0.297 OA
HETATM    2  O   UNK N   1      20.016 -17.631  -0.394  0.00  0.00    -0.298 OA
HETATM    3  C   UNK N   1      22.865 -15.352   1.759  0.00  0.00     0.016 C 
HETATM    4  C   UNK N   1      27.085 -12.628   1.313  0.00  0.00     0.024 C 
HETATM    5  C   UNK N   1      23.449 -15.462   0.343  0.00  0.00    -0.036 C 
HETATM    6  C   UNK N   1      27.322 -13.338  -0.021  0.00  0.00     0.021 C 
HETATM    7  C   UNK N   1      24.840 -14.702   0.323  0.00  0.00    -0.002 C 
HETATM    8  C   UNK N   1      26.034 -15.603  -0.082  0.00  0.00    -0.004 C 
HETATM    9  C   UNK N   1      27.382 -14.870   0.154  0.00  0.00     0.006 C 
HETATM   10  C   UNK N   1      23.606 -16.952  -0.067  0.00  0.00     0.001 C 
HETATM   11  C   UNK N   1      26.236 -12.934  -1.018  0.00  0.00     0.018 C 
HETATM   12  C   UNK N   1      24.838 -13.431  -0.580  0.00  0.00     0.007 C 
HETATM   13  C   UNK N   1      26.048 -16.930   0.690  0.00  0.00     0.006 C 
HETATM   14  C   UNK N   1      24.694 -17.645   0.750  0.00  0.00     0.006 C 
HETATM   15  C   UNK N   1      28.475 -15.363  -0.796  0.00  0.00     0.013 C 
HETATM   16  C   UNK N   1      22.434 -14.859  -0.648  0.00  0.00     0.017 C 
HETATM   17  C   UNK N   1      29.499 -14.235  -0.861  0.00  0.00     0.079 C 
HETATM   18  C   UNK N   1      22.310 -17.749   0.084  0.00  0.00     0.083 C 
HETATM   19  C   UNK N   1      21.062 -15.544  -0.664  0.00  0.00     0.079 C 
HETATM   20  C   UNK N   1      28.686 -13.039  -0.529  0.00  0.00     0.135 C 
HETATM   21  C   UNK N   1      21.071 -17.020  -0.360  0.00  0.00     0.127 C 
ENDROOT
TORSDOF 0
