REMARK  5 active torsions:
REMARK  status: ('A' for Active; 'I' for Inactive)
REMARK    1  A    between atoms: C_15  and  C_5 
REMARK    2  A    between atoms: O_29  and  C_16 
REMARK    3  A    between atoms: N_23  and  C_18 
REMARK    4  A    between atoms: O_27  and  C_21 
REMARK    5  A    between atoms: O_29  and  C_21 
ROOT
HETATM    1  C   UNK N   1       1.691   0.154  -1.678  0.00  0.00     0.025 C 
HETATM    2  C   UNK N   1       2.556   4.241   0.151  0.00  0.00     0.152 C 
HETATM    3  C   UNK N   1      -0.295   2.439  -1.174  0.00  0.00     0.359 C 
HETATM    4  C   UNK N   1       6.103   1.583  -0.015  0.00  0.00     0.039 A 
HETATM    5  C   UNK N   1       5.077   2.527  -0.050  0.00  0.00     0.033 A 
HETATM    6  C   UNK N   1       0.964  -0.151   0.687  0.00  0.00     0.055 C 
HETATM    7  C   UNK N   1      -0.308   0.762   0.499  0.00  0.00     0.315 C 
HETATM    8  C   UNK N   1       4.494  -0.256  -0.056  0.00  0.00     0.047 A 
HETATM    9  C   UNK N   1       5.832   0.188  -0.011  0.00  0.00     0.080 A 
HETATM   10  C   UNK N   1       3.474   0.703  -0.066  0.00  0.00    -0.016 A 
HETATM   11  C   UNK N   1       3.775   2.060  -0.087  0.00  0.00     0.039 A 
HETATM   12  C   UNK N   1       1.565   1.902   0.141  0.00  0.00     0.369 C 
HETATM   13  C   UNK N   1       1.979   0.509  -0.222  0.00  0.00     0.042 C 
HETATM   14  N   UNK N   1       2.611   2.829  -0.123  0.00  0.00    -0.349 N 
HETATM   15  N   UNK N   1       0.161   2.098   0.150  0.00  0.00     0.032 N 
HETATM   16  O   UNK N   1      -0.179   2.917   0.948  0.00  0.00    -0.063 OA
ENDROOT
BRANCH   9  17
HETATM   17  O   UNK N   1       6.850  -0.719  -0.011  0.00  0.00    -0.274 OA
BRANCH  17  18
HETATM   18  C   UNK N   1       8.146  -0.388   0.249  0.00  0.00     0.268 C 
HETATM   19  N   UNK N   1       9.103  -1.153  -0.165  0.00  0.00    -0.316 N 
ATOM     20  HN  UNK N   1       8.853  -2.044  -0.595  1.00  0.00     0.170 HD
BRANCH  19  21
HETATM   21  C   UNK N   1      10.492  -0.824  -0.056  0.00  0.00     0.042 A 
HETATM   22  C   UNK N   1      10.888   0.529  -0.016  0.00  0.00     0.030 A 
HETATM   23  C   UNK N   1      12.229   0.890   0.062  0.00  0.00     0.002 A 
HETATM   24  C   UNK N   1      13.207  -0.096   0.096  0.00  0.00     0.001 A 
HETATM   25  C   UNK N   1      12.843  -1.442   0.044  0.00  0.00     0.009 A 
HETATM   26  C   UNK N   1      11.498  -1.831  -0.037  0.00  0.00    -0.032 A 
BRANCH  26  27
HETATM   27  C   UNK N   1      11.245  -3.320  -0.082  0.00  0.00     0.036 C 
HETATM   28  C   UNK N   1       9.803  -3.795  -0.082  0.00  0.00     0.010 C 
ENDBRANCH  26  27
ENDBRANCH  19  21
BRANCH  18  29
HETATM   29  O   UNK N   1       8.426   0.731   0.954  0.00  0.00    -0.326 OA
HETATM   30  H   UNK N   1       9.195   0.950   1.442  0.00  0.00     0.221 HD
ENDBRANCH  18  29
ENDBRANCH  17  18
ENDBRANCH   9  17
TORSDOF 5
