REMARK  4 active torsions:
REMARK  status: ('A' for Active; 'I' for Inactive)
REMARK    1  A    between atoms: C_3  and  C_2 
REMARK    2  A    between atoms: C_9  and  C_2 
REMARK    3  A    between atoms: C_10  and  C_3 
REMARK    4  A    between atoms: C_9  and  C_8 
ROOT
HETATM    1  C   UNK N   1      -0.949   1.656  -0.000  0.00  0.00     0.043 C 
ENDROOT
BRANCH   1   2
HETATM    2  C   UNK N   1      -0.526   3.122  -0.000  0.00  0.00     0.043 C 
BRANCH   2   3
HETATM    3  C   UNK N   1       0.977   3.290   0.000  0.00  0.00    -0.052 C 
HETATM    4  C   UNK N   1       1.468   4.529   0.000  0.00  0.00     0.020 C 
BRANCH   3   5
HETATM    5  C   UNK N   1       1.903   2.121   0.000  0.00  0.00     0.086 C 
HETATM    6  N   UNK N   1       3.177   2.284   0.000  0.00  0.00    -0.407 N 
HETATM    7  H   UNK N   1       3.803   1.465   0.000  0.00  0.00     0.155 HD
ATOM      8  HN  UNK N   1       3.570   3.226   0.000  1.00  0.00     0.155 HD
ENDBRANCH   3   5
ENDBRANCH   2   3
ENDBRANCH   1   2
BRANCH   1   9
HETATM    9  C   UNK N   1      -2.418   1.382  -0.000  0.00  0.00    -0.058 A 
HETATM   10  C   UNK N   1      -3.380   2.405   0.000  0.00  0.00     0.010 A 
HETATM   11  C   UNK N   1      -4.743   2.081   0.000  0.00  0.00     0.043 A 
HETATM   12  C   UNK N   1      -5.144   0.740   0.000  0.00  0.00     0.116 A 
HETATM   13  C   UNK N   1      -4.186  -0.276  -0.000  0.00  0.00     0.043 A 
HETATM   14  F   UNK N   1      -6.460   0.422   0.000  0.00  0.00    -0.206 F 
HETATM   15  C   UNK N   1      -2.829   0.047  -0.000  0.00  0.00     0.010 A 
ENDBRANCH   1   9
TORSDOF 4
