REMARK  5 active torsions:
REMARK  status: ('A' for Active; 'I' for Inactive)
REMARK    1  A    between atoms: C_10  and  C_5 
REMARK    2  A    between atoms: N_14  and  C_6 
REMARK    3  A    between atoms: N_16  and  C_7 
REMARK    4  A    between atoms: N_13  and  C_9 
REMARK    5  A    between atoms: O_23  and  C_10 
ROOT
HETATM    1  N   UNK N   1       3.073   4.401  -0.007  0.00  0.00    -0.300 N 
ATOM      2  HN  UNK N   1       2.555   5.280  -0.017  1.00  0.00     0.187 HD
HETATM    3  N   UNK N   1       2.431   3.335   0.004  0.00  0.00    -0.293 N 
ATOM      4  HN  UNK N   1       2.915   2.437   0.013  1.00  0.00     0.187 HD
ENDROOT
BRANCH   3   5
HETATM    5  C   UNK N   1       1.015   3.392   0.003  0.00  0.00     0.138 A 
HETATM    6  C   UNK N   1       0.168   4.573  -0.003  0.00  0.00     0.146 A 
HETATM    7  N   UNK N   1       0.540   5.803  -0.006  0.00  0.00    -0.382 N 
HETATM    8  N   UNK N   1      -1.166   4.127  -0.003  0.00  0.00    -0.282 N 
HETATM    9  H   UNK N   1      -0.152   6.565  -0.010  0.00  0.00     0.157 HD
ATOM     10  HN  UNK N   1       1.535   6.027  -0.006  1.00  0.00     0.157 HD
HETATM   11  N   UNK N   1      -1.176   2.878   0.003  0.00  0.00    -0.282 N 
ATOM     12  HN  UNK N   1      -1.991   4.726  -0.007  1.00  0.00     0.188 HD
HETATM   13  C   UNK N   1       0.156   2.378   0.007  0.00  0.00     0.146 A 
ATOM     14  HN  UNK N   1      -2.017   2.300   0.005  1.00  0.00     0.188 HD
BRANCH  13  15
HETATM   15  N   UNK N   1       0.493   1.007   0.014  0.00  0.00    -0.382 N 
HETATM   16  H   UNK N   1      -0.218   0.326   0.019  0.00  0.00     0.157 HD
HETATM   17  H   UNK N   1       1.438   0.732   0.014  0.00  0.00     0.157 HD
ENDBRANCH  13  15
ENDBRANCH   3   5
BRANCH   1  18
HETATM   18  C   UNK N   1       4.484   4.455  -0.004  0.00  0.00     0.049 A 
HETATM   19  C   UNK N   1       5.281   3.301   0.007  0.00  0.00     0.031 A 
HETATM   20  C   UNK N   1       6.677   3.422   0.013  0.00  0.00     0.003 A 
HETATM   21  C   UNK N   1       7.273   4.690   0.009  0.00  0.00     0.018 A 
HETATM   22  C   UNK N   1       6.475   5.843  -0.003  0.00  0.00     0.040 A 
HETATM   23  C   UNK N   1       5.086   5.711  -0.010  0.00  0.00     0.049 A 
BRANCH  22  24
HETATM   24  C   UNK N   1       7.078   7.189  -0.006  0.00  0.00     0.176 C 
HETATM   25  O   UNK N   1       6.365   8.182  -0.018  0.00  0.00    -0.646 OA
BRANCH  24  26
HETATM   26  O   UNK N   1       8.416   7.336   0.008  0.00  0.00    -0.773 OA
HETATM   27  H   UNK N   1       8.970   6.580   0.018  0.00  0.00     0.167 HD
ENDBRANCH  24  26
ENDBRANCH  22  24
ENDBRANCH   1  18
TORSDOF 5
