REMARK  0 active torsions:
REMARK  status: ('A' for Active; 'I' for Inactive)
ROOT
HETATM    1  C   UNK N   1       2.074  -0.165  -0.990  0.00  0.00     0.003 A 
HETATM    2  C   UNK N   1       2.189  -1.481  -0.583  0.00  0.00     0.012 A 
HETATM    3  C   UNK N   1       3.137   0.707  -0.818  0.00  0.00     0.030 A 
HETATM    4  C   UNK N   1      10.187  -4.018   0.712  0.00  0.00    -0.021 C 
HETATM    5  C   UNK N   1       9.692  -5.382   0.324  0.00  0.00     0.049 C 
HETATM    6  C   UNK N   1       3.423  -3.278   0.374  0.00  0.00     0.015 A 
HETATM    7  C   UNK N   1       4.600  -3.830   0.849  0.00  0.00     0.037 A 
HETATM    8  C   UNK N   1      10.073   1.401   0.378  0.00  0.00     0.078 C 
HETATM    9  C   UNK N   1       6.178   3.558   0.236  0.00  0.00     0.054 A 
HETATM   10  C   UNK N   1       9.401   1.969  -0.863  0.00  0.00     0.120 C 
HETATM   11  C   UNK N   1       4.919   2.722  -0.019  0.00  0.00     0.135 A 
HETATM   12  C   UNK N   1       8.448  -2.942  -0.663  0.00  0.00     0.069 C 
HETATM   13  C   UNK N   1       5.697  -1.677   0.599  0.00  0.00     0.051 A 
HETATM   14  C   UNK N   1       7.554  -6.552   0.258  0.00  0.00     0.067 C 
HETATM   15  C   UNK N   1      12.273   0.671  -0.707  0.00  0.00     0.114 A 
HETATM   16  C   UNK N   1      10.002  -1.612   0.948  0.00  0.00     0.163 C 
HETATM   17  C   UNK N   1      12.185  -1.443  -0.270  0.00  0.00     0.183 A 
HETATM   18  C   UNK N   1       9.613  -2.889   0.282  0.00  0.00    -0.063 C 
HETATM   19  C   UNK N   1       3.379  -1.948  -0.041  0.00  0.00    -0.024 A 
HETATM   20  C   UNK N   1       8.283  -5.402  -0.289  0.00  0.00     0.126 C 
HETATM   21  C   UNK N   1      11.104   0.400  -0.034  0.00  0.00     0.029 A 
HETATM   22  C   UNK N   1       5.749  -3.053   0.931  0.00  0.00     0.070 A 
HETATM   23  C   UNK N   1       4.514  -1.092   0.095  0.00  0.00     0.004 A 
HETATM   24  C   UNK N   1       7.346   2.577   0.359  0.00  0.00     0.171 A 
HETATM   25  C   UNK N   1       4.377   0.300  -0.289  0.00  0.00     0.048 A 
HETATM   26  C   UNK N   1       7.509  -4.055  -0.219  0.00  0.00     0.150 C 
HETATM   27  C   UNK N   1       6.694   1.267   0.038  0.00  0.00     0.246 A 
HETATM   28  N   UNK N   1       7.010  -7.484   0.678  0.00  0.00    -0.197 NA
HETATM   29  N   UNK N   1      12.946  -0.492  -0.855  0.00  0.00    -0.360 N 
ATOM     30  HN  UNK N   1      13.847  -0.625  -1.314  1.00  0.00     0.166 HD
HETATM   31  N   UNK N   1       8.412   3.005  -0.558  0.00  0.00    -0.409 N 
HETATM   32  N   UNK N   1      11.052  -0.913   0.226  0.00  0.00    -0.341 N 
HETATM   33  N   UNK N   1       5.360   1.351  -0.111  0.00  0.00    -0.315 N 
HETATM   34  O   UNK N   1       7.319   0.226  -0.050  0.00  0.00    -0.271 OA
HETATM   35  O   UNK N   1       6.941  -3.694   1.005  0.00  0.00    -0.344 OA
HETATM   36  H   UNK N   1       8.459   3.945  -0.950  0.00  0.00     0.154 HD
ENDROOT
TORSDOF 0
