REMARK  10 active torsions:
REMARK  status: ('A' for Active; 'I' for Inactive)
REMARK    1  A    between atoms: C_7  and  C_3 
REMARK    2  A    between atoms: C_12  and  C_7 
REMARK    3  A    between atoms: C_7  and  N_17 
REMARK    4  A    between atoms: C_10  and  C_8 
REMARK    5  A    between atoms: C_13  and  C_9 
REMARK    6  A    between atoms: C_11  and  C_10 
REMARK    7  A    between atoms: C_11  and  O_25 
REMARK    8  A    between atoms: O_26  and  C_13 
REMARK    9  A    between atoms: N_15  and  C_14 
REMARK   10  A    between atoms: O_28  and  N_22 
ROOT
HETATM    1  C   UNK N   1       3.685   5.654   1.719  0.00  0.00     0.168 C 
HETATM    2  N   UNK N   1       4.929   5.756   1.367  0.00  0.00    -0.355 N 
ATOM      3  HN  UNK N   1       5.598   5.960   2.110  1.00  0.00     0.162 HD
ENDROOT
BRANCH   1   4
HETATM    4  C   UNK N   1       2.584   5.276   0.792  0.00  0.00     0.132 C 
HETATM    5  N   UNK N   1       1.585   6.093   0.693  0.00  0.00    -0.261 N 
ATOM      6  HN  UNK N   1       1.614   6.968   1.216  1.00  0.00     0.194 HD
BRANCH   4   7
HETATM    7  C   UNK N   1       2.549   3.917   0.160  0.00  0.00     0.074 A 
HETATM    8  C   UNK N   1       3.588   2.971   0.328  0.00  0.00     0.085 A 
HETATM    9  S   UNK N   1       3.043   1.590  -0.417  0.00  0.00    -0.064 SA
HETATM   10  C   UNK N   1       1.584   2.162  -0.900  0.00  0.00     0.142 A 
HETATM   11  N   UNK N   1       1.438   3.448  -0.517  0.00  0.00    -0.335 N 
HETATM   12  H   UNK N   1       0.635   3.989  -0.698  0.00  0.00     0.168 HD
BRANCH  10  13
HETATM   13  N   UNK N   1       0.678   1.489  -1.499  0.00  0.00    -0.380 N 
HETATM   14  H   UNK N   1      -0.120   1.833  -1.960  0.00  0.00     0.158 HD
ATOM     15  HN  UNK N   1       0.796   0.475  -1.499  1.00  0.00     0.158 HD
ENDBRANCH  10  13
ENDBRANCH   4   7
BRANCH   5  16
HETATM   16  O   UNK N   1       0.533   5.841  -0.056  0.00  0.00    -0.285 OA
HETATM   17  C   UNK N   1      -0.456   6.781  -0.190  0.00  0.00     0.237 C 
ENDBRANCH   5  16
ENDBRANCH   1   4
BRANCH   1  18
HETATM   18  O   UNK N   1       3.350   6.017   2.971  0.00  0.00    -0.344 OA
HETATM   19  H   UNK N   1       3.452   6.345   3.843  0.00  0.00     0.219 HD
ENDBRANCH   1  18
BRANCH   2  20
HETATM   20  C   UNK N   1       5.474   5.612   0.026  0.00  0.00     0.177 C 
BRANCH  20  21
HETATM   21  C   UNK N   1       6.674   4.709   0.052  0.00  0.00     0.259 C 
HETATM   22  O   UNK N   1       6.578   3.550   0.422  0.00  0.00    -0.305 OA
ENDBRANCH  20  21
BRANCH  20  23
HETATM   23  C   UNK N   1       5.857   7.017  -0.479  0.00  0.00     0.173 C 
HETATM   24  N   UNK N   1       4.644   7.824  -0.487  0.00  0.00    -0.368 N 
HETATM   25  C   UNK N   1       4.591   9.119  -0.443  0.00  0.00     0.109 C 
ATOM     26  HN  UNK N   1       3.756   7.325  -0.533  1.00  0.00     0.161 HD
HETATM   27  C   UNK N   1       5.852   9.929  -0.361  0.00  0.00    -0.025 C 
HETATM   28  C   UNK N   1       5.838  11.249  -0.174  0.00  0.00     0.022 C 
HETATM   29  C   UNK N   1       7.173   9.244  -0.453  0.00  0.00     0.116 C 
HETATM   30  S   UNK N   1       7.135   7.777   0.606  0.00  0.00    -0.137 SA
BRANCH  25  31
HETATM   31  C   UNK N   1       3.242   9.752  -0.408  0.00  0.00     0.193 C 
HETATM   32  O   UNK N   1       2.243   9.050  -0.443  0.00  0.00    -0.645 OA
BRANCH  31  33
HETATM   33  O   UNK N   1       3.099  11.088  -0.328  0.00  0.00    -0.772 OA
HETATM   34  H   UNK N   1       3.854  11.640  -0.272  0.00  0.00     0.167 HD
ENDBRANCH  31  33
ENDBRANCH  25  31
ENDBRANCH  20  23
ENDBRANCH   2  20
TORSDOF 10
