REMARK  5 active torsions:
REMARK  status: ('A' for Active; 'I' for Inactive)
REMARK    1  A    between atoms: C_13  and  C_11 
REMARK    2  A    between atoms: S_21  and  C_11 
REMARK    3  A    between atoms: C_14  and  C_12 
REMARK    4  A    between atoms: O_18  and  N_17 
REMARK    5  A    between atoms: S_22  and  S_21 
ROOT
HETATM    1  C   UNK N   1       0.872   0.280  -1.750  0.00  0.00     0.039 C 
HETATM    2  C   UNK N   1       0.802   0.167   0.733  0.00  0.00     0.039 C 
HETATM    3  C   UNK N   1       2.079   3.857   1.182  0.00  0.00     0.040 C 
HETATM    4  C   UNK N   1       2.231   4.263  -1.271  0.00  0.00     0.040 C 
HETATM    5  C   UNK N   1       2.832   0.989  -0.418  0.00  0.00    -0.036 C 
HETATM    6  C   UNK N   1       3.278   2.238  -0.263  0.00  0.00    -0.018 C 
HETATM    7  C   UNK N   1       1.342   0.943  -0.468  0.00  0.00     0.057 C 
HETATM    8  C   UNK N   1       2.123   3.195  -0.196  0.00  0.00     0.060 C 
HETATM    9  N   UNK N   1       0.930   2.365  -0.483  0.00  0.00    -0.173 NA
ENDROOT
BRANCH   5  10
HETATM   10  C   UNK N   1       3.691  -0.243  -0.516  0.00  0.00     0.127 C 
BRANCH  10  11
HETATM   11  S   UNK N   1       3.937  -0.994   1.118  0.00  0.00    -0.033 SA
BRANCH  11  12
HETATM   12  S   UNK N   1       3.829  -2.982   0.362  0.00  0.00     0.195 S 
HETATM   13  C   UNK N   1       4.808  -3.988  -0.788  0.00  0.00     0.174 C 
HETATM   14  O   UNK N   1       5.148  -3.073   1.140  0.00  0.00    -0.217 OA
HETATM   15  O   UNK N   1       3.186  -3.890   1.421  0.00  0.00    -0.217 OA
ENDBRANCH  11  12
ENDBRANCH  10  11
ENDBRANCH   5  10
BRANCH   6  16
HETATM   16  C   UNK N   1       4.714   2.662  -0.132  0.00  0.00    -0.028 A 
HETATM   17  C   UNK N   1       5.029   4.021   0.036  0.00  0.00     0.012 A 
HETATM   18  C   UNK N   1       6.356   4.439   0.168  0.00  0.00     0.001 A 
HETATM   19  C   UNK N   1       7.389   3.500   0.139  0.00  0.00     0.000 A 
HETATM   20  C   UNK N   1       7.094   2.146  -0.026  0.00  0.00     0.001 A 
HETATM   21  C   UNK N   1       5.766   1.731  -0.161  0.00  0.00     0.012 A 
ENDBRANCH   6  16
BRANCH   9  22
HETATM   22  O   UNK N   1      -0.109   2.624   0.355  0.00  0.00    -0.311 OA
HETATM   23  H   UNK N   1      -0.320   3.358   0.953  0.00  0.00     0.237 HD
ENDBRANCH   9  22
TORSDOF 5
