REMARK  4 active torsions:
REMARK  status: ('A' for Active; 'I' for Inactive)
REMARK    1  A    between atoms: C_8  and  C_7 
REMARK    2  A    between atoms: S_15  and  C_7 
REMARK    3  A    between atoms: O_12  and  N_11 
REMARK    4  A    between atoms: S_16  and  S_15 
ROOT
HETATM    1  C   UNK N   1      -1.632  -1.272  -0.982  0.00  0.00     0.038 C 
HETATM    2  C   UNK N   1      -0.816  -1.650   1.334  0.00  0.00     0.038 C 
HETATM    3  C   UNK N   1      -0.108   2.430  -1.073  0.00  0.00     0.039 C 
HETATM    4  C   UNK N   1       0.771   2.220   1.245  0.00  0.00     0.039 C 
HETATM    5  C   UNK N   1       0.689  -0.776  -0.391  0.00  0.00     0.005 C 
HETATM    6  C   UNK N   1       1.189   0.440  -0.415  0.00  0.00    -0.047 C 
HETATM    7  C   UNK N   1      -0.704  -0.757   0.114  0.00  0.00     0.050 C 
HETATM    8  C   UNK N   1       0.211   1.454   0.059  0.00  0.00     0.056 C 
HETATM    9  N   UNK N   1      -0.953   0.652   0.506  0.00  0.00    -0.174 NA
ENDROOT
BRANCH   6  10
HETATM   10  C   UNK N   1       2.576   0.739  -0.897  0.00  0.00     0.127 C 
BRANCH  10  11
HETATM   11  S   UNK N   1       3.778  -0.076   0.198  0.00  0.00    -0.033 SA
BRANCH  11  12
HETATM   12  S   UNK N   1       5.394   1.203  -0.339  0.00  0.00     0.195 S 
HETATM   13  C   UNK N   1       6.325   2.717   0.026  0.00  0.00     0.174 C 
HETATM   14  O   UNK N   1       6.350   0.378   0.534  0.00  0.00    -0.217 OA
HETATM   15  O   UNK N   1       4.730   1.854   0.884  0.00  0.00    -0.217 OA
ENDBRANCH  11  12
ENDBRANCH  10  11
ENDBRANCH   6  10
BRANCH   9  16
HETATM   16  O   UNK N   1      -2.130   1.125   0.013  0.00  0.00    -0.311 OA
HETATM   17  H   UNK N   1      -2.258   2.020  -0.339  0.00  0.00     0.237 HD
ENDBRANCH   9  16
TORSDOF 4
