REMARK  4 active torsions:
REMARK  status: ('A' for Active; 'I' for Inactive)
REMARK    1  A    between atoms: C_10  and  C_5 
REMARK    2  A    between atoms: N_17  and  C_6 
REMARK    3  A    between atoms: N_19  and  C_7 
REMARK    4  A    between atoms: N_16  and  C_9 
ROOT
HETATM    1  N   UNK N   1       6.115   1.460  -0.093  0.00  0.00    -0.299 N 
ATOM      2  HN  UNK N   1       5.915   0.460  -0.089  1.00  0.00     0.187 HD
HETATM    3  N   UNK N   1       5.170   2.274  -0.096  0.00  0.00    -0.293 N 
ATOM      4  HN  UNK N   1       5.371   3.274  -0.129  1.00  0.00     0.187 HD
ENDROOT
BRANCH   3   5
HETATM    5  C   UNK N   1       3.819   1.836  -0.054  0.00  0.00     0.138 A 
HETATM    6  C   UNK N   1       2.631   2.665  -0.020  0.00  0.00     0.146 A 
HETATM    7  N   UNK N   1       2.572   3.946  -0.020  0.00  0.00    -0.382 N 
HETATM    8  N   UNK N   1       1.521   1.800   0.026  0.00  0.00    -0.282 N 
HETATM    9  H   UNK N   1       1.662   4.428   0.011  0.00  0.00     0.157 HD
ATOM     10  HN  UNK N   1       3.433   4.492  -0.052  1.00  0.00     0.157 HD
HETATM   11  N   UNK N   1       1.924   0.619   0.023  0.00  0.00    -0.282 N 
ATOM     12  HN  UNK N   1       0.544   2.092   0.057  1.00  0.00     0.188 HD
HETATM   13  C   UNK N   1       3.344   0.589  -0.024  0.00  0.00     0.146 A 
ATOM     14  HN  UNK N   1       1.322  -0.204   0.051  1.00  0.00     0.188 HD
BRANCH  13  15
HETATM   15  N   UNK N   1       4.111  -0.598  -0.033  0.00  0.00    -0.382 N 
HETATM   16  H   UNK N   1       3.662  -1.474  -0.039  0.00  0.00     0.157 HD
HETATM   17  H   UNK N   1       5.094  -0.549  -0.033  0.00  0.00     0.157 HD
ENDBRANCH  13  15
ENDBRANCH   3   5
BRANCH   1  18
HETATM   18  C   UNK N   1       7.465   1.901  -0.094  0.00  0.00     0.063 A 
HETATM   19  C   UNK N   1       7.764   3.272  -0.180  0.00  0.00     0.032 A 
HETATM   20  C   UNK N   1       9.088   3.712  -0.147  0.00  0.00     0.002 A 
HETATM   21  C   UNK N   1      10.127   2.791  -0.018  0.00  0.00     0.001 A 
HETATM   22  C   UNK N   1       9.843   1.427   0.074  0.00  0.00     0.018 A 
HETATM   23  C   UNK N   1       8.518   0.966   0.032  0.00  0.00     0.075 A 
BRANCH  23  24
HETATM   24  C   UNK N   1       8.239  -0.513   0.131  0.00  0.00     0.419 C 
HETATM   25  F   UNK N   1       7.678  -0.957  -1.053  0.00  0.00    -0.166 F 
HETATM   26  F   UNK N   1       7.363  -0.761   1.171  0.00  0.00    -0.166 F 
HETATM   27  F   UNK N   1       9.405  -1.226   0.361  0.00  0.00    -0.166 F 
ENDBRANCH  23  24
ENDBRANCH   1  18
TORSDOF 4
