REMARK  5 active torsions:
REMARK  status: ('A' for Active; 'I' for Inactive)
REMARK    1  A    between atoms: C_14  and  C_11 
REMARK    2  A    between atoms: N_30  and  C_11 
REMARK    3  A    between atoms: C_18  and  C_15 
REMARK    4  A    between atoms: N_26  and  C_16 
REMARK    5  A    between atoms: N_31  and  C_17 
ROOT
HETATM    1  C   UNK N   1      -3.544   6.821   0.080  0.00  0.00     0.103 C 
HETATM    2  C   UNK N   1      -3.679   8.333  -0.052  0.00  0.00     0.085 C 
HETATM    3  C   UNK N   1      -4.865   6.136   0.364  0.00  0.00     0.041 C 
HETATM    4  C   UNK N   1      -6.025   8.177   0.051  0.00  0.00     0.682 C 
HETATM    5  N   UNK N   1      -4.828   8.928  -0.070  0.00  0.00    -0.205 N 
ATOM      6  HN  UNK N   1      -4.873   9.941  -0.173  1.00  0.00     0.183 HD
HETATM    7  N   UNK N   1      -7.179   8.702  -0.223  0.00  0.00    -0.192 N 
ATOM      8  HN  UNK N   1      -7.242   9.709  -0.369  1.00  0.00     0.184 HD
HETATM    9  N   UNK N   1      -5.948   6.806   0.351  0.00  0.00    -0.194 N 
ATOM     10  HN  UNK N   1      -6.815   6.317   0.574  1.00  0.00     0.184 HD
ENDROOT
BRANCH   3  11
HETATM   11  C   UNK N   1      -5.023   4.672   0.399  0.00  0.00    -0.012 A 
HETATM   12  C   UNK N   1      -6.281   4.126   0.724  0.00  0.00     0.013 A 
HETATM   13  C   UNK N   1      -6.535   2.769   0.547  0.00  0.00     0.002 A 
HETATM   14  C   UNK N   1      -5.552   1.956  -0.009  0.00  0.00     0.009 A 
HETATM   15  C   UNK N   1      -4.293   2.488  -0.328  0.00  0.00    -0.037 A 
HETATM   16  C   UNK N   1      -4.030   3.843  -0.119  0.00  0.00     0.022 A 
BRANCH  15  17
HETATM   17  C   UNK N   1      -3.268   1.662  -1.025  0.00  0.00     0.188 C 
BRANCH  17  18
HETATM   18  N   UNK N   1      -3.109   0.362  -0.403  0.00  0.00    -0.283 N 
HETATM   19  C   UNK N   1      -2.017  -0.089   0.224  0.00  0.00     0.201 A 
HETATM   20  N   UNK N   1      -2.221  -1.357   0.632  0.00  0.00    -0.346 N 
HETATM   21  C   UNK N   1      -3.476  -1.648   0.218  0.00  0.00     0.198 A 
ATOM     22  HN  UNK N   1      -1.575  -1.962   1.140  1.00  0.00     0.167 HD
HETATM   23  N   UNK N   1      -4.017  -0.595  -0.420  0.00  0.00    -0.293 N 
ATOM     24  HN  UNK N   1      -4.947  -0.545  -0.836  1.00  0.00     0.188 HD
ENDBRANCH  17  18
ENDBRANCH  15  17
ENDBRANCH   3  11
BRANCH   7  25
HETATM   25  C   UNK N   1      -8.372   7.905  -0.327  0.00  0.00     0.051 A 
HETATM   26  C   UNK N   1      -8.314   6.548  -0.718  0.00  0.00     0.030 A 
HETATM   27  C   UNK N   1      -9.454   5.758  -0.778  0.00  0.00     0.005 A 
HETATM   28  C   UNK N   1     -10.685   6.313  -0.460  0.00  0.00     0.036 A 
HETATM   29  C   UNK N   1     -10.785   7.667  -0.102  0.00  0.00     0.105 A 
HETATM   30  C   UNK N   1      -9.621   8.463  -0.044  0.00  0.00     0.066 A 
BRANCH  29  31
HETATM   31  N   UNK N   1     -12.055   8.219   0.212  0.00  0.00    -0.116 N 
HETATM   32  O   UNK N   1     -13.029   7.531   0.205  0.00  0.00    -0.532 OA
HETATM   33  O   UNK N   1     -12.154   9.377   0.492  0.00  0.00    -0.532 OA
ENDBRANCH  29  31
ENDBRANCH   7  25
TORSDOF 5
