REMARK  2 active torsions:
REMARK  status: ('A' for Active; 'I' for Inactive)
REMARK    1  A    between atoms: C_5  and  C_7 
REMARK    2  A    between atoms: C_7  and  O_8 
ROOT
HETATM    1  N   UNK N   1      -2.741   3.864   0.000  0.00  0.00    -0.417 N 
HETATM    2  C   UNK N   1      -4.028   3.157  -0.000  0.00  0.00     0.118 A 
HETATM    3  C   UNK N   1      -4.032   1.630   0.000  0.00  0.00     0.047 A 
HETATM    4  C   UNK N   1      -2.707   0.959   0.000  0.00  0.00    -0.010 A 
HETATM    5  C   UNK N   1      -1.551   1.618  -0.000  0.00  0.00     0.029 A 
HETATM    6  C   UNK N   1      -1.481   3.115  -0.000  0.00  0.00     0.159 A 
HETATM    7  H   UNK N   1      -2.724   4.884   0.000  0.00  0.00     0.153 HD
ENDROOT
BRANCH   5   8
HETATM    8  C   UNK N   1      -0.280   0.865  -0.000  0.00  0.00     0.173 C 
HETATM    9  O   UNK N   1      -0.277  -0.355   0.000  0.00  0.00    -0.646 OA
BRANCH   8  10
HETATM   10  O   UNK N   1       0.892   1.532  -0.000  0.00  0.00    -0.773 OA
HETATM   11  H   UNK N   1       1.700   1.059  -0.000  0.00  0.00     0.167 HD
ENDBRANCH   8  10
ENDBRANCH   5   8
TORSDOF 2
