REMARK  11 active torsions:
REMARK  status: ('A' for Active; 'I' for Inactive)
REMARK    1  A    between atoms: C_9  and  C_6 
REMARK    2  A    between atoms: C_8  and  C_7 
REMARK    3  A    between atoms: C_10  and  C_7 
REMARK    4  A    between atoms: C_13  and  C_8 
REMARK    5  A    between atoms: C_15  and  C_9 
REMARK    6  A    between atoms: C_16  and  C_10 
REMARK    7  A    between atoms: C_12  and  C_11 
REMARK    8  A    between atoms: C_19  and  C_16 
REMARK    9  A    between atoms: C_21  and  C_17 
REMARK   10  A    between atoms: C_21  and  C_20 
REMARK       I    between atoms: N_24  and  C_23 
REMARK   11  A    between atoms: O_30  and  C_23 
ROOT
HETATM    1  C   UNK N   1       1.680   0.674   0.128  0.00  0.00     0.084 C 
HETATM    2  C   UNK N   1       2.882   1.531   0.018  0.00  0.00     0.173 C 
HETATM    3  C   UNK N   1       0.452   1.229   0.111  0.00  0.00     0.064 C 
HETATM    4  C   UNK N   1       2.702   2.990  -0.364  0.00  0.00     0.233 C 
HETATM    5  C   UNK N   1       1.351   3.430   0.163  0.00  0.00     0.283 C 
HETATM    6  O   UNK N   1       3.981   1.003  -0.039  0.00  0.00    -0.292 OA
HETATM    7  O   UNK N   1       1.206   4.499   0.734  0.00  0.00    -0.263 OA
HETATM    8  O   UNK N   1       0.303   2.582   0.090  0.00  0.00    -0.282 OA
ENDROOT
BRANCH   3   9
HETATM    9  C   UNK N   1      -0.779   0.364   0.144  0.00  0.00     0.039 C 
HETATM   10  C   UNK N   1      -1.499   0.469  -1.186  0.00  0.00     0.017 C 
BRANCH   9  11
HETATM   11  C   UNK N   1      -1.724   0.721   1.307  0.00  0.00     0.011 C 
BRANCH  11  12
HETATM   12  C   UNK N   1      -2.067   2.210   1.504  0.00  0.00     0.006 C 
BRANCH  12  13
HETATM   13  C   UNK N   1      -2.668   2.925   0.294  0.00  0.00     0.044 C 
BRANCH  13  14
HETATM   14  C   UNK N   1      -3.969   2.318  -0.101  0.00  0.00     0.066 C 
HETATM   15  N   UNK N   1      -5.067   2.946   0.142  0.00  0.00    -0.317 N 
HETATM   16  C   UNK N   1      -6.294   2.444  -0.154  0.00  0.00     0.363 C 
ATOM     17  HN  UNK N   1      -5.012   3.866   0.578  1.00  0.00     0.170 HD
HETATM   18  O   UNK N   1      -6.410   1.351  -0.701  0.00  0.00    -0.238 OA
BRANCH  16  19
HETATM   19  O   UNK N   1      -7.393   3.157   0.186  0.00  0.00    -0.309 OA
HETATM   20  C   UNK N   1      -8.668   2.686  -0.022  0.00  0.00     0.215 C 
ENDBRANCH  16  19
ENDBRANCH  13  14
ENDBRANCH  12  13
ENDBRANCH  11  12
ENDBRANCH   9  11
ENDBRANCH   3   9
BRANCH   4  21
HETATM   21  C   UNK N   1       3.838   3.918   0.055  0.00  0.00     0.176 C 
HETATM   22  O   UNK N   1       4.763   3.473   0.720  0.00  0.00    -0.291 OA
BRANCH  21  23
HETATM   23  C   UNK N   1       3.836   5.367  -0.330  0.00  0.00    -0.015 C 
HETATM   24  C   UNK N   1       2.712   5.911  -1.168  0.00  0.00     0.052 C 
HETATM   25  C   UNK N   1       4.840   6.182   0.069  0.00  0.00     0.011 C 
BRANCH  25  26
HETATM   26  C   UNK N   1       4.859   7.640  -0.241  0.00  0.00     0.003 C 
HETATM   27  C   UNK N   1       5.899   8.439   0.062  0.00  0.00    -0.084 C 
HETATM   28  C   UNK N   1       7.139   7.891   0.711  0.00  0.00     0.043 C 
BRANCH  27  29
HETATM   29  C   UNK N   1       5.793   9.905  -0.274  0.00  0.00     0.033 C 
BRANCH  29  30
HETATM   30  C   UNK N   1       7.022  10.713   0.110  0.00  0.00    -0.000 C 
HETATM   31  C   UNK N   1       6.749  12.183  -0.125  0.00  0.00     0.005 C 
ENDBRANCH  29  30
ENDBRANCH  27  29
ENDBRANCH  25  26
ENDBRANCH  21  23
ENDBRANCH   4  21
TORSDOF 11
