REMARK  7 active torsions:
REMARK  status: ('A' for Active; 'I' for Inactive)
REMARK    1  A    between atoms: N_4  and  C_7 
REMARK       I    between atoms: N_5  and  C_17 
REMARK       I    between atoms: N_6  and  C_17 
REMARK    2  A    between atoms: N_6  and  C_22 
REMARK    3  A    between atoms: C_7  and  C_10 
REMARK    4  A    between atoms: C_10  and  C_13 
REMARK    5  A    between atoms: C_13  and  C_14 
REMARK    6  A    between atoms: C_14  and  C_15 
REMARK    7  A    between atoms: C_14  and  C_16 
ROOT
HETATM    1  C   UNK N   1       3.823   1.487   0.762  0.00  0.00     0.016 C 
ENDROOT
BRANCH   1   2
HETATM    2  C   UNK N   1       2.348   1.586   0.410  0.00  0.00     0.031 C 
BRANCH   2   3
HETATM    3  C   UNK N   1       1.629   0.336   0.883  0.00  0.00     0.272 C 
BRANCH   3   4
HETATM    4  N   UNK N   1       2.061  -0.797   0.083  0.00  0.00     0.091 N 
HETATM    5  C   UNK N   1       0.976  -1.773   0.036  0.00  0.00     0.292 C 
HETATM    6  C   UNK N   1       1.401  -2.938  -0.854  0.00  0.00     0.158 C 
HETATM    7  N   UNK N   1       2.658  -3.463  -0.360  0.00  0.00    -0.331 N 
HETATM    8  C   UNK N   1       3.745  -2.531  -0.168  0.00  0.00     0.158 C 
HETATM    9  C   UNK N   1       2.808  -4.774  -0.008  0.00  0.00     0.318 C 
HETATM   10  C   UNK N   1       3.229  -1.410   0.723  0.00  0.00     0.292 C 
HETATM   11  O   UNK N   1       3.886  -5.167   0.416  0.00  0.00    -0.247 OA
HETATM   12  N   UNK N   1       1.764  -5.645  -0.111  0.00  0.00    -0.343 N 
HETATM   13  H   UNK N   1       0.849  -5.322  -0.454  0.00  0.00     0.164 HD
BRANCH  12  14
HETATM   14  C   UNK N   1       1.918  -7.028   0.282  0.00  0.00     0.120 C 
HETATM   15  C   UNK N   1       0.602  -7.774   0.147  0.00  0.00     0.026 C 
ENDBRANCH  12  14
ENDBRANCH   3   4
ENDBRANCH   2   3
ENDBRANCH   1   2
BRANCH   1  16
HETATM   16  C   UNK N   1       4.732   2.039  -0.334  0.00  0.00     0.051 C 
BRANCH  16  17
HETATM   17  C   UNK N   1       6.050   1.285  -0.238  0.00  0.00    -0.049 A 
HETATM   18  C   UNK N   1       6.039  -0.098  -0.486  0.00  0.00     0.011 A 
HETATM   19  C   UNK N   1       7.204  -0.859  -0.364  0.00  0.00     0.043 A 
HETATM   20  C   UNK N   1       8.399  -0.246   0.011  0.00  0.00     0.116 A 
HETATM   21  F   UNK N   1       9.527  -0.985   0.146  0.00  0.00    -0.206 F 
HETATM   22  C   UNK N   1       8.431   1.131   0.250  0.00  0.00     0.043 A 
HETATM   23  C   UNK N   1       7.263   1.892   0.125  0.00  0.00     0.011 A 
ENDBRANCH  16  17
BRANCH  16  24
HETATM   24  C   UNK N   1       4.692   3.557  -0.269  0.00  0.00    -0.049 A 
HETATM   25  C   UNK N   1       3.465   4.200  -0.506  0.00  0.00     0.011 A 
HETATM   26  C   UNK N   1       3.349   5.585  -0.394  0.00  0.00     0.043 A 
HETATM   27  C   UNK N   1       4.462   6.349  -0.046  0.00  0.00     0.116 A 
HETATM   28  F   UNK N   1       4.343   7.691   0.087  0.00  0.00    -0.206 F 
HETATM   29  C   UNK N   1       5.695   5.728   0.171  0.00  0.00     0.043 A 
HETATM   30  C   UNK N   1       5.809   4.339   0.060  0.00  0.00     0.011 A 
ENDBRANCH  16  24
ENDBRANCH   1  16
TORSDOF 7
