REMARK  5 active torsions:
REMARK  status: ('A' for Active; 'I' for Inactive)
REMARK    1  A    between atoms: C_8  and  C_6 
REMARK    2  A    between atoms: C_9  and  C_7 
REMARK    3  A    between atoms: C_11  and  C_9 
REMARK    4  A    between atoms: O_15  and  C_10 
REMARK    5  A    between atoms: O_13  and  C_11 
ROOT
HETATM    1  C   UNK N   1       1.938  -0.945  -0.019  0.00  0.00     0.001 A 
HETATM    2  C   UNK N   1       3.050  -0.113  -0.008  0.00  0.00     0.003 A 
HETATM    3  C   UNK N   1       0.659  -0.393  -0.019  0.00  0.00     0.014 A 
HETATM    4  C   UNK N   1       2.878   1.269   0.001  0.00  0.00     0.037 A 
HETATM    5  C   UNK N   1       0.448   0.988  -0.007  0.00  0.00    -0.003 A 
HETATM    6  C   UNK N   1       1.587   1.837   0.001  0.00  0.00     0.078 A 
ENDROOT
BRANCH   5   7
HETATM    7  C   UNK N   1      -0.934   1.585  -0.010  0.00  0.00     0.018 C 
HETATM    8  C   UNK N   1      -2.158   0.980   0.000  0.00  0.00     0.063 C 
BRANCH   8   9
HETATM    9  C   UNK N   1      -2.524  -0.479   0.028  0.00  0.00     0.244 C 
HETATM   10  O   UNK N   1      -1.683  -1.352   0.081  0.00  0.00    -0.281 OA
BRANCH   9  11
HETATM   11  C   UNK N   1      -3.943  -0.895  -0.001  0.00  0.00     0.218 C 
HETATM   12  O   UNK N   1      -4.838  -0.069  -0.044  0.00  0.00    -0.644 OA
BRANCH  11  13
HETATM   13  O   UNK N   1      -4.251  -2.208   0.017  0.00  0.00    -0.770 OA
HETATM   14  H   UNK N   1      -5.148  -2.479   0.030  0.00  0.00     0.168 HD
ENDBRANCH  11  13
ENDBRANCH   9  11
ENDBRANCH   8   9
ENDBRANCH   5   7
BRANCH   6  15
HETATM   15  O   UNK N   1       1.433   3.185   0.008  0.00  0.00    -0.355 OA
HETATM   16  C   UNK N   1       2.494   4.065   0.011  0.00  0.00     0.210 C 
ENDBRANCH   6  15
TORSDOF 5
