REMARK  7 active torsions:
REMARK  status: ('A' for Active; 'I' for Inactive)
REMARK    1  A    between atoms: C_8  and  C_7 
REMARK    2  A    between atoms: C_9  and  C_7 
REMARK    3  A    between atoms: C_10  and  C_8 
REMARK    4  A    between atoms: C_11  and  C_9 
REMARK    5  A    between atoms: C_12  and  C_10 
REMARK    6  A    between atoms: N_13  and  C_11 
REMARK    7  A    between atoms: N_14  and  C_12 
ROOT
HETATM    1  C   UNK N   1       1.935  -1.757   0.202  0.00  0.00     0.002 C 
ENDROOT
BRANCH   1   2
HETATM    2  C   UNK N   1       2.602  -0.386   0.202  0.00  0.00     0.002 C 
BRANCH   2   3
HETATM    3  C   UNK N   1       1.633   0.703  -0.222  0.00  0.00     0.028 C 
BRANCH   3   4
HETATM    4  C   UNK N   1       0.437   0.792   0.730  0.00  0.00     0.236 C 
BRANCH   4   5
HETATM    5  N   UNK N   1      -0.846   0.705   0.028  0.00  0.00    -0.079 N 
HETATM    6  C   UNK N   1      -1.912   0.796   1.009  0.00  0.00     0.271 C 
HETATM    7  C   UNK N   1      -1.002   1.800  -0.918  0.00  0.00     0.271 C 
HETATM    8  C   UNK N   1      -0.982  -0.565  -0.671  0.00  0.00     0.271 C 
ENDBRANCH   4   5
ENDBRANCH   3   4
ENDBRANCH   2   3
ENDBRANCH   1   2
BRANCH   1   9
HETATM    9  C   UNK N   1       2.905  -2.847  -0.222  0.00  0.00     0.028 C 
BRANCH   9  10
HETATM   10  C   UNK N   1       4.101  -2.936   0.730  0.00  0.00     0.236 C 
BRANCH  10  11
HETATM   11  N   UNK N   1       5.384  -2.849   0.028  0.00  0.00    -0.079 N 
HETATM   12  C   UNK N   1       6.450  -2.939   1.009  0.00  0.00     0.271 C 
HETATM   13  C   UNK N   1       5.520  -1.579  -0.671  0.00  0.00     0.271 C 
HETATM   14  C   UNK N   1       5.540  -3.943  -0.918  0.00  0.00     0.271 C 
ENDBRANCH  10  11
ENDBRANCH   9  10
ENDBRANCH   1   9
TORSDOF 7
