REMARK  0 active torsions:
REMARK  status: ('A' for Active; 'I' for Inactive)
ROOT
HETATM    1  O   UNK N   1       5.203   2.881   0.000  0.00  0.00    -0.247 OA
HETATM    2  C   UNK N   1       4.144   2.280   0.000  0.00  0.00     0.328 A 
HETATM    3  N   UNK N   1       4.137   0.895   0.000  0.00  0.00    -0.273 N 
HETATM    4  C   UNK N   1       2.949   0.197  -0.000  0.00  0.00     0.280 A 
HETATM    5  O   UNK N   1       2.943  -1.021  -0.000  0.00  0.00    -0.265 OA
HETATM    6  C   UNK N   1       1.769   0.925  -0.000  0.00  0.00     0.149 A 
HETATM    7  C   UNK N   1       1.801   2.280  -0.000  0.00  0.00     0.146 A 
HETATM    8  N   UNK N   1       2.957   2.982  -0.000  0.00  0.00    -0.292 N 
HETATM    9  N   UNK N   1       0.558   2.782  -0.000  0.00  0.00    -0.292 N 
HETATM   10  C   UNK N   1      -0.224   1.660  -0.000  0.00  0.00     0.326 A 
HETATM   11  O   UNK N   1      -1.440   1.695   0.000  0.00  0.00    -0.247 OA
HETATM   12  N   UNK N   1       0.496   0.495  -0.000  0.00  0.00    -0.301 N 
HETATM   13  H   UNK N   1       4.990   0.403   0.000  0.00  0.00     0.173 HD
HETATM   14  H   UNK N   1       2.951   3.967  -0.000  0.00  0.00     0.172 HD
HETATM   15  H   UNK N   1       0.277   3.725  -0.000  0.00  0.00     0.172 HD
HETATM   16  H   UNK N   1       0.162  -0.431  -0.000  0.00  0.00     0.171 HD
ENDROOT
TORSDOF 0
