REMARK  12 active torsions:
REMARK  status: ('A' for Active; 'I' for Inactive)
REMARK    1  A    between atoms: C_3  and  C_2 
REMARK    2  A    between atoms: C_8  and  C_2 
REMARK    3  A    between atoms: C_12  and  C_3 
REMARK    4  A    between atoms: P_25  and  C_8 
REMARK    5  A    between atoms: C_13  and  C_9 
REMARK    6  A    between atoms: N_14  and  C_9 
REMARK    7  A    between atoms: N_16  and  C_10 
REMARK    8  A    between atoms: O_24  and  C_11 
REMARK    9  A    between atoms: C_12  and  O_17 
REMARK   10  A    between atoms: O_19  and  C_13 
REMARK   11  A    between atoms: P_25  and  O_22 
REMARK   12  A    between atoms: P_25  and  O_24 
ROOT
HETATM    1  C   UNK N   1      -1.152   2.905   0.190  0.00  0.00     0.126 C 
ENDROOT
BRANCH   1   2
HETATM    2  C   UNK N   1      -2.422   3.521  -0.410  0.00  0.00     0.020 C 
BRANCH   2   3
HETATM    3  C   UNK N   1      -3.085   4.472   0.571  0.00  0.00     0.084 C 
BRANCH   3   4
HETATM    4  C   UNK N   1      -2.696   5.857   0.199  0.00  0.00     0.111 C 
HETATM    5  N   UNK N   1      -1.466   6.225   0.333  0.00  0.00    -0.360 N 
ATOM      6  HN  UNK N   1      -0.820   5.575   0.781  1.00  0.00     0.162 HD
BRANCH   5   7
HETATM    7  C   UNK N   1      -0.946   7.500  -0.110  0.00  0.00     0.177 C 
HETATM    8  C   UNK N   1      -1.698   8.663   0.536  0.00  0.00     0.043 C 
BRANCH   7   9
HETATM    9  C   UNK N   1       0.525   7.551   0.212  0.00  0.00     0.163 C 
HETATM   10  O   UNK N   1       0.988   8.449   0.898  0.00  0.00    -0.648 OA
BRANCH   9  11
HETATM   11  O   UNK N   1       1.342   6.588  -0.257  0.00  0.00    -0.775 OA
HETATM   12  H   UNK N   1       1.047   5.761  -0.583  0.00  0.00     0.167 HD
ENDBRANCH   9  11
ENDBRANCH   7   9
ENDBRANCH   5   7
BRANCH   4  13
HETATM   13  O   UNK N   1      -3.623   6.687  -0.321  0.00  0.00    -0.350 OA
HETATM   14  H   UNK N   1      -3.445   7.534  -0.682  0.00  0.00     0.219 HD
ENDBRANCH   4  13
ENDBRANCH   3   4
ENDBRANCH   2   3
ENDBRANCH   1   2
BRANCH   1  15
HETATM   15  P   UNK N   1       0.419   3.223  -0.804  0.00  0.00     0.243 P 
HETATM   16  O   UNK N   1       0.334   3.694   0.671  0.00  0.00    -0.653 OA
BRANCH  15  17
HETATM   17  O   UNK N   1      -0.567   1.885  -1.319  0.00  0.00    -0.329 OA
HETATM   18  H   UNK N   1      -1.488   1.988  -1.606  0.00  0.00     0.220 HD
ENDBRANCH  15  17
BRANCH  15  19
HETATM   19  O   UNK N   1       1.646   2.116  -0.229  0.00  0.00    -0.276 OA
BRANCH  19  20
HETATM   20  C   UNK N   1       1.540   0.773  -0.025  0.00  0.00     0.079 A 
HETATM   21  C   UNK N   1       2.646  -0.043  -0.286  0.00  0.00     0.040 A 
HETATM   22  C   UNK N   1       2.535  -1.435  -0.192  0.00  0.00     0.039 A 
HETATM   23  C   UNK N   1       1.316  -2.028   0.180  0.00  0.00     0.103 A 
HETATM   24  C   UNK N   1       0.232  -1.205   0.513  0.00  0.00     0.039 A 
HETATM   25  C   UNK N   1       0.347   0.180   0.419  0.00  0.00     0.040 A 
BRANCH  23  26
HETATM   26  N   UNK N   1       1.165  -3.443   0.177  0.00  0.00    -0.116 N 
HETATM   27  O   UNK N   1       2.075  -4.144  -0.156  0.00  0.00    -0.532 OA
HETATM   28  O   UNK N   1       0.105  -3.935   0.422  0.00  0.00    -0.532 OA
ENDBRANCH  23  26
ENDBRANCH  19  20
ENDBRANCH  15  19
ENDBRANCH   1  15
TORSDOF 12
