REMARK  6 active torsions:
REMARK  status: ('A' for Active; 'I' for Inactive)
REMARK    1  A    between atoms: N_23  and  C_14 
REMARK    2  A    between atoms: C_19  and  C_16 
REMARK    3  A    between atoms: C_17  and  C_21 
REMARK    4  A    between atoms: N_23  and  C_18 
REMARK    5  A    between atoms: C_22  and  C_20 
REMARK       I    between atoms: N_23  and  C_21 
REMARK    6  A    between atoms: O_25  and  C_22 
ROOT
HETATM    1  C   UNK N   1       3.484  -1.198  -0.107  0.00  0.00     0.051 A 
HETATM    2  C   UNK N   1       4.579  -0.288   0.009  0.00  0.00     0.062 A 
HETATM    3  C   UNK N   1       3.811  -2.536  -0.005  0.00  0.00     0.018 A 
HETATM    4  C   UNK N   1       5.825  -0.989   0.208  0.00  0.00     0.106 A 
HETATM    5  S   UNK N   1       5.441  -2.617   0.218  0.00  0.00    -0.081 SA
ENDROOT
BRANCH   2   6
HETATM    6  N   UNK N   1       4.333   1.146  -0.145  0.00  0.00    -0.312 N 
HETATM    7  C   UNK N   1       3.033   1.642  -0.026  0.00  0.00     0.229 C 
HETATM    8  O   UNK N   1       2.144   0.915   0.393  0.00  0.00    -0.273 OA
BRANCH   6   9
HETATM    9  C   UNK N   1       5.401   2.057  -0.497  0.00  0.00     0.085 C 
HETATM   10  C   UNK N   1       6.241   1.681  -1.708  0.00  0.00     0.032 C 
HETATM   11  C   UNK N   1       6.052   2.779   0.674  0.00  0.00     0.032 C 
ENDBRANCH   6   9
BRANCH   7  12
HETATM   12  C   UNK N   1       2.583   3.062  -0.381  0.00  0.00     0.078 C 
HETATM   13  C   UNK N   1       2.023   3.740   0.883  0.00  0.00     0.014 C 
HETATM   14  C   UNK N   1       1.811   5.222   0.626  0.00  0.00     0.005 C 
HETATM   15  C   UNK N   1       3.171   5.907   0.455  0.00  0.00    -0.019 C 
HETATM   16  C   UNK N   1       2.973   7.225  -0.262  0.00  0.00     0.010 C 
HETATM   17  C   UNK N   1       4.190   5.043  -0.305  0.00  0.00     0.005 C 
HETATM   18  C   UNK N   1       3.521   3.989  -1.187  0.00  0.00     0.014 C 
ENDBRANCH   7  12
ENDBRANCH   2   6
BRANCH   4  19
HETATM   19  C   UNK N   1       7.238  -0.573   0.420  0.00  0.00     0.185 C 
HETATM   20  O   UNK N   1       7.555   0.589   0.558  0.00  0.00    -0.646 OA
BRANCH  19  21
HETATM   21  O   UNK N   1       8.194  -1.518   0.516  0.00  0.00    -0.772 OA
HETATM   22  H   UNK N   1       7.958  -2.422   0.583  0.00  0.00     0.167 HD
ENDBRANCH  19  21
ENDBRANCH   4  19
BRANCH   3  23
HETATM   23  C   UNK N   1       2.834  -3.632  -0.074  0.00  0.00    -0.019 A 
HETATM   24  C   UNK N   1       3.231  -4.968   0.059  0.00  0.00     0.013 A 
HETATM   25  C   UNK N   1       2.277  -5.990   0.007  0.00  0.00     0.001 A 
HETATM   26  C   UNK N   1       0.925  -5.682  -0.177  0.00  0.00     0.000 A 
HETATM   27  C   UNK N   1       0.524  -4.351  -0.312  0.00  0.00     0.001 A 
HETATM   28  C   UNK N   1       1.474  -3.331  -0.260  0.00  0.00     0.013 A 
ENDBRANCH   3  23
TORSDOF 6
