REMARK  2 active torsions:
REMARK  status: ('A' for Active; 'I' for Inactive)
REMARK    1  A    between atoms: O_1  and  C_2 
REMARK    2  A    between atoms: C_2  and  C_4 
ROOT
HETATM    1  C   UNK N   1       1.213   1.095  -0.000  0.00  0.00     0.174 C 
HETATM    2  O   UNK N   1       2.432   1.179  -0.000  0.00  0.00    -0.648 OA
ENDROOT
BRANCH   1   3
HETATM    3  O   UNK N   1       0.468   2.214  -0.000  0.00  0.00    -0.774 OA
HETATM    4  H   UNK N   1       0.883   3.054  -0.000  0.00  0.00     0.167 HD
ENDBRANCH   1   3
BRANCH   1   5
HETATM    5  C   UNK N   1       0.554  -0.247   0.000  0.00  0.00     0.275 C 
HETATM    6 Cl   UNK N   1       1.547  -1.726  -0.000  0.00  0.00    -0.097 Cl
HETATM    7 Cl   UNK N   1      -1.226  -0.372  -0.000  0.00  0.00    -0.097 Cl
ENDBRANCH   1   5
TORSDOF 2
