REMARK  13 active torsions:
REMARK  status: ('A' for Active; 'I' for Inactive)
REMARK    1  A    between atoms: C_3  and  C_2 
REMARK    2  A    between atoms: C_4  and  C_3 
REMARK    3  A    between atoms: C_5  and  C_4 
REMARK    4  A    between atoms: C_6  and  C_5 
REMARK    5  A    between atoms: C_9  and  C_6 
REMARK    6  A    between atoms: C_8  and  C_7 
REMARK    7  A    between atoms: C_11  and  C_8 
REMARK    8  A    between atoms: C_13  and  C_10 
REMARK    9  A    between atoms: C_14  and  C_11 
REMARK   10  A    between atoms: C_16  and  C_12 
REMARK   11  A    between atoms: C_17  and  C_13 
REMARK   12  A    between atoms: C_20  and  C_14 
REMARK   13  A    between atoms: O_26  and  C_20 
ROOT
HETATM    1  C   UNK N   1      -0.105  -1.348   0.804  0.00  0.00     0.054 C 
HETATM    2  C   UNK N   1       1.478  -2.339  -0.671  0.00  0.00     0.038 C 
HETATM    3  C   UNK N   1       1.950  -0.936  -0.180  0.00  0.00     0.023 C 
HETATM    4  C   UNK N   1      -0.055  -2.248  -0.430  0.00  0.00     0.109 C 
HETATM    5  C   UNK N   1       0.617  -0.205   0.081  0.00  0.00     0.106 C 
HETATM    6  N   UNK N   1      -0.540  -1.309  -1.407  0.00  0.00    -0.335 N 
ATOM      7  HN  UNK N   1      -1.126  -1.548  -2.208  1.00  0.00     0.180 HD
HETATM    8  N   UNK N   1      -0.146  -0.175  -1.135  0.00  0.00    -0.335 N 
ATOM      9  HN  UNK N   1      -0.332   0.660  -1.690  1.00  0.00     0.180 HD
ENDROOT
BRANCH   3  10
HETATM   10  C   UNK N   1       2.901  -0.224  -1.145  0.00  0.00     0.034 C 
BRANCH  10  11
HETATM   11  C   UNK N   1       3.320   1.111  -0.594  0.00  0.00    -0.030 C 
HETATM   12  C   UNK N   1       4.252   1.254   0.363  0.00  0.00    -0.031 C 
BRANCH  12  13
HETATM   13  C   UNK N   1       5.017   0.103   0.963  0.00  0.00     0.027 C 
BRANCH  13  14
HETATM   14  C   UNK N   1       5.914  -0.613  -0.052  0.00  0.00     0.014 C 
BRANCH  14  15
HETATM   15  C   UNK N   1       6.716   0.352  -0.925  0.00  0.00     0.110 C 
BRANCH  15  16
HETATM   16  C   UNK N   1       7.727   1.120  -0.138  0.00  0.00     0.139 C 
HETATM   17  O   UNK N   1       7.600   2.325   0.000  0.00  0.00    -0.650 OA
BRANCH  16  18
HETATM   18  O   UNK N   1       8.791   0.492   0.396  0.00  0.00    -0.776 OA
HETATM   19  H   UNK N   1       8.783  -0.368   0.768  0.00  0.00     0.167 HD
ENDBRANCH  16  18
ENDBRANCH  15  16
ENDBRANCH  14  15
ENDBRANCH  13  14
ENDBRANCH  12  13
ENDBRANCH  10  11
ENDBRANCH   3  10
BRANCH   2  20
HETATM   20  C   UNK N   1       2.265  -3.426   0.039  0.00  0.00    -0.024 C 
HETATM   21  C   UNK N   1       1.729  -4.301   0.902  0.00  0.00    -0.030 C 
BRANCH  21  22
HETATM   22  C   UNK N   1       2.607  -5.314   1.574  0.00  0.00     0.027 C 
BRANCH  22  23
HETATM   23  C   UNK N   1       1.967  -6.694   1.591  0.00  0.00     0.004 C 
BRANCH  23  24
HETATM   24  C   UNK N   1       1.845  -7.285   0.201  0.00  0.00     0.000 C 
BRANCH  24  25
HETATM   25  C   UNK N   1       0.941  -8.497   0.280  0.00  0.00    -0.000 C 
BRANCH  25  26
HETATM   26  C   UNK N   1       0.565  -8.953  -1.112  0.00  0.00    -0.005 C 
HETATM   27  C   UNK N   1      -0.544  -9.979  -1.017  0.00  0.00     0.005 C 
ENDBRANCH  25  26
ENDBRANCH  24  25
ENDBRANCH  23  24
ENDBRANCH  22  23
ENDBRANCH  21  22
ENDBRANCH   2  20
TORSDOF 13
