REMARK  5 active torsions:
REMARK  status: ('A' for Active; 'I' for Inactive)
REMARK    1  A    between atoms: C_1  and  C_4 
REMARK    2  A    between atoms: C_2  and  O_6 
REMARK    3  A    between atoms: C_4  and  C_8 
REMARK    4  A    between atoms: C_7  and  O_10 
REMARK    5  A    between atoms: C_8  and  O_11 
ROOT
HETATM    1  C   UNK N   1      -0.656  -0.073   0.000  0.00  0.00    -0.013 A 
HETATM    2  C   UNK N   1       0.496  -0.907   0.000  0.00  0.00     0.072 A 
HETATM    3  C   UNK N   1      -1.918  -0.691  -0.000  0.00  0.00     0.047 A 
HETATM    4  C   UNK N   1       0.353  -2.298   0.000  0.00  0.00     0.040 A 
HETATM    5  C   UNK N   1      -2.046  -2.083  -0.000  0.00  0.00     0.066 A 
HETATM    6  C   UNK N   1      -0.910  -2.885  -0.000  0.00  0.00     0.039 A 
ENDROOT
BRANCH   1   7
HETATM    7  C   UNK N   1      -0.689   1.448   0.000  0.00  0.00     0.151 C 
BRANCH   7   8
HETATM    8  C   UNK N   1       0.480   2.412  -0.000  0.00  0.00     0.143 C 
HETATM    9  O   UNK N   1       0.242   3.607   0.000  0.00  0.00    -0.650 OA
BRANCH   8  10
HETATM   10  O   UNK N   1       1.760   2.012  -0.000  0.00  0.00    -0.776 OA
HETATM   11  H   UNK N   1       1.965   1.098  -0.000  0.00  0.00     0.167 HD
ENDBRANCH   8  10
ENDBRANCH   7   8
ENDBRANCH   1   7
BRANCH   2  12
HETATM   12  O   UNK N   1       1.738  -0.412   0.000  0.00  0.00    -0.360 OA
HETATM   13  H   UNK N   1       2.473  -0.992   0.000  0.00  0.00     0.217 HD
ENDBRANCH   2  12
BRANCH   5  14
HETATM   14  O   UNK N   1      -3.264  -2.648  -0.000  0.00  0.00    -0.361 OA
HETATM   15  H   UNK N   1      -4.031  -2.109  -0.000  0.00  0.00     0.217 HD
ENDBRANCH   5  14
TORSDOF 5
