REMARK  0 active torsions:
REMARK  status: ('A' for Active; 'I' for Inactive)
ROOT
HETATM    1  N   UNK N   1      -0.012   0.579  -0.000  0.00  0.00    -0.367 N 
HETATM    2  C   UNK N   1       1.396   0.160   0.000  0.00  0.00     0.152 A 
HETATM    3  C   UNK N   1       1.936  -1.243   0.000  0.00  0.00     0.036 A 
HETATM    4  N   UNK N   1       1.272  -2.403   0.000  0.00  0.00    -0.354 N 
HETATM    5  C   UNK N   1      -1.181  -0.287  -0.000  0.00  0.00     0.038 A 
HETATM    6  C   UNK N   1      -1.218  -1.723   0.000  0.00  0.00    -0.013 A 
HETATM    7  C   UNK N   1      -0.127  -2.731   0.000  0.00  0.00     0.169 A 
HETATM    8  C   UNK N   1      -0.335   2.009   0.000  0.00  0.00     0.143 A 
HETATM    9  C   UNK N   1       2.511   1.213  -0.000  0.00  0.00     0.147 A 
HETATM   10  N   UNK N   1       2.100   2.598   0.000  0.00  0.00    -0.413 N 
HETATM   11  C   UNK N   1       2.180  -3.395  -0.000  0.00  0.00     0.091 A 
HETATM   12  C   UNK N   1       3.302  -1.500  -0.000  0.00  0.00     0.029 A 
HETATM   13  C   UNK N   1       3.451  -2.869  -0.000  0.00  0.00     0.019 A 
HETATM   14  C   UNK N   1       0.741   3.076  -0.000  0.00  0.00     0.136 A 
HETATM   15  C   UNK N   1      -2.466  -2.367   0.000  0.00  0.00     0.011 A 
HETATM   16  C   UNK N   1      -2.441   0.372  -0.000  0.00  0.00     0.030 A 
HETATM   17  C   UNK N   1       3.148   3.600  -0.000  0.00  0.00     0.143 C 
HETATM   18  C   UNK N   1      -3.667  -1.675  -0.000  0.00  0.00     0.001 A 
HETATM   19  C   UNK N   1      -3.655  -0.297  -0.000  0.00  0.00     0.002 A 
ENDROOT
TORSDOF 0
