REMARK  3 active torsions:
REMARK  status: ('A' for Active; 'I' for Inactive)
REMARK    1  A    between atoms: N_2  and  N_7 
REMARK    2  A    between atoms: N_2  and  C_9 
REMARK       I    between atoms: N_8  and  C_13 
REMARK    3  A    between atoms: C_10  and  C_13 
ROOT
HETATM    1  N   UNK N   1      -0.052  -1.428  -0.240  0.00  0.00    -0.284 N 
ATOM      2  HN  UNK N   1      -0.069  -2.432  -0.418  1.00  0.00     0.188 HD
HETATM    3  N   UNK N   1       1.122  -0.790  -0.191  0.00  0.00    -0.294 N 
ATOM      4  HN  UNK N   1       1.983  -1.321  -0.322  1.00  0.00     0.187 HD
HETATM    5  C   UNK N   1      -1.226  -0.764  -0.057  0.00  0.00     0.130 A 
HETATM    6  C   UNK N   1       1.195   0.551   0.030  0.00  0.00     0.115 A 
HETATM    7  C   UNK N   1      -1.205   0.613   0.166  0.00  0.00     0.053 A 
HETATM    8  C   UNK N   1       0.015   1.278   0.205  0.00  0.00     0.040 A 
ENDROOT
BRANCH   5   9
HETATM    9  N   UNK N   1      -2.453  -1.476  -0.091  0.00  0.00    -0.308 N 
HETATM   10  H   UNK N   1      -2.447  -2.484  -0.311  0.00  0.00     0.182 HD
BRANCH   9  11
HETATM   11  N   UNK N   1      -3.656  -0.841   0.210  0.00  0.00    -0.248 NA
HETATM   12  H   UNK N   1      -4.432  -1.530   0.082  0.00  0.00     0.143 HD
HETATM   13  H   UNK N   1      -3.799  -0.056  -0.464  0.00  0.00     0.143 HD
ENDBRANCH   9  11
ENDBRANCH   5   9
BRANCH   6  14
HETATM   14  C   UNK N   1       2.507   1.233   0.114  0.00  0.00     0.267 C 
HETATM   15  O   UNK N   1       2.552   2.441   0.291  0.00  0.00    -0.266 OA
HETATM   16  N   UNK N   1       3.662   0.531   0.015  0.00  0.00    -0.365 N 
HETATM   17  H   UNK N   1       4.569   1.015   0.091  0.00  0.00     0.159 HD
HETATM   18  H   UNK N   1       3.655  -0.489  -0.125  0.00  0.00     0.159 HD
ENDBRANCH   6  14
TORSDOF 3
