REMARK  8 active torsions:
REMARK  status: ('A' for Active; 'I' for Inactive)
REMARK    1  A    between atoms: O_1  and  C_10 
REMARK    2  A    between atoms: N_3  and  C_11 
REMARK    3  A    between atoms: N_4  and  C_5 
REMARK    4  A    between atoms: N_4  and  C_12 
REMARK       I    between atoms: N_4  and  C_13 
REMARK    5  A    between atoms: C_5  and  C_10 
REMARK    6  A    between atoms: C_11  and  C_14 
REMARK    7  A    between atoms: C_13  and  C_15 
REMARK    8  A    between atoms: C_14  and  C_18 
ROOT
HETATM    1  N   UNK N   1      -1.830  -0.870   0.513  0.00  0.00     0.088 N 
HETATM    2  C   UNK N   1      -0.636   1.709  -0.051  0.00  0.00     0.065 C 
HETATM    3  C   UNK N   1      -1.826   1.647   0.938  0.00  0.00     0.064 C 
HETATM    4  C   UNK N   1       0.260   0.517   0.390  0.00  0.00     0.064 C 
HETATM    5  C   UNK N   1      -2.637   0.330   0.812  0.00  0.00     0.275 C 
HETATM    6  C   UNK N   1      -0.447  -0.726   0.968  0.00  0.00     0.275 C 
ENDROOT
BRANCH   2   7
HETATM    7  N   UNK N   1       0.142   2.986  -0.006  0.00  0.00    -0.306 N 
HETATM    8  C   UNK N   1      -0.519   4.198   0.171  0.00  0.00     0.224 C 
HETATM    9  O   UNK N   1      -1.713   4.229   0.420  0.00  0.00    -0.273 OA
BRANCH   7  10
HETATM   10  C   UNK N   1       1.560   2.965  -0.349  0.00  0.00     0.038 A 
HETATM   11  C   UNK N   1       2.442   3.971   0.097  0.00  0.00     0.030 A 
HETATM   12  C   UNK N   1       3.806   3.925  -0.207  0.00  0.00     0.002 A 
HETATM   13  C   UNK N   1       4.320   2.870  -0.961  0.00  0.00     0.000 A 
HETATM   14  C   UNK N   1       3.470   1.864  -1.416  0.00  0.00     0.002 A 
HETATM   15  C   UNK N   1       2.108   1.912  -1.112  0.00  0.00     0.030 A 
ENDBRANCH   7  10
BRANCH   8  16
HETATM   16  C   UNK N   1       0.165   5.525  -0.045  0.00  0.00     0.099 C 
HETATM   17  C   UNK N   1       0.131   6.385   1.201  0.00  0.00     0.014 C 
ENDBRANCH   8  16
ENDBRANCH   2   7
BRANCH   2  18
HETATM   18  C   UNK N   1      -1.094   1.525  -1.518  0.00  0.00     0.198 C 
BRANCH  18  19
HETATM   19  O   UNK N   1      -2.464   1.771  -1.702  0.00  0.00    -0.393 OA
HETATM   20  C   UNK N   1      -2.562   3.059  -2.223  0.00  0.00     0.201 C 
ENDBRANCH  18  19
ENDBRANCH   2  18
BRANCH   1  21
HETATM   21  C   UNK N   1      -1.827  -1.158  -0.920  0.00  0.00     0.277 C 
BRANCH  21  22
HETATM   22  C   UNK N   1      -2.766  -2.293  -1.295  0.00  0.00     0.068 C 
BRANCH  22  23
HETATM   23  C   UNK N   1      -2.368  -3.603  -0.695  0.00  0.00    -0.057 A 
HETATM   24  C   UNK N   1      -1.018  -3.954  -0.529  0.00  0.00     0.007 A 
HETATM   25  C   UNK N   1      -0.679  -5.186   0.035  0.00  0.00     0.001 A 
HETATM   26  C   UNK N   1      -1.685  -6.078   0.420  0.00  0.00     0.000 A 
HETATM   27  C   UNK N   1      -3.028  -5.737   0.240  0.00  0.00     0.001 A 
HETATM   28  C   UNK N   1      -3.368  -4.501  -0.314  0.00  0.00     0.007 A 
ENDBRANCH  22  23
ENDBRANCH  21  22
ENDBRANCH   1  21
TORSDOF 8
