REMARK  4 active torsions:
REMARK  status: ('A' for Active; 'I' for Inactive)
REMARK    1  A    between atoms: O_1  and  C_9 
REMARK    2  A    between atoms: O_1  and  C_13 
REMARK    3  A    between atoms: C_5  and  C_8 
REMARK    4  A    between atoms: C_13  and  C_15 
ROOT
HETATM    1  C   UNK N   1       2.306  -0.028  -0.263  0.00  0.00    -0.021 A 
HETATM    2  C   UNK N   1       1.179  -0.873   0.014  0.00  0.00     0.075 A 
HETATM    3  C   UNK N   1       3.591  -0.599  -0.285  0.00  0.00     0.010 A 
HETATM    4  C   UNK N   1       1.405  -2.232   0.271  0.00  0.00     0.037 A 
HETATM    5  C   UNK N   1       3.785  -1.952  -0.013  0.00  0.00     0.001 A 
HETATM    6  C   UNK N   1       2.693  -2.767   0.265  0.00  0.00     0.003 A 
ENDROOT
BRANCH   2   7
HETATM    7  O   UNK N   1      -0.120  -0.459   0.027  0.00  0.00    -0.343 OA
BRANCH   7   8
HETATM    8  C   UNK N   1      -0.559   0.835  -0.125  0.00  0.00     0.251 C 
BRANCH   8   9
HETATM    9  C   UNK N   1      -2.050   0.944  -0.055  0.00  0.00     0.097 A 
HETATM   10  N   UNK N   1      -2.929  -0.133  -0.002  0.00  0.00    -0.377 N 
HETATM   11  C   UNK N   1      -4.280   0.356   0.037  0.00  0.00     0.140 A 
HETATM   12  H   UNK N   1      -2.666  -1.127  -0.008  0.00  0.00     0.160 HD
HETATM   13  C   UNK N   1      -4.079   1.895   0.011  0.00  0.00     0.140 A 
HETATM   14  N   UNK N   1      -2.642   2.065  -0.051  0.00  0.00    -0.377 N 
ATOM     15  HN  UNK N   1      -2.168   2.968  -0.088  1.00  0.00     0.160 HD
ENDBRANCH   8   9
ENDBRANCH   7   8
ENDBRANCH   2   7
BRANCH   1  16
HETATM   16  C   UNK N   1       2.197   1.444  -0.595  0.00  0.00     0.021 A 
HETATM   17  C   UNK N   1       3.255   2.277   0.119  0.00  0.00     0.010 A 
HETATM   18  C   UNK N   1       1.849   2.251   0.652  0.00  0.00     0.010 A 
ENDBRANCH   1  16
TORSDOF 4
