REMARK  4 active torsions:
REMARK  status: ('A' for Active; 'I' for Inactive)
REMARK    1  A    between atoms: C_3  and  C_7 
REMARK    2  A    between atoms: C_7  and  N_8 
REMARK       I    between atoms: N_8  and  C_9 
REMARK    3  A    between atoms: C_9  and  C_10 
REMARK    4  A    between atoms: C_10  and  C_11 
ROOT
HETATM    1  C   UNK N   1       0.656   0.326  -0.611  0.00  0.00     0.161 C 
ENDROOT
BRANCH   1   2
HETATM    2  C   UNK N   1      -0.507   1.207  -0.312  0.00  0.00    -0.041 A 
HETATM    3  C   UNK N   1      -0.426   2.593  -0.502  0.00  0.00     0.009 A 
HETATM    4  C   UNK N   1      -1.531   3.403  -0.222  0.00  0.00     0.001 A 
HETATM    5  C   UNK N   1      -2.721   2.827   0.235  0.00  0.00     0.000 A 
HETATM    6  C   UNK N   1      -2.805   1.444   0.416  0.00  0.00     0.001 A 
HETATM    7  C   UNK N   1      -1.698   0.635   0.145  0.00  0.00     0.009 A 
ENDBRANCH   1   2
BRANCH   1   8
HETATM    8  N   UNK N   1       1.825   0.772   0.106  0.00  0.00    -0.357 N 
HETATM    9  C   UNK N   1       2.918  -0.014   0.241  0.00  0.00     0.218 C 
HETATM   10  O   UNK N   1       2.919  -1.161  -0.179  0.00  0.00    -0.274 OA
HETATM   11  H   UNK N   1       1.828   1.671   0.506  0.00  0.00     0.162 HD
BRANCH   9  12
HETATM   12  C   UNK N   1       4.138   0.542   0.892  0.00  0.00     0.117 C 
BRANCH  12  13
HETATM   13  C   UNK N   1       5.255   0.639  -0.130  0.00  0.00     0.124 C 
HETATM   14 Cl   UNK N   1       5.922   2.286  -0.123  0.00  0.00    -0.130 Cl
ENDBRANCH  12  13
ENDBRANCH   9  12
ENDBRANCH   1   8
TORSDOF 4
