REMARK  15 active torsions:
REMARK  status: ('A' for Active; 'I' for Inactive)
REMARK    1  A    between atoms: C_16  and  O_1 
REMARK    2  A    between atoms: C_22  and  O_1 
REMARK    3  A    between atoms: C_19  and  O_3 
REMARK    4  A    between atoms: C_26  and  O_3 
REMARK    5  A    between atoms: C_23  and  O_5 
REMARK    6  A    between atoms: O_5  and  C_32 
REMARK    7  A    between atoms: C_20  and  O_7 
REMARK    8  A    between atoms: C_27  and  O_8 
REMARK    9  A    between atoms: C_31  and  O_9 
REMARK   10  A    between atoms: C_41  and  O_12 
REMARK   11  A    between atoms: C_17  and  N_15 
REMARK   12  A    between atoms: C_28  and  C_37 
REMARK   13  A    between atoms: C_32  and  C_40 
REMARK   14  A    between atoms: C_37  and  C_43 
REMARK   15  A    between atoms: C_40  and  C_44 
ROOT
HETATM    1  O   UNK N   1      -0.806  -2.111   0.302  0.00  0.00    -0.351 OA
HETATM    2  O   UNK N   1      -0.797   0.307  -0.892  0.00  0.00    -0.388 OA
HETATM    3  C   UNK N   1       1.348  -0.855   0.670  0.00  0.00     0.189 C 
HETATM    4  C   UNK N   1       0.481   0.331   1.138  0.00  0.00     0.286 C 
HETATM    5  C   UNK N   1      -0.882   0.278   0.509  0.00  0.00     0.209 C 
HETATM    6  C   UNK N   1      -1.448  -1.031   0.951  0.00  0.00     0.291 C 
HETATM    7  C   UNK N   1       0.512  -2.169   0.847  0.00  0.00     0.152 C 
HETATM    8  C   UNK N   1       1.260  -3.380   0.317  0.00  0.00     0.042 C 
HETATM    9  H   UNK N   1      -0.750   0.266  -1.860  0.00  0.00     0.210 HD
ENDROOT
BRANCH   4  10
HETATM   10  N   UNK N   1       1.115   1.659   1.144  0.00  0.00     0.089 N 
HETATM   11  C   UNK N   1       0.698   2.320   2.368  0.00  0.00     0.310 C 
HETATM   12  C   UNK N   1       0.676   2.521   0.046  0.00  0.00     0.310 C 
ENDBRANCH   4  10
BRANCH   6  13
HETATM   13  O   UNK N   1      -2.858  -1.068   1.062  0.00  0.00    -0.350 OA
BRANCH  13  14
HETATM   14  C   UNK N   1      -3.519  -0.827  -0.164  0.00  0.00     0.160 C 
HETATM   15  C   UNK N   1      -4.694  -1.843  -0.250  0.00  0.00     0.179 C 
HETATM   16  C   UNK N   1      -4.328  -3.315   0.052  0.00  0.00     0.159 C 
HETATM   17  C   UNK N   1      -5.452  -4.307  -0.283  0.00  0.00     0.145 C 
HETATM   18  C   UNK N   1      -6.741  -4.109   0.469  0.00  0.00     0.261 C 
HETATM   19  O   UNK N   1      -7.888  -3.920  -0.235  0.00  0.00    -0.316 OA
HETATM   20  O   UNK N   1      -6.755  -4.163   1.691  0.00  0.00    -0.265 OA
HETATM   21  C   UNK N   1      -9.139  -3.717   0.324  0.00  0.00     0.131 C 
HETATM   22  C   UNK N   1      -9.256  -2.354   1.014  0.00  0.00     0.059 C 
HETATM   23  C   UNK N   1     -10.191  -3.828  -0.763  0.00  0.00     0.040 C 
HETATM   24  C   UNK N   1      -8.693  -1.266   0.160  0.00  0.00    -0.024 C 
HETATM   25  C   UNK N   1      -8.451  -0.064   0.669  0.00  0.00    -0.004 C 
HETATM   26  C   UNK N   1      -7.682   0.881  -0.135  0.00  0.00    -0.002 C 
HETATM   27  C   UNK N   1      -7.136   1.955   0.429  0.00  0.00     0.005 C 
HETATM   28  C   UNK N   1      -6.158   2.834  -0.304  0.00  0.00     0.144 C 
HETATM   29  C   UNK N   1      -5.611   2.262  -1.631  0.00  0.00     0.014 C 
HETATM   30  C   UNK N   1      -4.959   0.860  -1.505  0.00  0.00     0.014 C 
HETATM   31  C   UNK N   1      -4.634   3.237  -2.273  0.00  0.00     0.012 C 
HETATM   32  C   UNK N   1      -4.099   0.637  -0.248  0.00  0.00     0.024 C 
BRANCH  15  33
HETATM   33  O   UNK N   1      -5.828  -1.422   0.481  0.00  0.00    -0.386 OA
HETATM   34  C   UNK N   1      -5.532  -1.373   1.855  0.00  0.00     0.202 C 
ENDBRANCH  15  33
BRANCH  16  35
HETATM   35  O   UNK N   1      -3.192  -3.682  -0.670  0.00  0.00    -0.392 OA
HETATM   36  H   UNK N   1      -3.017  -4.494  -1.171  0.00  0.00     0.210 HD
ENDBRANCH  16  35
BRANCH  28  37
HETATM   37  O   UNK N   1      -6.716   4.099  -0.492  0.00  0.00    -0.391 OA
HETATM   38  H   UNK N   1      -6.149   4.875  -0.623  0.00  0.00     0.210 HD
ENDBRANCH  28  37
BRANCH  32  39
HETATM   39  C   UNK N   1      -3.079   1.762  -0.159  0.00  0.00     0.076 C 
BRANCH  39  40
HETATM   40  C   UNK N   1      -3.253   2.567   1.081  0.00  0.00     0.231 C 
HETATM   41  O   UNK N   1      -2.544   3.541   1.273  0.00  0.00    -0.307 OA
ENDBRANCH  39  40
ENDBRANCH  32  39
ENDBRANCH  13  14
ENDBRANCH   6  13
BRANCH   3  42
HETATM   42  O   UNK N   1       1.826  -0.677  -0.641  0.00  0.00    -0.351 OA
BRANCH  42  43
HETATM   43  C   UNK N   1       2.983   0.089  -0.457  0.00  0.00     0.264 C 
HETATM   44  O   UNK N   1       4.157  -0.669  -0.530  0.00  0.00    -0.354 OA
HETATM   45  C   UNK N   1       5.094   0.072   0.215  0.00  0.00     0.153 C 
HETATM   46  C   UNK N   1       5.454   1.374  -0.537  0.00  0.00     0.194 C 
HETATM   47  C   UNK N   1       6.324  -0.777   0.465  0.00  0.00     0.042 C 
HETATM   48  C   UNK N   1       4.186   2.215  -0.799  0.00  0.00     0.087 C 
HETATM   49  C   UNK N   1       3.083   1.310  -1.372  0.00  0.00     0.101 C 
HETATM   50  C   UNK N   1       3.712   2.871   0.494  0.00  0.00     0.049 C 
BRANCH  46  51
HETATM   51  O   UNK N   1       6.363   2.103   0.200  0.00  0.00    -0.310 OA
BRANCH  51  52
HETATM   52  C   UNK N   1       7.548   2.509  -0.305  0.00  0.00     0.259 C 
HETATM   53  O   UNK N   1       7.796   2.389  -1.494  0.00  0.00    -0.265 OA
BRANCH  52  54
HETATM   54  C   UNK N   1       8.562   3.108   0.623  0.00  0.00     0.115 C 
BRANCH  54  55
HETATM   55  C   UNK N   1       9.848   2.285   0.715  0.00  0.00    -0.013 C 
HETATM   56  C   UNK N   1      10.638   2.337  -0.580  0.00  0.00     0.010 C 
HETATM   57  C   UNK N   1       9.575   0.843   1.113  0.00  0.00     0.010 C 
ENDBRANCH  54  55
ENDBRANCH  52  54
ENDBRANCH  51  52
ENDBRANCH  46  51
BRANCH  48  58
HETATM   58  O   UNK N   1       4.475   3.226  -1.715  0.00  0.00    -0.387 OA
HETATM   59  H   UNK N   1       5.184   3.404  -2.352  0.00  0.00     0.210 HD
ENDBRANCH  48  58
ENDBRANCH  42  43
ENDBRANCH   3  42
TORSDOF 15
