REMARK  8 active torsions:
REMARK  status: ('A' for Active; 'I' for Inactive)
REMARK    1  A    between atoms: C_13  and  C_8 
REMARK    2  A    between atoms: N_17  and  C_8 
REMARK    3  A    between atoms: C_13  and  C_9 
REMARK    4  A    between atoms: O_20  and  C_9 
REMARK    5  A    between atoms: N_17  and  C_10 
REMARK    6  A    between atoms: C_15  and  C_11 
REMARK    7  A    between atoms: O_19  and  C_13 
REMARK    8  A    between atoms: O_20  and  C_14 
ROOT
HETATM    1  C   UNK N   1      -2.600   5.147  -0.155  0.00  0.00     0.004 A 
HETATM    2  C   UNK N   1      -3.778   4.383  -0.040  0.00  0.00     0.014 A 
HETATM    3  C   UNK N   1      -1.338   4.515  -0.252  0.00  0.00     0.040 A 
HETATM    4  C   UNK N   1      -4.612   2.009   0.063  0.00  0.00     0.055 A 
HETATM    5  C   UNK N   1      -3.652   2.997  -0.026  0.00  0.00     0.003 A 
HETATM    6  C   UNK N   1      -1.239   3.110  -0.227  0.00  0.00     0.103 A 
HETATM    7  C   UNK N   1      -3.875   0.823   0.020  0.00  0.00     0.122 A 
HETATM    8  C   UNK N   1      -2.435   2.385  -0.113  0.00  0.00     0.119 A 
HETATM    9  O   UNK N   1      -2.589   1.086  -0.082  0.00  0.00    -0.303 OA
ENDROOT
BRANCH   6  10
HETATM   10  O   UNK N   1      -0.022   2.513  -0.306  0.00  0.00    -0.346 OA
BRANCH  10  11
HETATM   11  C   UNK N   1       0.147   1.158  -0.103  0.00  0.00     0.209 C 
BRANCH  11  12
HETATM   12  C   UNK N   1       1.592   0.711  -0.228  0.00  0.00     0.159 C 
BRANCH  12  13
HETATM   13  C   UNK N   1       2.517   1.551   0.630  0.00  0.00     0.147 C 
BRANCH  13  14
HETATM   14  N   UNK N   1       3.058   2.642  -0.166  0.00  0.00    -0.415 N 
HETATM   15  H   UNK N   1       2.606   3.087  -0.964  0.00  0.00     0.153 HD
BRANCH  14  16
HETATM   16  C   UNK N   1       4.362   2.981   0.385  0.00  0.00     0.068 C 
HETATM   17  C   UNK N   1       5.405   1.970  -0.064  0.00  0.00     0.031 C 
HETATM   18  C   UNK N   1       4.768   4.354  -0.104  0.00  0.00     0.031 C 
ENDBRANCH  14  16
ENDBRANCH  13  14
ENDBRANCH  12  13
BRANCH  12  19
HETATM   19  O   UNK N   1       1.671  -0.615   0.197  0.00  0.00    -0.392 OA
HETATM   20  H   UNK N   1       0.899  -1.123   0.493  0.00  0.00     0.210 HD
ENDBRANCH  12  19
ENDBRANCH  11  12
ENDBRANCH  10  11
ENDBRANCH   6  10
BRANCH   7  21
HETATM   21  C   UNK N   1      -4.412  -0.545   0.066  0.00  0.00     0.179 C 
HETATM   22  C   UNK N   1      -5.882  -0.786   0.141  0.00  0.00     0.099 C 
HETATM   23  O   UNK N   1      -3.649  -1.496   0.032  0.00  0.00    -0.291 OA
ENDBRANCH   7  21
TORSDOF 8
