REMARK  7 active torsions:
REMARK  status: ('A' for Active; 'I' for Inactive)
REMARK    1  A    between atoms: O_2  and  C_19 
REMARK    2  A    between atoms: O_2  and  C_26 
REMARK    3  A    between atoms: O_3  and  C_20 
REMARK    4  A    between atoms: O_3  and  C_27 
REMARK    5  A    between atoms: C_11  and  C_12 
REMARK    6  A    between atoms: C_13  and  C_19 
REMARK    7  A    between atoms: C_14  and  C_20 
ROOT
HETATM    1  N   UNK N   1       0.083   3.074   1.015  0.00  0.00    -0.362 N 
HETATM    2  C   UNK N   1      -0.036   0.757  -0.596  0.00  0.00     0.103 C 
HETATM    3  C   UNK N   1       1.267   1.567  -0.443  0.00  0.00     0.052 C 
HETATM    4  C   UNK N   1      -1.306   1.502  -0.163  0.00  0.00     0.052 C 
HETATM    5  C   UNK N   1       1.268   2.671   0.354  0.00  0.00     0.018 C 
HETATM    6  C   UNK N   1      -1.193   2.583   0.656  0.00  0.00     0.018 C 
HETATM    7  C   UNK N   1       2.430   3.599   0.468  0.00  0.00     0.069 C 
HETATM    8  C   UNK N   1      -2.374   3.369   1.133  0.00  0.00     0.069 C 
HETATM    9  H   UNK N   1       0.150   3.721   1.754  0.00  0.00     0.165 HD
ENDROOT
BRANCH   2  10
HETATM   10  C   UNK N   1       0.096  -0.736  -0.163  0.00  0.00    -0.014 A 
HETATM   11  C   UNK N   1      -0.936  -1.552   0.370  0.00  0.00     0.092 A 
HETATM   12  N   UNK N   1      -2.213  -1.268   0.670  0.00  0.00    -0.239 N 
HETATM   13  C   UNK N   1      -0.747  -2.874   0.648  0.00  0.00     0.086 A 
HETATM   14  O   UNK N   1      -2.745  -2.388   1.093  0.00  0.00    -0.156 OA
ATOM     15  HN  UNK N   1      -2.677  -0.364   0.586  1.00  0.00     0.197 HD
HETATM   16  N   UNK N   1      -1.899  -3.385   1.098  0.00  0.00    -0.240 N 
ATOM     17  HN  UNK N   1      -2.079  -4.348   1.384  1.00  0.00     0.197 HD
HETATM   18  C   UNK N   1       0.461  -3.523   0.460  0.00  0.00     0.034 A 
HETATM   19  C   UNK N   1       1.522  -2.761  -0.044  0.00  0.00     0.003 A 
HETATM   20  C   UNK N   1       1.336  -1.397  -0.359  0.00  0.00     0.011 A 
ENDBRANCH   2  10
BRANCH   3  21
HETATM   21  C   UNK N   1       2.457   1.141  -1.280  0.00  0.00     0.292 C 
HETATM   22  O   UNK N   1       2.237   0.488  -2.289  0.00  0.00    -0.259 OA
BRANCH  21  23
HETATM   23  O   UNK N   1       3.757   1.415  -0.983  0.00  0.00    -0.318 OA
BRANCH  23  24
HETATM   24  C   UNK N   1       4.269   1.519   0.290  0.00  0.00     0.174 C 
HETATM   25  C   UNK N   1       5.411   2.518   0.288  0.00  0.00     0.034 C 
ENDBRANCH  23  24
ENDBRANCH  21  23
ENDBRANCH   3  21
BRANCH   4  26
HETATM   26  C   UNK N   1      -2.633   1.053  -0.696  0.00  0.00     0.292 C 
HETATM   27  O   UNK N   1      -2.668   0.217  -1.589  0.00  0.00    -0.259 OA
BRANCH  26  28
HETATM   28  O   UNK N   1      -3.790   1.543  -0.182  0.00  0.00    -0.318 OA
BRANCH  28  29
HETATM   29  C   UNK N   1      -5.031   1.111  -0.587  0.00  0.00     0.174 C 
HETATM   30  C   UNK N   1      -5.862   2.300  -1.019  0.00  0.00     0.034 C 
ENDBRANCH  28  29
ENDBRANCH  26  28
ENDBRANCH   4  26
TORSDOF 7
