REMARK  5 active torsions:
REMARK  status: ('A' for Active; 'I' for Inactive)
REMARK    1  A    between atoms: N_1  and  C_11 
REMARK    2  A    between atoms: N_2  and  C_13 
REMARK    3  A    between atoms: C_3  and  C_5 
REMARK    4  A    between atoms: C_5  and  C_9 
REMARK    5  A    between atoms: C_9  and  C_13 
ROOT
HETATM    1  N   UNK N   1      -0.895  -0.254  -0.644  0.00  0.00    -0.345 N 
HETATM    2  C   UNK N   1      -0.794   2.117  -0.865  0.00  0.00     0.002 C 
HETATM    3  C   UNK N   1      -0.124   0.781  -1.297  0.00  0.00     0.143 C 
HETATM    4  C   UNK N   1      -2.061   1.646  -0.204  0.00  0.00    -0.021 A 
HETATM    5  C   UNK N   1      -2.064   0.288  -0.100  0.00  0.00     0.042 A 
HETATM    6  C   UNK N   1      -1.083   2.992  -2.074  0.00  0.00     0.022 C 
HETATM    7  C   UNK N   1      -3.098   2.417   0.329  0.00  0.00     0.010 A 
HETATM    8  C   UNK N   1      -3.110  -0.394   0.534  0.00  0.00     0.030 A 
HETATM    9  C   UNK N   1      -4.170   1.758   0.955  0.00  0.00     0.001 A 
HETATM   10  C   UNK N   1      -4.177   0.354   1.055  0.00  0.00     0.002 A 
ENDROOT
BRANCH   2  11
HETATM   11  C   UNK N   1       0.102   2.830   0.153  0.00  0.00     0.017 C 
BRANCH  11  12
HETATM   12  C   UNK N   1       1.527   2.996  -0.368  0.00  0.00     0.031 C 
BRANCH  12  13
HETATM   13  C   UNK N   1       2.525   2.650   0.724  0.00  0.00     0.269 C 
BRANCH  13  14
HETATM   14  N   UNK N   1       3.719   2.069   0.130  0.00  0.00     0.079 N 
HETATM   15  C   UNK N   1       4.827   2.339   1.028  0.00  0.00     0.306 C 
HETATM   16  H   UNK N   1       3.588   1.032   0.099  0.00  0.00     0.315 HD
ENDBRANCH  13  14
ENDBRANCH  12  13
ENDBRANCH  11  12
ENDBRANCH   2  11
BRANCH   1  17
HETATM   17  C   UNK N   1      -0.339  -1.535  -0.351  0.00  0.00     0.034 A 
HETATM   18  C   UNK N   1       0.958  -1.847  -0.792  0.00  0.00     0.029 A 
HETATM   19  C   UNK N   1       1.563  -3.052  -0.433  0.00  0.00     0.002 A 
HETATM   20  C   UNK N   1       0.878  -3.960   0.377  0.00  0.00     0.000 A 
HETATM   21  C   UNK N   1      -0.414  -3.666   0.819  0.00  0.00     0.002 A 
HETATM   22  C   UNK N   1      -1.019  -2.458   0.461  0.00  0.00     0.029 A 
ENDBRANCH   1  17
TORSDOF 5
