REMARK  9 active torsions:
REMARK  status: ('A' for Active; 'I' for Inactive)
REMARK    1  A    between atoms: O_4  and  C_20 
REMARK    2  A    between atoms: O_4  and  C_26 
REMARK    3  A    between atoms: O_6  and  C_37 
REMARK    4  A    between atoms: N_10  and  C_21 
REMARK    5  A    between atoms: N_12  and  C_39 
REMARK    6  A    between atoms: C_18  and  C_20 
REMARK    7  A    between atoms: C_24  and  C_31 
REMARK    8  A    between atoms: C_25  and  C_26 
REMARK    9  A    between atoms: C_29  and  C_37 
ROOT
HETATM    1  N   UNK N   1       4.666  -3.358   0.577  0.00  0.00    -0.362 N 
HETATM    2  C   UNK N   1       4.244  -0.613   0.096  0.00  0.00     0.101 A 
HETATM    3  C   UNK N   1       3.096  -1.530   0.477  0.00  0.00     0.052 A 
HETATM    4  C   UNK N   1       5.633  -1.240  -0.096  0.00  0.00     0.052 A 
HETATM    5  C   UNK N   1       3.350  -2.839   0.699  0.00  0.00     0.018 A 
HETATM    6  C   UNK N   1       5.779  -2.568   0.174  0.00  0.00     0.018 A 
HETATM    7  C   UNK N   1       2.277  -3.773   1.147  0.00  0.00     0.069 C 
HETATM    8  C   UNK N   1       7.093  -3.274   0.023  0.00  0.00     0.069 C 
HETATM    9  H   UNK N   1       4.818  -4.361   0.766  0.00  0.00     0.165 HD
ENDROOT
BRANCH   3  10
HETATM   10  C   UNK N   1       1.718  -0.977   0.614  0.00  0.00     0.292 C 
HETATM   11  O   UNK N   1       1.515  -0.090   1.427  0.00  0.00    -0.259 OA
BRANCH  10  12
HETATM   12  O   UNK N   1       0.705  -1.341  -0.215  0.00  0.00    -0.315 OA
BRANCH  12  13
HETATM   13  C   UNK N   1       0.866  -2.025  -1.405  0.00  0.00     0.213 C 
BRANCH  13  14
HETATM   14  C   UNK N   1      -0.228  -3.084  -1.597  0.00  0.00     0.173 C 
HETATM   15  O   UNK N   1      -1.467  -2.622  -1.138  0.00  0.00    -0.345 OA
HETATM   16  C   UNK N   1      -1.606  -3.167   0.164  0.00  0.00     0.167 C 
HETATM   17  O   UNK N   1      -0.479  -3.942   0.483  0.00  0.00    -0.352 OA
HETATM   18  C   UNK N   1      -1.724  -2.005   1.178  0.00  0.00     0.088 C 
HETATM   19  C   UNK N   1      -2.823  -4.110   0.205  0.00  0.00     0.088 C 
HETATM   20  C   UNK N   1       0.055  -4.274  -0.756  0.00  0.00     0.205 C 
HETATM   21  C   UNK N   1      -3.089  -1.314   1.056  0.00  0.00     0.128 C 
HETATM   22  N   UNK N   1      -4.159  -2.301   1.026  0.00  0.00    -0.381 N 
HETATM   23  C   UNK N   1      -3.837  -3.692   1.256  0.00  0.00     0.128 C 
BRANCH  22  24
HETATM   24  C   UNK N   1      -5.458  -1.963   0.550  0.00  0.00     0.030 A 
HETATM   25  C   UNK N   1      -5.795  -0.636   0.236  0.00  0.00     0.031 A 
HETATM   26  C   UNK N   1      -7.056  -0.339  -0.292  0.00  0.00     0.026 A 
HETATM   27  C   UNK N   1      -7.982  -1.364  -0.517  0.00  0.00     0.034 A 
HETATM   28 Cl   UNK N   1      -9.550  -1.004  -1.201  0.00  0.00    -0.084 Cl
HETATM   29  C   UNK N   1      -7.655  -2.682  -0.203  0.00  0.00     0.026 A 
HETATM   30  C   UNK N   1      -6.404  -2.979   0.327  0.00  0.00     0.031 A 
ENDBRANCH  22  24
ENDBRANCH  13  14
ENDBRANCH  12  13
ENDBRANCH  10  12
ENDBRANCH   3  10
BRANCH   2  31
HETATM   31  C   UNK N   1       4.001   0.874  -0.078  0.00  0.00    -0.042 A 
HETATM   32  C   UNK N   1       4.880   1.802   0.496  0.00  0.00     0.044 A 
HETATM   33  C   UNK N   1       4.751   3.172   0.233  0.00  0.00     0.103 A 
HETATM   34  C   UNK N   1       3.671   3.622  -0.541  0.00  0.00     0.036 A 
HETATM   35  C   UNK N   1       2.757   2.708  -1.071  0.00  0.00     0.003 A 
HETATM   36  C   UNK N   1       2.945   1.338  -0.876  0.00  0.00     0.008 A 
BRANCH  33  37
HETATM   37  N   UNK N   1       5.757   4.085   0.656  0.00  0.00    -0.116 N 
HETATM   38  O   UNK N   1       5.692   5.350   0.303  0.00  0.00    -0.532 OA
HETATM   39  O   UNK N   1       6.738   3.681   1.210  0.00  0.00    -0.532 OA
ENDBRANCH  33  37
ENDBRANCH   2  31
BRANCH   4  40
HETATM   40  C   UNK N   1       6.804  -0.411  -0.560  0.00  0.00     0.291 C 
HETATM   41  O   UNK N   1       6.616   0.644  -1.145  0.00  0.00    -0.260 OA
BRANCH  40  42
HETATM   42  O   UNK N   1       8.075  -0.832  -0.343  0.00  0.00    -0.323 OA
HETATM   43  C   UNK N   1       9.173  -0.072  -0.678  0.00  0.00     0.213 C 
ENDBRANCH  40  42
ENDBRANCH   4  40
TORSDOF 9
