REMARK  16 active torsions:
REMARK  status: ('A' for Active; 'I' for Inactive)
REMARK    1  A    between atoms: O_1  and  C_17 
REMARK    2  A    between atoms: O_1  and  C_26 
REMARK    3  A    between atoms: O_2  and  C_18 
REMARK    4  A    between atoms: O_2  and  C_27 
REMARK    5  A    between atoms: O_5  and  C_28 
REMARK    6  A    between atoms: O_5  and  C_30 
REMARK    7  A    between atoms: O_6  and  C_29 
REMARK    8  A    between atoms: O_6  and  C_31 
REMARK    9  A    between atoms: N_10  and  C_23 
REMARK   10  A    between atoms: C_11  and  C_14 
REMARK   11  A    between atoms: C_12  and  C_17 
REMARK   12  A    between atoms: C_13  and  C_18 
REMARK   13  A    between atoms: C_26  and  C_28 
REMARK   14  A    between atoms: C_27  and  C_29 
REMARK   15  A    between atoms: C_30  and  C_32 
REMARK   16  A    between atoms: C_31  and  C_33 
ROOT
HETATM    1  N   UNK N   1      -0.269  -3.624  -0.356  0.00  0.00    -0.362 N 
HETATM    2  C   UNK N   1      -0.288  -0.802   0.136  0.00  0.00     0.101 A 
HETATM    3  C   UNK N   1       1.026  -1.655   0.168  0.00  0.00     0.052 A 
HETATM    4  C   UNK N   1      -1.613  -1.603  -0.198  0.00  0.00     0.052 A 
HETATM    5  C   UNK N   1       0.956  -2.992  -0.081  0.00  0.00     0.018 A 
HETATM    6  C   UNK N   1      -1.510  -2.957  -0.405  0.00  0.00     0.018 A 
HETATM    7  C   UNK N   1       2.153  -3.900  -0.008  0.00  0.00     0.069 C 
HETATM    8  C   UNK N   1      -2.685  -3.843  -0.705  0.00  0.00     0.069 C 
HETATM    9  H   UNK N   1      -0.262  -4.646  -0.497  0.00  0.00     0.165 HD
ENDROOT
BRANCH   2  10
HETATM   10  C   UNK N   1      -0.160   0.754   0.059  0.00  0.00    -0.042 A 
HETATM   11  C   UNK N   1       1.053   1.379  -0.301  0.00  0.00     0.044 A 
HETATM   12  C   UNK N   1       1.221   2.777  -0.224  0.00  0.00     0.103 A 
HETATM   13  C   UNK N   1       0.137   3.576   0.145  0.00  0.00     0.036 A 
HETATM   14  C   UNK N   1      -1.075   2.986   0.481  0.00  0.00     0.003 A 
HETATM   15  C   UNK N   1      -1.195   1.595   0.484  0.00  0.00     0.008 A 
BRANCH  12  16
HETATM   16  N   UNK N   1       2.500   3.370  -0.432  0.00  0.00    -0.116 N 
HETATM   17  O   UNK N   1       2.654   4.671  -0.287  0.00  0.00    -0.532 OA
HETATM   18  O   UNK N   1       3.459   2.685  -0.615  0.00  0.00    -0.532 OA
ENDBRANCH  12  16
ENDBRANCH   2  10
BRANCH   3  19
HETATM   19  C   UNK N   1       2.371  -1.084   0.547  0.00  0.00     0.292 C 
HETATM   20  O   UNK N   1       2.448  -0.126   1.302  0.00  0.00    -0.259 OA
BRANCH  19  21
HETATM   21  O   UNK N   1       3.506  -1.698   0.125  0.00  0.00    -0.316 OA
BRANCH  21  22
HETATM   22  C   UNK N   1       4.747  -1.428   0.643  0.00  0.00     0.205 C 
BRANCH  22  23
HETATM   23  C   UNK N   1       5.726  -1.087  -0.467  0.00  0.00     0.194 C 
BRANCH  23  24
HETATM   24  O   UNK N   1       6.052   0.275  -0.431  0.00  0.00    -0.389 OA
BRANCH  24  25
HETATM   25  C   UNK N   1       6.977   0.431   0.614  0.00  0.00     0.167 C 
BRANCH  25  26
HETATM   26  C   UNK N   1       8.403   0.428   0.091  0.00  0.00     0.022 C 
HETATM   27  C   UNK N   1       8.879  -0.995  -0.131  0.00  0.00     0.007 C 
ENDBRANCH  25  26
ENDBRANCH  24  25
ENDBRANCH  23  24
ENDBRANCH  22  23
ENDBRANCH  21  22
ENDBRANCH  19  21
ENDBRANCH   3  19
BRANCH   4  28
HETATM   28  C   UNK N   1      -3.011  -0.978  -0.252  0.00  0.00     0.292 C 
HETATM   29  O   UNK N   1      -3.184   0.216  -0.145  0.00  0.00    -0.259 OA
BRANCH  28  30
HETATM   30  O   UNK N   1      -4.110  -1.749  -0.392  0.00  0.00    -0.316 OA
BRANCH  30  31
HETATM   31  C   UNK N   1      -4.861  -2.093   0.707  0.00  0.00     0.205 C 
BRANCH  31  32
HETATM   32  C   UNK N   1      -6.299  -1.665   0.523  0.00  0.00     0.194 C 
BRANCH  32  33
HETATM   33  O   UNK N   1      -6.395  -0.275   0.601  0.00  0.00    -0.389 OA
BRANCH  33  34
HETATM   34  C   UNK N   1      -7.062   0.106  -0.565  0.00  0.00     0.167 C 
BRANCH  34  35
HETATM   35  C   UNK N   1      -8.493   0.507  -0.244  0.00  0.00     0.022 C 
HETATM   36  C   UNK N   1      -9.322  -0.715   0.108  0.00  0.00     0.007 C 
ENDBRANCH  34  35
ENDBRANCH  33  34
ENDBRANCH  32  33
ENDBRANCH  31  32
ENDBRANCH  30  31
ENDBRANCH  28  30
ENDBRANCH   4  28
TORSDOF 16
