REMARK  5 active torsions:
REMARK  status: ('A' for Active; 'I' for Inactive)
REMARK    1  A    between atoms: O_1  and  C_4 
REMARK    2  A    between atoms: O_2  and  C_7 
REMARK    3  A    between atoms: N_3  and  C_5 
REMARK    4  A    between atoms: C_4  and  C_5 
REMARK    5  A    between atoms: C_4  and  C_8 
ROOT
HETATM    1  C   UNK N   1      20.940 -19.349   0.000  0.00  0.00     0.065 A 
HETATM    2  C   UNK N   1      21.144 -16.565  -0.000  0.00  0.00    -0.028 A 
HETATM    3  C   UNK N   1      19.781 -18.569   0.000  0.00  0.00     0.037 A 
HETATM    4  C   UNK N   1      22.196 -18.751   0.000  0.00  0.00     0.037 A 
HETATM    5  C   UNK N   1      19.883 -17.170  -0.000  0.00  0.00     0.012 A 
HETATM    6  C   UNK N   1      22.297 -17.358  -0.000  0.00  0.00     0.012 A 
ENDROOT
BRANCH   2   7
HETATM    7  C   UNK N   1      21.286 -15.076  -0.000  0.00  0.00     0.168 C 
BRANCH   7   8
HETATM    8  O   UNK N   1      20.143 -14.271   0.000  0.00  0.00    -0.389 OA
HETATM    9  H   UNK N   1      20.230 -13.305   0.000  0.00  0.00     0.210 HD
ENDBRANCH   7   8
BRANCH   7  10
HETATM   10  C   UNK N   1      22.674 -14.448   0.000  0.00  0.00     0.149 C 
BRANCH  10  11
HETATM   11  N   UNK N   1      22.624 -13.001  -0.000  0.00  0.00    -0.423 N 
HETATM   12  C   UNK N   1      24.011 -12.574  -0.000  0.00  0.00     0.139 C 
HETATM   13  H   UNK N   1      21.794 -12.409  -0.000  0.00  0.00     0.152 HD
ENDBRANCH  10  11
ENDBRANCH   7  10
ENDBRANCH   2   7
BRANCH   1  14
HETATM   14  O   UNK N   1      20.844 -20.694   0.000  0.00  0.00    -0.361 OA
HETATM   15  H   UNK N   1      20.002 -21.104   0.000  0.00  0.00     0.217 HD
ENDBRANCH   1  14
TORSDOF 5
