REMARK  1 active torsions:
REMARK  status: ('A' for Active; 'I' for Inactive)
REMARK    1  A    between atoms: C_9  and  O_12 
ROOT
HETATM    1  C   UNK N   1      -1.944  -0.640  -0.714  0.00  0.00     0.151 C 
HETATM    2  N   UNK N   1      -0.571  -0.303  -0.441  0.00  0.00    -0.368 N 
HETATM    3  C   UNK N   1      -0.228   1.111  -0.266  0.00  0.00     0.144 A 
HETATM    4  C   UNK N   1       1.277   1.474  -0.066  0.00  0.00     0.149 A 
HETATM    5  N   UNK N   1       2.172   0.320  -0.045  0.00  0.00    -0.341 N 
HETATM    6  C   UNK N   1       3.515   0.271   0.064  0.00  0.00     0.046 A 
HETATM    7  C   UNK N   1       3.942  -1.040   0.010  0.00  0.00     0.002 A 
HETATM    8  C   UNK N   1       5.290  -1.376   0.065  0.00  0.00     0.051 A 
HETATM    9  C   UNK N   1       6.228  -0.329   0.168  0.00  0.00     0.069 A 
HETATM   10  C   UNK N   1       5.779   1.021   0.231  0.00  0.00     0.039 A 
HETATM   11  C   UNK N   1       4.407   1.330   0.183  0.00  0.00     0.033 A 
HETATM   12  C   UNK N   1       2.808  -1.816  -0.135  0.00  0.00    -0.013 A 
HETATM   13  C   UNK N   1       1.769  -0.944  -0.172  0.00  0.00     0.086 A 
HETATM   14  C   UNK N   1       0.414  -1.329  -0.370  0.00  0.00     0.127 A 
HETATM   15  N   UNK N   1       0.119  -2.582  -0.512  0.00  0.00    -0.374 N 
ATOM     16  HN  UNK N   1      -0.859  -2.828  -0.666  1.00  0.00     0.161 HD
HETATM   17  C   UNK N   1       1.106  -3.674  -0.467  0.00  0.00     0.126 A 
HETATM   18  C   UNK N   1       2.608  -3.285  -0.278  0.00  0.00     0.061 A 
ENDROOT
BRANCH   9  19
HETATM   19  O   UNK N   1       7.547  -0.635   0.183  0.00  0.00    -0.356 OA
HETATM   20  C   UNK N   1       8.540   0.318   0.192  0.00  0.00     0.210 C 
ENDBRANCH   9  19
TORSDOF 1
