REMARK  8 active torsions:
REMARK  status: ('A' for Active; 'I' for Inactive)
REMARK    1  A    between atoms: C_23  and  C_3 
REMARK    2  A    between atoms: N_30  and  C_4 
REMARK    3  A    between atoms: C_19  and  C_18 
REMARK    4  A    between atoms: N_29  and  C_18 
REMARK    5  A    between atoms: N_31  and  C_19 
REMARK    6  A    between atoms: C_25  and  C_20 
REMARK    7  A    between atoms: N_32  and  C_22 
REMARK       I    between atoms: N_32  and  C_23 
REMARK    8  A    between atoms: N_32  and  C_25 
ROOT
HETATM    1  C   UNK N   1       0.649  -1.563  -1.719  0.00  0.00     0.067 C 
HETATM    2  C   UNK N   1       0.063  -1.095   0.722  0.00  0.00     0.067 C 
HETATM    3  C   UNK N   1       0.142  -0.179  -2.026  0.00  0.00     0.275 C 
HETATM    4  C   UNK N   1      -0.518   0.232   0.210  0.00  0.00     0.275 C 
HETATM    5  C   UNK N   1       1.138  -1.675  -0.257  0.00  0.00     0.071 C 
HETATM    6  N   UNK N   1      -0.993   0.042  -1.160  0.00  0.00     0.090 N 
ENDROOT
BRANCH   5   7
HETATM    7  C   UNK N   1       2.379  -0.743  -0.168  0.00  0.00    -0.029 A 
HETATM    8  C   UNK N   1       2.497   0.220   0.862  0.00  0.00     0.010 A 
HETATM    9  C   UNK N   1       3.559   1.126   0.886  0.00  0.00     0.001 A 
HETATM   10  C   UNK N   1       4.515   1.101  -0.128  0.00  0.00     0.000 A 
HETATM   11  C   UNK N   1       4.416   0.165  -1.159  0.00  0.00     0.001 A 
HETATM   12  C   UNK N   1       3.356  -0.747  -1.184  0.00  0.00     0.010 A 
ENDBRANCH   5   7
BRANCH   5  13
HETATM   13  N   UNK N   1       1.289  -3.156  -0.000  0.00  0.00    -0.301 N 
HETATM   14  C   UNK N   1       0.111  -3.922  -0.020  0.00  0.00     0.225 C 
HETATM   15  O   UNK N   1       0.119  -5.102   0.271  0.00  0.00    -0.273 OA
BRANCH  13  16
HETATM   16  C   UNK N   1       2.613  -3.774   0.231  0.00  0.00     0.077 A 
HETATM   17  C   UNK N   1       3.689  -2.964   0.636  0.00  0.00     0.033 A 
HETATM   18  C   UNK N   1       4.988  -3.439   0.789  0.00  0.00     0.002 A 
HETATM   19  C   UNK N   1       5.265  -4.776   0.559  0.00  0.00     0.003 A 
HETATM   20  C   UNK N   1       4.241  -5.631   0.181  0.00  0.00     0.044 A 
HETATM   21  C   UNK N   1       2.931  -5.168   0.009  0.00  0.00     0.143 A 
HETATM   22  F   UNK N   1       2.058  -6.094  -0.441  0.00  0.00    -0.204 F 
ENDBRANCH  13  16
BRANCH  14  23
HETATM   23  C   UNK N   1      -1.246  -3.315  -0.342  0.00  0.00     0.099 C 
HETATM   24  C   UNK N   1      -2.414  -4.090   0.253  0.00  0.00     0.014 C 
ENDBRANCH  14  23
ENDBRANCH   5  13
BRANCH   6  25
HETATM   25  C   UNK N   1      -1.661   1.224  -1.630  0.00  0.00     0.294 C 
BRANCH  25  26
HETATM   26  C   UNK N   1      -3.133   1.035  -1.364  0.00  0.00     0.181 C 
BRANCH  26  27
HETATM   27  N   UNK N   1      -3.630   2.008  -0.409  0.00  0.00    -0.226 N 
HETATM   28  C   UNK N   1      -3.135   3.214  -0.050  0.00  0.00     0.354 A 
HETATM   29  N   UNK N   1      -3.993   3.814   0.794  0.00  0.00    -0.228 N 
HETATM   30  O   UNK N   1      -2.093   3.708  -0.457  0.00  0.00    -0.244 OA
HETATM   31  N   UNK N   1      -5.000   2.968   0.965  0.00  0.00    -0.002 NA
HETATM   32  N   UNK N   1      -4.782   1.879   0.236  0.00  0.00    -0.002 NA
BRANCH  29  33
HETATM   33  C   UNK N   1      -3.932   5.154   1.342  0.00  0.00     0.147 C 
HETATM   34  C   UNK N   1      -4.158   6.151   0.218  0.00  0.00     0.028 C 
ENDBRANCH  29  33
ENDBRANCH  26  27
ENDBRANCH  25  26
ENDBRANCH   6  25
TORSDOF 8
