REMARK  0 active torsions:
REMARK  status: ('A' for Active; 'I' for Inactive)
ROOT
HETATM    1  C   UNK N   1      -4.126  -1.272  -0.206  0.00  0.00     0.026 A 
HETATM    2  C   UNK N   1      -4.130   0.054   0.239  0.00  0.00     0.034 A 
HETATM    3  C   UNK N   1      -2.944   0.656   0.670  0.00  0.00     0.034 A 
HETATM    4  C   UNK N   1      -1.745  -0.064   0.645  0.00  0.00    -0.018 A 
HETATM    5  C   UNK N   1      -1.736  -1.392   0.151  0.00  0.00     0.079 A 
HETATM    6  C   UNK N   1      -2.930  -1.996  -0.248  0.00  0.00     0.039 A 
HETATM    7  C   UNK N   1      -0.444   0.599   1.066  0.00  0.00     0.040 C 
HETATM    8  C   UNK N   1       0.652  -0.460   1.273  0.00  0.00     0.079 C 
HETATM    9  C   UNK N   1       0.638  -1.359   0.024  0.00  0.00     0.150 C 
HETATM   10  O   UNK N   1      -0.558  -2.058   0.021  0.00  0.00    -0.319 OA
HETATM   11  C   UNK N   1       2.045   0.137   1.571  0.00  0.00     0.282 C 
HETATM   12  N   UNK N   1       2.976  -0.122   0.470  0.00  0.00     0.085 N 
HETATM   13  C   UNK N   1       3.163  -1.568   0.305  0.00  0.00     0.276 C 
HETATM   14  C   UNK N   1       1.829  -2.316   0.088  0.00  0.00     0.092 C 
HETATM   15  C   UNK N   1       4.259   0.456   0.823  0.00  0.00     0.309 C 
HETATM   16 Cl   UNK N   1      -5.619   0.974   0.228  0.00  0.00    -0.084 Cl
HETATM   17  C   UNK N   1      -0.018   1.541  -0.063  0.00  0.00     0.113 C 
HETATM   18  N   UNK N   1       0.722  -0.569  -1.207  0.00  0.00    -0.328 N 
HETATM   19  C   UNK N   1       0.463   0.769  -1.270  0.00  0.00     0.220 C 
HETATM   20  O   UNK N   1       0.609   1.358  -2.329  0.00  0.00    -0.274 OA
HETATM   21  H   UNK N   1       0.981  -1.030  -2.037  0.00  0.00     0.165 HD
ENDROOT
TORSDOF 0
