REMARK  3 active torsions:
REMARK  status: ('A' for Active; 'I' for Inactive)
REMARK    1  A    between atoms: O_3  and  C_12 
REMARK    2  A    between atoms: O_3  and  C_13 
REMARK    3  A    between atoms: C_10  and  C_13 
ROOT
HETATM    1  F   UNK N   1       0.046  -5.302  -0.031  0.00  0.00    -0.206 F 
HETATM    2  C   UNK N   1       2.144  -1.039   0.034  0.00  0.00     0.042 A 
HETATM    3  C   UNK N   1       0.855  -1.756   0.018  0.00  0.00    -0.015 A 
HETATM    4  C   UNK N   1       3.177  -2.179   0.012  0.00  0.00     0.009 A 
HETATM    5  C   UNK N   1       2.419  -3.523  -0.002  0.00  0.00     0.042 A 
HETATM    6  C   UNK N   1       1.002  -3.110  -0.002  0.00  0.00    -0.011 A 
HETATM    7  C   UNK N   1      -0.406  -1.163   0.022  0.00  0.00     0.075 A 
HETATM    8  C   UNK N   1      -0.109  -3.955  -0.018  0.00  0.00     0.123 A 
HETATM    9  C   UNK N   1      -1.547  -1.989  -0.001  0.00  0.00     0.040 A 
HETATM   10  C   UNK N   1      -1.395  -3.389  -0.020  0.00  0.00     0.045 A 
ENDROOT
BRANCH   7  11
HETATM   11  O   UNK N   1      -0.483   0.183   0.059  0.00  0.00    -0.348 OA
BRANCH  11  12
HETATM   12  C   UNK N   1      -1.636   0.920  -0.045  0.00  0.00     0.209 C 
BRANCH  12  13
HETATM   13  C   UNK N   1      -1.287   2.358   0.296  0.00  0.00     0.173 C 
HETATM   14  O   UNK N   1      -0.106   2.740  -0.368  0.00  0.00    -0.380 OA
HETATM   15  C   UNK N   1       0.282   3.966   0.194  0.00  0.00     0.198 C 
HETATM   16  C   UNK N   1      -0.734   5.033  -0.215  0.00  0.00     0.295 C 
HETATM   17  N   UNK N   1      -2.058   4.669   0.299  0.00  0.00     0.088 N 
HETATM   18  C   UNK N   1      -2.413   3.306  -0.108  0.00  0.00     0.303 C 
HETATM   19  H   UNK N   1      -2.754   5.322  -0.123  0.00  0.00     0.316 HD
ENDBRANCH  12  13
ENDBRANCH  11  12
ENDBRANCH   7  11
TORSDOF 3
