REMARK  5 active torsions:
REMARK  status: ('A' for Active; 'I' for Inactive)
REMARK    1  A    between atoms: O_3  and  C_18 
REMARK    2  A    between atoms: N_4  and  C_13 
REMARK    3  A    between atoms: C_8  and  N_6 
REMARK       I    between atoms: N_6  and  C_16 
REMARK    4  A    between atoms: N_7  and  C_22 
REMARK    5  A    between atoms: C_16  and  C_17 
ROOT
HETATM    1  O   UNK N   1       1.198   1.789  -0.780  0.00  0.00    -0.268 OA
HETATM    2  N   UNK N   1       0.890  -0.286   0.000  0.00  0.00    -0.349 N 
HETATM    3  C   UNK N   1       0.432   0.968  -0.304  0.00  0.00     0.254 C 
HETATM    4  H   UNK N   1       0.243  -0.981   0.401  0.00  0.00     0.163 HD
ENDROOT
BRANCH   3   5
HETATM    5  C   UNK N   1      -1.021   1.306  -0.123  0.00  0.00     0.066 A 
HETATM    6  C   UNK N   1      -1.568   2.632  -0.151  0.00  0.00     0.086 A 
HETATM    7  C   UNK N   1      -2.959   2.790  -0.096  0.00  0.00     0.068 A 
HETATM    8  C   UNK N   1      -3.829   1.697   0.006  0.00  0.00     0.048 A 
HETATM    9  C   UNK N   1      -3.288   0.402   0.063  0.00  0.00     0.038 A 
HETATM   10 Br   UNK N   1      -4.378  -1.167   0.197  0.00  0.00    -0.049 Br
HETATM   11  C   UNK N   1      -1.909   0.227  -0.004  0.00  0.00     0.041 A 
BRANCH   6  12
HETATM   12  O   UNK N   1      -0.835   3.773  -0.212  0.00  0.00    -0.355 OA
HETATM   13  C   UNK N   1       0.371   3.973   0.417  0.00  0.00     0.210 C 
ENDBRANCH   6  12
BRANCH   8  14
HETATM   14  N   UNK N   1      -5.239   1.905   0.053  0.00  0.00    -0.393 N 
HETATM   15  C   UNK N   1      -5.805   3.229   0.006  0.00  0.00     0.146 C 
HETATM   16  H   UNK N   1      -5.885   1.107   0.118  0.00  0.00     0.159 HD
ENDBRANCH   8  14
ENDBRANCH   3   5
BRANCH   2  17
HETATM   17  C   UNK N   1       2.262  -0.690  -0.258  0.00  0.00     0.141 C 
HETATM   18  C   UNK N   1       2.456  -2.157   0.143  0.00  0.00     0.299 C 
HETATM   19  N   UNK N   1       3.775  -2.671  -0.211  0.00  0.00     0.091 N 
HETATM   20  C   UNK N   1       4.717  -2.193   0.797  0.00  0.00     0.302 C 
HETATM   21  C   UNK N   1       5.421  -0.899   0.368  0.00  0.00     0.302 C 
HETATM   22  N   UNK N   1       4.541   0.128  -0.199  0.00  0.00     0.087 N 
HETATM   23  C   UNK N   1       3.255   0.199   0.484  0.00  0.00     0.298 C 
HETATM   24  C   UNK N   1       5.199   1.404   0.011  0.00  0.00     0.310 C 
BRANCH  19  25
HETATM   25  C   UNK N   1       3.673  -4.115  -0.038  0.00  0.00     0.268 C 
HETATM   26  C   UNK N   1       4.850  -4.824  -0.685  0.00  0.00     0.037 C 
ENDBRANCH  19  25
ENDBRANCH   2  17
TORSDOF 5
