REMARK  13 active torsions:
REMARK  status: ('A' for Active; 'I' for Inactive)
REMARK    1  A    between atoms: C_3  and  C_1 
REMARK       I    between atoms: N_6  and  C_1 
REMARK    2  A    between atoms: C_2  and  C_4 
REMARK    3  A    between atoms: O_8  and  C_2 
REMARK    4  A    between atoms: C_5  and  C_3 
REMARK    5  A    between atoms: C_4  and  C_5 
REMARK    6  A    between atoms: C_4  and  C_19 
REMARK    7  A    between atoms: C_15  and  N_6 
REMARK    8  A    between atoms: C_9  and  C_7 
REMARK    9  A    between atoms: O_12  and  C_7 
REMARK   10  A    between atoms: O_22  and  C_19 
REMARK   11  A    between atoms: C_25  and  O_22 
REMARK   12  A    between atoms: O_23  and  C_24 
REMARK   13  A    between atoms: C_24  and  C_25 
ROOT
HETATM    1  C   UNK N   1      -0.055  -1.189  -0.179  0.00  0.00     0.042 C 
HETATM    2  C   UNK N   1      -0.421  -2.374   0.705  0.00  0.00     0.019 C 
HETATM    3  C   UNK N   1       0.933  -1.817  -1.145  0.00  0.00     0.019 C 
HETATM    4  C   UNK N   1       0.858  -3.161   0.884  0.00  0.00     0.001 C 
HETATM    5  C   UNK N   1       1.689  -2.874  -0.354  0.00  0.00     0.001 C 
ENDROOT
BRANCH   1   6
HETATM    6  C   UNK N   1       0.477  -0.035   0.697  0.00  0.00     0.226 C 
HETATM    7  N   UNK N   1       1.730   0.504   0.601  0.00  0.00    -0.356 N 
HETATM    8  H   UNK N   1       1.955   1.217   1.242  0.00  0.00     0.162 HD
HETATM    9  O   UNK N   1      -0.272   0.422   1.543  0.00  0.00    -0.273 OA
BRANCH   7  10
HETATM   10  C   UNK N   1       2.755   0.135  -0.344  0.00  0.00     0.084 C 
HETATM   11  C   UNK N   1       3.201   1.356  -1.160  0.00  0.00     0.026 C 
HETATM   12  C   UNK N   1       4.137   2.281  -0.370  0.00  0.00     0.017 C 
HETATM   13  C   UNK N   1       5.250   1.536   0.393  0.00  0.00     0.084 C 
HETATM   14  C   UNK N   1       5.274   0.040   0.075  0.00  0.00     0.017 C 
HETATM   15  C   UNK N   1       3.909  -0.561   0.394  0.00  0.00     0.026 C 
BRANCH  13  16
HETATM   16  C   UNK N   1       6.586   2.187   0.158  0.00  0.00     0.143 C 
HETATM   17  O   UNK N   1       6.750   3.359   0.457  0.00  0.00    -0.650 OA
BRANCH  16  18
HETATM   18  O   UNK N   1       7.613   1.486  -0.363  0.00  0.00    -0.776 OA
HETATM   19  H   UNK N   1       7.547   0.624  -0.726  0.00  0.00     0.167 HD
ENDBRANCH  16  18
ENDBRANCH  13  16
ENDBRANCH   7  10
ENDBRANCH   1   6
BRANCH   1  20
HETATM   20  C   UNK N   1      -1.264  -0.722  -1.009  0.00  0.00     0.036 C 
BRANCH  20  21
HETATM   21  C   UNK N   1      -2.581  -0.639  -0.231  0.00  0.00     0.108 C 
BRANCH  21  22
HETATM   22  C   UNK N   1      -3.149   0.754  -0.262  0.00  0.00     0.145 C 
HETATM   23  O   UNK N   1      -2.513   1.680   0.212  0.00  0.00    -0.650 OA
BRANCH  22  24
HETATM   24  O   UNK N   1      -4.373   0.988  -0.780  0.00  0.00    -0.776 OA
HETATM   25  H   UNK N   1      -4.657   1.805  -1.139  0.00  0.00     0.167 HD
ENDBRANCH  22  24
ENDBRANCH  21  22
BRANCH  21  26
HETATM   26  C   UNK N   1      -3.581  -1.632  -0.822  0.00  0.00     0.183 C 
BRANCH  26  27
HETATM   27  O   UNK N   1      -3.219  -2.963  -0.579  0.00  0.00    -0.388 OA
BRANCH  27  28
HETATM   28  C   UNK N   1      -3.789  -3.307   0.656  0.00  0.00     0.193 C 
BRANCH  28  29
HETATM   29  C   UNK N   1      -5.262  -3.675   0.513  0.00  0.00     0.193 C 
BRANCH  29  30
HETATM   30  O   UNK N   1      -6.050  -2.536   0.698  0.00  0.00    -0.394 OA
HETATM   31  C   UNK N   1      -6.924  -2.521  -0.389  0.00  0.00     0.201 C 
ENDBRANCH  29  30
ENDBRANCH  28  29
ENDBRANCH  27  28
ENDBRANCH  26  27
ENDBRANCH  21  26
ENDBRANCH  20  21
ENDBRANCH   1  20
TORSDOF 13
