REMARK  1 active torsions:
REMARK  status: ('A' for Active; 'I' for Inactive)
REMARK    1  A    between atoms: C_17  and  C_18 
ROOT
HETATM    1  C   UNK N   1       8.255   2.045   1.546  0.00  0.00     0.310 C 
HETATM    2  C   UNK N   1      11.359   2.983  -0.172  0.00  0.00     0.069 C 
HETATM    3  C   UNK N   1      10.064   3.270   0.617  0.00  0.00     0.277 C 
HETATM    4  C   UNK N   1      12.991   1.087   0.246  0.00  0.00     0.047 A 
HETATM    5  C   UNK N   1      10.884  -0.768  -0.052  0.00  0.00     0.049 A 
HETATM    6  C   UNK N   1      14.032  -2.325   0.620  0.00  0.00     0.352 A 
HETATM    7  C   UNK N   1      11.683   1.534  -0.040  0.00  0.00    -0.045 A 
HETATM    8  C   UNK N   1      10.624   0.614  -0.199  0.00  0.00    -0.013 A 
HETATM    9  C   UNK N   1      13.188  -0.290   0.359  0.00  0.00     0.105 A 
HETATM   10  C   UNK N   1      12.186  -1.166   0.225  0.00  0.00     0.105 A 
HETATM   11  C   UNK N   1       9.251   1.194  -0.542  0.00  0.00     0.289 C 
HETATM   12  N   UNK N   1       8.916   2.378   0.297  0.00  0.00     0.096 NA
HETATM   13  O   UNK N   1      14.319  -0.954   0.598  0.00  0.00    -0.323 OA
HETATM   14  O   UNK N   1      12.656  -2.402   0.383  0.00  0.00    -0.323 OA
ENDROOT
BRANCH  11  15
HETATM   15  C   UNK N   1       8.103   0.147  -0.821  0.00  0.00     0.204 A 
HETATM   16  C   UNK N   1       6.637   0.471  -0.540  0.00  0.00    -0.007 A 
HETATM   17  C   UNK N   1       5.830   1.557  -0.951  0.00  0.00     0.014 A 
HETATM   18  C   UNK N   1       6.074  -0.586   0.143  0.00  0.00     0.084 A 
HETATM   19  C   UNK N   1       4.442   1.529  -0.640  0.00  0.00     0.040 A 
HETATM   20  C   UNK N   1       3.931   0.398   0.032  0.00  0.00     0.106 A 
HETATM   21  C   UNK N   1       4.720  -0.615   0.406  0.00  0.00     0.121 A 
HETATM   22  O   UNK N   1       2.675   0.121   0.371  0.00  0.00    -0.323 OA
HETATM   23  O   UNK N   1       3.981  -1.563   0.987  0.00  0.00    -0.322 OA
HETATM   24  C   UNK N   1       2.648  -1.142   0.981  0.00  0.00     0.352 A 
HETATM   25  C   UNK N   1       7.117  -1.512   0.389  0.00  0.00     0.297 A 
HETATM   26  O   UNK N   1       6.998  -2.595   0.945  0.00  0.00    -0.259 OA
HETATM   27  O   UNK N   1       8.268  -1.066  -0.135  0.00  0.00    -0.304 OA
ENDBRANCH  11  15
TORSDOF 1
