REMARK  5 active torsions:
REMARK  status: ('A' for Active; 'I' for Inactive)
REMARK    1  A    between atoms: C_7  and  C_4 
REMARK    2  A    between atoms: C_13  and  C_4 
REMARK    3  A    between atoms: C_21  and  C_7 
REMARK    4  A    between atoms: C_16  and  C_13 
REMARK    5  A    between atoms: O_29  and  C_21 
ROOT
HETATM    1  C   UNK N   1       5.543   2.124  -2.100  0.00  0.00     0.016 C 
HETATM    2  C   UNK N   1       0.592   0.196  -1.867  0.00  0.00     0.024 C 
HETATM    3  C   UNK N   1       0.002   1.129   1.756  0.00  0.00     0.006 C 
HETATM    4  C   UNK N   1       1.090   2.113   1.339  0.00  0.00     0.007 C 
HETATM    5  C   UNK N   1       7.233   0.533   0.548  0.00  0.00     0.079 C 
HETATM    6  C   UNK N   1       6.109   0.354  -0.480  0.00  0.00     0.017 C 
HETATM    7  C   UNK N   1       6.996   3.107   0.333  0.00  0.00     0.084 C 
HETATM    8  C   UNK N   1       4.686   3.965  -0.003  0.00  0.00     0.084 C 
HETATM    9  C   UNK N   1       3.342   0.261   0.508  0.00  0.00     0.085 C 
HETATM   10  C   UNK N   1       5.510   2.726   0.345  0.00  0.00     0.008 C 
HETATM   11  C   UNK N   1       7.864   1.884   0.410  0.00  0.00     0.127 C 
HETATM   12  C   UNK N   1      -0.406   0.430   0.470  0.00  0.00     0.005 C 
HETATM   13  C   UNK N   1       1.265   1.986  -0.192  0.00  0.00     0.013 C 
HETATM   14  C   UNK N   1       3.715   1.192  -0.646  0.00  0.00     0.013 C 
HETATM   15  C   UNK N   1       3.234   3.625   0.048  0.00  0.00     0.132 C 
HETATM   16  C   UNK N   1       2.038  -0.382   0.090  0.00  0.00     0.136 C 
HETATM   17  C   UNK N   1       2.706   2.395  -0.699  0.00  0.00     0.066 C 
HETATM   18  C   UNK N   1       5.217   1.605  -0.694  0.00  0.00    -0.035 C 
HETATM   19  C   UNK N   1       0.877   0.502  -0.401  0.00  0.00     0.025 C 
HETATM   20  O   UNK N   1       9.075   1.987   0.316  0.00  0.00    -0.298 OA
HETATM   21  O   UNK N   1       2.498   4.325   0.726  0.00  0.00    -0.298 OA
HETATM   22  O   UNK N   1       1.981  -1.598   0.004  0.00  0.00    -0.297 OA
ENDROOT
BRANCH  12  23
HETATM   23  C   UNK N   1      -1.140  -0.922   0.701  0.00  0.00    -0.013 C 
HETATM   24  C   UNK N   1      -0.287  -1.955   1.413  0.00  0.00     0.010 C 
BRANCH  23  25
HETATM   25  C   UNK N   1      -2.390  -0.770   1.585  0.00  0.00     0.015 C 
BRANCH  25  26
HETATM   26  C   UNK N   1      -3.367   0.343   1.209  0.00  0.00     0.110 C 
BRANCH  26  27
HETATM   27  C   UNK N   1      -3.917   0.201  -0.171  0.00  0.00     0.139 C 
HETATM   28  O   UNK N   1      -4.528  -0.806  -0.491  0.00  0.00    -0.650 OA
BRANCH  27  29
HETATM   29  O   UNK N   1      -3.765   1.203  -1.055  0.00  0.00    -0.776 OA
HETATM   30  H   UNK N   1      -3.107   1.460  -1.670  0.00  0.00     0.167 HD
ENDBRANCH  27  29
ENDBRANCH  26  27
ENDBRANCH  25  26
ENDBRANCH  23  25
ENDBRANCH  12  23
TORSDOF 5
