REMARK  8 active torsions:
REMARK  status: ('A' for Active; 'I' for Inactive)
REMARK    1  A    between atoms: C_3  and  O_41 
REMARK    2  A    between atoms: C_4  and  O_39 
REMARK    3  A    between atoms: C_6  and  O_8 
REMARK    4  A    between atoms: C_9  and  O_8 
REMARK    5  A    between atoms: C_22  and  O_36 
REMARK    6  A    between atoms: C_24  and  O_32 
REMARK    7  A    between atoms: C_25  and  C_26 
REMARK    8  A    between atoms: O_32  and  C_33 
ROOT
HETATM    1  C   UNK N   1       7.836   2.132   0.940  0.00  0.00     0.125 C 
HETATM    2  C   UNK N   1       6.797   1.475   1.854  0.00  0.00     0.033 C 
HETATM    3  C   UNK N   1       6.080   0.325   1.147  0.00  0.00     0.012 C 
HETATM    4  C   UNK N   1       5.602   0.665  -0.283  0.00  0.00    -0.036 C 
HETATM    5  C   UNK N   1       5.835   2.155  -0.675  0.00  0.00    -0.004 C 
HETATM    6  C   UNK N   1       7.301   2.561  -0.451  0.00  0.00     0.037 C 
HETATM    7  C   UNK N   1       4.903   3.138   0.060  0.00  0.00     0.006 C 
HETATM    8  C   UNK N   1       3.436   2.707  -0.019  0.00  0.00     0.008 C 
HETATM    9  C   UNK N   1       3.312   1.299   0.559  0.00  0.00     0.026 C 
HETATM   10  C   UNK N   1       4.114   0.373  -0.385  0.00  0.00     0.001 C 
HETATM   11  C   UNK N   1       3.681  -1.102  -0.314  0.00  0.00     0.007 C 
HETATM   12  C   UNK N   1       2.198  -1.248  -0.738  0.00  0.00     0.013 C 
HETATM   13  C   UNK N   1       1.385   0.058  -0.533  0.00  0.00    -0.003 C 
HETATM   14  C   UNK N   1       1.880   0.762   0.744  0.00  0.00     0.072 C 
HETATM   15  C   UNK N   1       0.799   1.767   1.070  0.00  0.00     0.072 C 
HETATM   16  C   UNK N   1      -0.474   0.964   0.775  0.00  0.00     0.143 C 
HETATM   17  C   UNK N   1      -0.127  -0.050  -0.333  0.00  0.00     0.058 C 
HETATM   18  C   UNK N   1       1.558   0.910  -1.790  0.00  0.00     0.019 C 
HETATM   19  C   UNK N   1       6.327  -0.217  -1.291  0.00  0.00     0.016 C 
ENDROOT
BRANCH   1  20
HETATM   20  O   UNK N   1       9.075   1.442   0.930  0.00  0.00    -0.356 OA
BRANCH  20  21
HETATM   21  C   UNK N   1       9.023   0.393  -0.006  0.00  0.00     0.263 C 
HETATM   22  C   UNK N   1       8.728  -0.977   0.626  0.00  0.00     0.095 C 
HETATM   23  C   UNK N   1       9.258  -2.023  -0.333  0.00  0.00     0.156 C 
HETATM   24  C   UNK N   1      10.778  -1.895  -0.412  0.00  0.00     0.175 C 
HETATM   25  C   UNK N   1      11.180  -0.412  -0.544  0.00  0.00     0.151 C 
HETATM   26  C   UNK N   1      11.929   0.106   0.673  0.00  0.00     0.042 C 
HETATM   27  O   UNK N   1      10.112   0.444  -0.925  0.00  0.00    -0.354 OA
BRANCH  23  28
HETATM   28  O   UNK N   1       8.775  -3.333  -0.118  0.00  0.00    -0.388 OA
HETATM   29  C   UNK N   1       9.155  -3.762   1.162  0.00  0.00     0.202 C 
ENDBRANCH  23  28
BRANCH  24  30
HETATM   30  O   UNK N   1      11.260  -2.625  -1.497  0.00  0.00    -0.390 OA
HETATM   31  H   UNK N   1      10.988  -3.169  -2.253  0.00  0.00     0.210 HD
ENDBRANCH  24  30
ENDBRANCH  20  21
ENDBRANCH   1  20
BRANCH  14  32
HETATM   32  O   UNK N   1       1.912  -0.156   1.805  0.00  0.00    -0.389 OA
HETATM   33  H   UNK N   1       1.374  -0.492   2.539  0.00  0.00     0.210 HD
ENDBRANCH  14  32
BRANCH  17  34
HETATM   34  C   UNK N   1      -0.658  -1.448  -0.157  0.00  0.00    -0.043 A 
HETATM   35  C   UNK N   1      -0.259  -2.316   0.762  0.00  0.00     0.087 A 
HETATM   36  C   UNK N   1      -0.929  -3.544   0.421  0.00  0.00     0.283 A 
HETATM   37  O   UNK N   1      -0.767  -4.611   0.981  0.00  0.00    -0.260 OA
HETATM   38  O   UNK N   1      -1.702  -3.385  -0.665  0.00  0.00    -0.314 OA
HETATM   39  C   UNK N   1      -1.620  -2.087  -1.133  0.00  0.00     0.214 A 
ENDBRANCH  17  34
BRANCH  16  40
HETATM   40  O   UNK N   1      -1.553   1.772   0.447  0.00  0.00    -0.316 OA
BRANCH  40  41
HETATM   41  C   UNK N   1      -1.578   2.743  -0.514  0.00  0.00     0.255 C 
HETATM   42  O   UNK N   1      -2.632   3.302  -0.763  0.00  0.00    -0.266 OA
HETATM   43  C   UNK N   1      -0.351   3.181  -1.249  0.00  0.00     0.126 C 
ENDBRANCH  40  41
ENDBRANCH  16  40
TORSDOF 8
