REMARK  12 active torsions:
REMARK  status: ('A' for Active; 'I' for Inactive)
REMARK    1  A    between atoms: O_1  and  C_2 
REMARK    2  A    between atoms: C_3  and  O_4 
REMARK    3  A    between atoms: C_5  and  O_6 
REMARK    4  A    between atoms: O_6  and  C_7 
REMARK    5  A    between atoms: C_10  and  O_11 
REMARK    6  A    between atoms: C_12  and  O_13 
REMARK    7  A    between atoms: O_13  and  P_14 
REMARK    8  A    between atoms: C_16  and  C_17 
REMARK    9  A    between atoms: C_17  and  O_18 
REMARK   10  A    between atoms: C_21  and  C_24 
REMARK   11  A    between atoms: C_22  and  P_23 
REMARK   12  A    between atoms: C_24  and  O_25 
ROOT
HETATM    1  C   UNK N   1      -0.797  -0.453   0.271  0.00  0.00     0.195 C 
HETATM    2  C   UNK N   1       0.300  -1.466   0.646  0.00  0.00     0.183 C 
HETATM    3  O   UNK N   1       0.399  -1.489   2.035  0.00  0.00    -0.390 OA
HETATM    4  C   UNK N   1       0.053  -2.903   0.148  0.00  0.00     0.204 C 
HETATM    5  C   UNK N   1      -1.422  -3.213  -0.157  0.00  0.00     0.295 C 
HETATM    6  O   UNK N   1      -2.284  -2.300   0.468  0.00  0.00    -0.340 OA
HETATM    7  C   UNK N   1      -2.084  -1.109  -0.244  0.00  0.00     0.253 C 
HETATM    8  H   UNK N   1       0.419  -1.557   3.003  0.00  0.00     0.210 HD
ENDROOT
BRANCH   1   9
HETATM    9  O   UNK N   1      -0.311   0.554  -0.572  0.00  0.00    -0.347 OA
BRANCH   9  10
HETATM   10  C   UNK N   1      -0.125   1.656   0.277  0.00  0.00     0.292 C 
HETATM   11  C   UNK N   1      -0.344   3.001  -0.439  0.00  0.00     0.202 C 
HETATM   12  C   UNK N   1       0.752   3.995  -0.064  0.00  0.00     0.162 C 
HETATM   13  C   UNK N   1       2.091   3.356  -0.411  0.00  0.00     0.080 C 
HETATM   14  C   UNK N   1       2.183   1.995   0.281  0.00  0.00     0.232 C 
HETATM   15  O   UNK N   1       1.073   1.554   1.032  0.00  0.00    -0.342 OA
BRANCH  11  16
HETATM   16  O   UNK N   1      -1.598   3.513  -0.104  0.00  0.00    -0.388 OA
HETATM   17  H   UNK N   1      -1.726   4.446   0.129  0.00  0.00     0.210 HD
ENDBRANCH  11  16
BRANCH  12  18
HETATM   18  O   UNK N   1       0.585   5.184  -0.776  0.00  0.00    -0.392 OA
HETATM   19  H   UNK N   1       1.242   5.698  -1.270  0.00  0.00     0.210 HD
ENDBRANCH  12  18
BRANCH  13  20
HETATM   20  P   UNK N   1       3.508   4.435   0.134  0.00  0.00    -0.131 P 
HETATM   21  H   UNK N   1       4.726   3.926   0.538  0.00  0.00     0.055 HD
HETATM   22  H   UNK N   1       3.333   5.804   0.134  0.00  0.00     0.055 HD
ENDBRANCH  13  20
BRANCH  14  23
HETATM   23  C   UNK N   1       3.117   0.950  -0.241  0.00  0.00     0.171 C 
HETATM   24  O   UNK N   1       2.690   0.014  -0.897  0.00  0.00    -0.648 OA
BRANCH  23  25
HETATM   25  O   UNK N   1       4.434   1.038   0.021  0.00  0.00    -0.774 OA
HETATM   26  H   UNK N   1       4.946   0.275   0.203  0.00  0.00     0.167 HD
ENDBRANCH  23  25
ENDBRANCH  14  23
ENDBRANCH   9  10
ENDBRANCH   1   9
BRANCH   4  27
HETATM   27  O   UNK N   1       0.832  -3.175  -0.976  0.00  0.00    -0.388 OA
HETATM   28  H   UNK N   1       0.939  -3.739  -1.758  0.00  0.00     0.210 HD
ENDBRANCH   4  27
BRANCH   7  29
HETATM   29  C   UNK N   1      -3.293  -0.224  -0.117  0.00  0.00     0.172 C 
HETATM   30  O   UNK N   1      -4.377  -0.625  -0.506  0.00  0.00    -0.648 OA
BRANCH  29  31
HETATM   31  O   UNK N   1      -3.196   1.002   0.434  0.00  0.00    -0.774 OA
HETATM   32  H   UNK N   1      -2.425   1.371   0.816  0.00  0.00     0.167 HD
ENDBRANCH  29  31
ENDBRANCH   7  29
BRANCH   5  33
HETATM   33  O   UNK N   1      -1.726  -4.515   0.245  0.00  0.00    -0.337 OA
BRANCH  33  34
HETATM   34  P   UNK N   1      -2.776  -5.138  -0.991  0.00  0.00     0.004 P 
HETATM   35  H   UNK N   1      -3.621  -4.663  -1.973  0.00  0.00     0.084 HD
HETATM   36  H   UNK N   1      -2.760  -6.518  -0.991  0.00  0.00     0.084 HD
ENDBRANCH  33  34
ENDBRANCH   5  33
TORSDOF 12
