REMARK  3 active torsions:
REMARK  status: ('A' for Active; 'I' for Inactive)
REMARK    1  A    between atoms: C_2  and  C_1 
REMARK    2  A    between atoms: C_1  and  O_12 
REMARK    3  A    between atoms: C_5  and  O_9 
ROOT
HETATM    1  O   UNK N   1       3.229  -0.505   0.003  0.00  0.00    -0.411 OA
HETATM    2  H   UNK N   1       4.199  -0.505   0.003  0.00  0.00     0.205 HD
HETATM    3  H   UNK N   1       2.744   0.335   0.003  0.00  0.00     0.205 HD
ENDROOT
TORSDOF 3
