REMARK  12 active torsions:
REMARK  status: ('A' for Active; 'I' for Inactive)
REMARK    1  A    between atoms: C_6  and  C_5 
REMARK    2  A    between atoms: N_17  and  C_5 
REMARK    3  A    between atoms: N_18  and  C_6 
REMARK    4  A    between atoms: C_14  and  C_11 
REMARK    5  A    between atoms: N_17  and  C_11 
REMARK    6  A    between atoms: C_14  and  C_12 
REMARK    7  A    between atoms: O_25  and  C_12 
REMARK    8  A    between atoms: O_21  and  C_13 
REMARK    9  A    between atoms: O_22  and  C_14 
REMARK   10  A    between atoms: O_25  and  C_15 
REMARK   11  A    between atoms: N_20  and  C_16 
REMARK   12  A    between atoms: O_23  and  C_16 
ROOT
HETATM    1  N   UNK N   1       0.103   1.567   0.410  0.00  0.00    -0.417 N 
HETATM    2  H   UNK N   1       0.215   1.682   1.418  0.00  0.00     0.153 HD
ENDROOT
BRANCH   1   3
HETATM    3  C   UNK N   1      -0.798   0.619  -0.235  0.00  0.00     0.133 C 
BRANCH   3   4
HETATM    4  C   UNK N   1      -1.887   1.287  -1.086  0.00  0.00     0.142 C 
BRANCH   4   5
HETATM    5  N   UNK N   1      -2.172   2.642  -0.671  0.00  0.00    -0.355 N 
HETATM    6  C   UNK N   1      -3.259   3.054  -0.095  0.00  0.00     0.215 C 
ATOM      7  HN  UNK N   1      -1.451   3.341  -0.848  1.00  0.00     0.163 HD
BRANCH   6   8
HETATM    8  N   UNK N   1      -4.326   2.173   0.295  0.00  0.00    -0.344 N 
HETATM    9  C   UNK N   1      -5.594   2.735   0.702  0.00  0.00     0.152 C 
HETATM   10  C   UNK N   1      -6.684   2.051  -0.129  0.00  0.00     0.187 C 
HETATM   11  O   UNK N   1      -6.620   0.656   0.075  0.00  0.00    -0.388 OA
HETATM   12  C   UNK N   1      -5.429   0.201  -0.526  0.00  0.00     0.187 C 
HETATM   13  C   UNK N   1      -4.232   0.730   0.261  0.00  0.00     0.152 C 
ENDBRANCH   6   8
BRANCH   6  14
HETATM   14  O   UNK N   1      -3.387   4.374   0.142  0.00  0.00    -0.333 OA
HETATM   15  H   UNK N   1      -2.637   4.910   0.307  0.00  0.00     0.220 HD
ENDBRANCH   6  14
ENDBRANCH   4   5
ENDBRANCH   3   4
ENDBRANCH   1   3
BRANCH   1  16
HETATM   16  C   UNK N   1       0.817   2.323  -0.607  0.00  0.00     0.147 C 
BRANCH  16  17
HETATM   17  C   UNK N   1       1.187   3.674  -0.019  0.00  0.00     0.159 C 
BRANCH  17  18
HETATM   18  C   UNK N   1       2.666   3.765   0.336  0.00  0.00     0.209 C 
BRANCH  18  19
HETATM   19  O   UNK N   1       3.082   2.596   0.936  0.00  0.00    -0.349 OA
BRANCH  19  20
HETATM   20  C   UNK N   1       4.212   1.952   0.569  0.00  0.00     0.069 A 
HETATM   21  C   UNK N   1       5.241   2.610  -0.129  0.00  0.00     0.039 A 
HETATM   22  C   UNK N   1       6.395   1.914  -0.500  0.00  0.00     0.039 A 
HETATM   23  C   UNK N   1       6.523   0.557  -0.188  0.00  0.00     0.065 A 
HETATM   24  C   UNK N   1       5.502  -0.101   0.504  0.00  0.00     0.039 A 
HETATM   25  C   UNK N   1       4.354   0.598   0.887  0.00  0.00     0.039 A 
BRANCH  23  26
HETATM   26  O   UNK N   1       7.626  -0.115  -0.554  0.00  0.00    -0.361 OA
HETATM   27  H   UNK N   1       7.605  -1.016  -0.809  0.00  0.00     0.217 HD
ENDBRANCH  23  26
ENDBRANCH  19  20
ENDBRANCH  18  19
ENDBRANCH  17  18
BRANCH  17  28
HETATM   28  O   UNK N   1       0.852   4.684  -0.918  0.00  0.00    -0.392 OA
HETATM   29  H   UNK N   1       1.345   5.237  -1.545  0.00  0.00     0.210 HD
ENDBRANCH  17  28
ENDBRANCH  16  17
ENDBRANCH   1  16
TORSDOF 12
