REMARK  5 active torsions:
REMARK  status: ('A' for Active; 'I' for Inactive)
REMARK    1  A    between atoms: O_1  and  Hg_2 
REMARK    2  A    between atoms: Hg_2  and  C_3 
REMARK    3  A    between atoms: C_11  and  C_12 
REMARK    4  A    between atoms: C_17  and  C_18 
REMARK    5  A    between atoms: C_18  and  O_20 
ROOT
HETATM    1  C   UNK N   1       1.084  -3.915  -0.067  0.00  0.00     0.025 A 
HETATM    2  C   UNK N   1      -0.147  -3.268  -0.082  0.00  0.00     0.132 A 
HETATM    3  O   UNK N   1      -1.272  -4.010  -0.066  0.00  0.00    -0.190 OA
HETATM    4 Na   UNK N   1      -3.175  -3.354   0.078  0.00  0.00     0.000 Na
HETATM    5  C   UNK N   1      -0.189  -1.869  -0.099  0.00  0.00     0.048 A 
HETATM    6 Br   UNK N   1      -1.839  -0.908  -0.125  0.00  0.00    -0.048 Br
HETATM    7  C   UNK N   1       1.002  -1.143  -0.074  0.00  0.00     0.037 A 
HETATM    8  C   UNK N   1       2.263  -1.764  -0.014  0.00  0.00     0.012 A 
HETATM    9  C   UNK N   1       3.500  -1.009   0.099  0.00  0.00     0.001 A 
HETATM   10  C   UNK N   1       4.684  -1.798   0.220  0.00  0.00     0.011 A 
HETATM   11  C   UNK N   1       5.949  -1.277   0.496  0.00  0.00     0.038 A 
HETATM   12  C   UNK N   1       7.082  -2.093   0.569  0.00  0.00     0.061 A 
HETATM   13 Br   UNK N   1       8.784  -1.278   0.880  0.00  0.00    -0.047 Br
HETATM   14  C   UNK N   1       6.976  -3.481   0.397  0.00  0.00     0.192 A 
HETATM   15  O   UNK N   1       7.967  -4.186   0.443  0.00  0.00    -0.287 OA
HETATM   16  C   UNK N   1       5.729  -4.066   0.190  0.00  0.00     0.094 A 
HETATM   17  C   UNK N   1       4.584  -3.280   0.118  0.00  0.00     0.091 A 
HETATM   18  O   UNK N   1       3.411  -3.867   0.009  0.00  0.00    -0.308 OA
HETATM   19  C   UNK N   1       2.283  -3.191  -0.034  0.00  0.00     0.095 A 
ENDROOT
BRANCH   9  20
HETATM   20  C   UNK N   1       3.477   0.546   0.199  0.00  0.00    -0.008 A 
HETATM   21  C   UNK N   1       2.268   1.105   0.669  0.00  0.00     0.013 A 
HETATM   22  C   UNK N   1       2.075   2.462   0.888  0.00  0.00     0.001 A 
HETATM   23  C   UNK N   1       3.116   3.342   0.682  0.00  0.00     0.001 A 
HETATM   24  C   UNK N   1       4.330   2.863   0.217  0.00  0.00     0.018 A 
HETATM   25  C   UNK N   1       4.550   1.498  -0.062  0.00  0.00     0.053 A 
BRANCH  25  26
HETATM   26  C   UNK N   1       5.882   1.238  -0.675  0.00  0.00     0.323 C 
HETATM   27  O   UNK N   1       6.818   1.980  -0.410  0.00  0.00    -0.257 OA
BRANCH  26  28
HETATM   28  O   UNK N   1       6.057   0.296  -1.622  0.00  0.00    -0.144 OA
HETATM   29 Na   UNK N   1       4.589  -0.778  -2.451  0.00  0.00     0.000 Na
ENDBRANCH  26  28
ENDBRANCH  25  26
ENDBRANCH   9  20
BRANCH   1  30
HETATM   30 Hg   UNK N   1       1.110  -5.981  -0.022  0.00  0.00     0.243 Hg
BRANCH  30  31
HETATM   31  O   UNK N   1       1.039  -7.962   0.095  0.00  0.00    -0.406 OA
HETATM   32  H   UNK N   1       0.184  -8.415   0.152  0.00  0.00     0.206 HD
ENDBRANCH  30  31
ENDBRANCH   1  30
TORSDOF 5
