REMARK  23 active torsions:
REMARK  status: ('A' for Active; 'I' for Inactive)
REMARK    1  A    between atoms: C_5  and  N_52 
REMARK    2  A    between atoms: C_6  and  C_10 
REMARK    3  A    between atoms: C_10  and  N_11 
REMARK    4  A    between atoms: N_11  and  C_12 
REMARK    5  A    between atoms: N_11  and  C_50 
REMARK    6  A    between atoms: C_13  and  S_14 
REMARK    7  A    between atoms: C_13  and  C_41 
REMARK    8  A    between atoms: S_14  and  S_15 
REMARK    9  A    between atoms: S_15  and  C_16 
REMARK   10  A    between atoms: C_16  and  C_33 
REMARK   11  A    between atoms: C_17  and  N_18 
REMARK   12  A    between atoms: N_18  and  C_19 
REMARK   13  A    between atoms: N_18  and  C_21 
REMARK   14  A    between atoms: C_21  and  C_22 
REMARK   15  A    between atoms: C_23  and  N_31 
REMARK   16  A    between atoms: C_33  and  C_34 
REMARK   17  A    between atoms: C_34  and  O_35 
REMARK   18  A    between atoms: O_35  and  C_36 
REMARK   19  A    between atoms: C_36  and  C_38 
REMARK   20  A    between atoms: C_41  and  C_42 
REMARK   21  A    between atoms: C_42  and  O_43 
REMARK   22  A    between atoms: O_43  and  C_44 
REMARK   23  A    between atoms: C_44  and  C_46 
ROOT
HETATM    1  S   UNK N   1       0.100  -6.914   0.586  0.00  0.00    -0.055 SA
ENDROOT
BRANCH   1   2
HETATM    2  C   UNK N   1      -0.195  -5.161   0.335  0.00  0.00     0.014 C 
HETATM    3  C   UNK N   1      -1.388  -4.648  -0.101  0.00  0.00     0.024 C 
HETATM    4  C   UNK N   1      -2.551  -5.589  -0.201  0.00  0.00     0.069 C 
BRANCH   3   5
HETATM    5  N   UNK N   1      -1.538  -3.265  -0.549  0.00  0.00    -0.324 N 
BRANCH   5   6
HETATM    6  C   UNK N   1      -0.368  -2.476  -0.896  0.00  0.00     0.175 C 
BRANCH   6   7
HETATM    7  C   UNK N   1      -0.213  -1.161  -0.178  0.00  0.00     0.019 A 
HETATM    8  C   UNK N   1       1.066  -0.646   0.082  0.00  0.00     0.109 A 
HETATM    9  N   UNK N   1       1.198   0.590   0.629  0.00  0.00    -0.332 N 
HETATM   10  C   UNK N   1       0.107   1.340   0.932  0.00  0.00     0.078 A 
ATOM     11  HN  UNK N   1       2.129   0.961   0.815  1.00  0.00     0.168 HD
HETATM   12  C   UNK N   1       0.278   2.705   1.494  0.00  0.00     0.089 C 
HETATM   13  N   UNK N   1      -1.141   0.856   0.698  0.00  0.00    -0.355 N 
HETATM   14  C   UNK N   1      -1.317  -0.371   0.146  0.00  0.00     0.102 A 
ATOM     15  HN  UNK N   1      -1.954   1.421   0.941  1.00  0.00     0.166 HD
BRANCH   8  16
HETATM   16  N   UNK N   1       2.223  -1.382  -0.253  0.00  0.00    -0.385 N 
HETATM   17  H   UNK N   1       2.181  -2.338  -0.488  0.00  0.00     0.157 HD
HETATM   18  H   UNK N   1       3.096  -0.928  -0.253  0.00  0.00     0.157 HD
ENDBRANCH   8  16
ENDBRANCH   6   7
ENDBRANCH   5   6
BRANCH   5  19
HETATM   19  C   UNK N   1      -2.742  -2.740  -0.932  0.00  0.00     0.355 C 
HETATM   20  O   UNK N   1      -3.796  -3.342  -0.813  0.00  0.00    -0.283 OA
ENDBRANCH   5  19
ENDBRANCH   3   5
BRANCH   2  21
HETATM   21  C   UNK N   1       1.052  -4.354   0.486  0.00  0.00     0.075 C 
BRANCH  21  22
HETATM   22  C   UNK N   1       2.068  -4.848  -0.534  0.00  0.00     0.184 C 
BRANCH  22  23
HETATM   23  O   UNK N   1       3.340  -4.538  -0.126  0.00  0.00    -0.321 OA
BRANCH  23  24
HETATM   24  C   UNK N   1       4.300  -5.481   0.057  0.00  0.00     0.262 C 
HETATM   25  O   UNK N   1       4.043  -6.669  -0.087  0.00  0.00    -0.265 OA
BRANCH  24  26
HETATM   26  C   UNK N   1       5.693  -5.068   0.438  0.00  0.00     0.077 C 
HETATM   27  C   UNK N   1       5.800  -3.564   0.630  0.00  0.00     0.020 C 
HETATM   28  C   UNK N   1       6.676  -5.497  -0.636  0.00  0.00     0.020 C 
ENDBRANCH  24  26
ENDBRANCH  23  24
ENDBRANCH  22  23
ENDBRANCH  21  22
ENDBRANCH   2  21
ENDBRANCH   1   2
BRANCH   1  29
HETATM   29  S   UNK N   1      -1.234  -7.689   2.074  0.00  0.00    -0.055 SA
BRANCH  29  30
HETATM   30  C   UNK N   1      -1.537  -9.040   0.899  0.00  0.00     0.014 C 
HETATM   31  C   UNK N   1      -0.488  -9.851   0.507  0.00  0.00     0.024 C 
HETATM   32  C   UNK N   1       0.816  -9.696   1.257  0.00  0.00     0.069 C 
BRANCH  31  33
HETATM   33  N   UNK N   1      -0.469 -10.760  -0.629  0.00  0.00    -0.324 N 
BRANCH  33  34
HETATM   34  C   UNK N   1      -1.532 -11.358  -1.238  0.00  0.00     0.355 C 
HETATM   35  O   UNK N   1      -2.660 -11.337  -0.788  0.00  0.00    -0.283 OA
ENDBRANCH  33  34
BRANCH  33  36
HETATM   36  C   UNK N   1       0.829 -11.060  -1.205  0.00  0.00     0.175 C 
BRANCH  36  37
HETATM   37  C   UNK N   1       1.347 -12.325  -0.607  0.00  0.00     0.019 A 
HETATM   38  C   UNK N   1       2.506 -12.358   0.181  0.00  0.00     0.109 A 
HETATM   39  N   UNK N   1       2.873 -13.528   0.774  0.00  0.00    -0.332 N 
HETATM   40  C   UNK N   1       2.138 -14.656   0.602  0.00  0.00     0.078 A 
ATOM     41  HN  UNK N   1       3.712 -13.557   1.354  1.00  0.00     0.168 HD
HETATM   42  N   UNK N   1       1.031 -14.644  -0.181  0.00  0.00    -0.355 N 
HETATM   43  C   UNK N   1       2.534 -15.913   1.289  0.00  0.00     0.089 C 
HETATM   44  C   UNK N   1       0.627 -13.501  -0.786  0.00  0.00     0.102 A 
ATOM     45  HN  UNK N   1       0.498 -15.503  -0.317  1.00  0.00     0.166 HD
BRANCH  38  46
HETATM   46  N   UNK N   1       3.281 -11.199   0.390  0.00  0.00    -0.385 N 
HETATM   47  H   UNK N   1       4.252 -11.263   0.536  0.00  0.00     0.157 HD
HETATM   48  H   UNK N   1       2.846 -10.316   0.390  0.00  0.00     0.157 HD
ENDBRANCH  38  46
ENDBRANCH  36  37
ENDBRANCH  33  36
ENDBRANCH  31  33
BRANCH  30  49
HETATM   49  C   UNK N   1      -2.918  -9.036   0.341  0.00  0.00     0.075 C 
BRANCH  49  50
HETATM   50  C   UNK N   1      -3.020  -8.542  -1.088  0.00  0.00     0.184 C 
BRANCH  50  51
HETATM   51  O   UNK N   1      -4.209  -7.887  -1.389  0.00  0.00    -0.321 OA
BRANCH  51  52
HETATM   52  C   UNK N   1      -5.375  -7.784  -0.679  0.00  0.00     0.262 C 
HETATM   53  O   UNK N   1      -6.187  -6.944  -1.031  0.00  0.00    -0.265 OA
BRANCH  52  54
HETATM   54  C   UNK N   1      -5.702  -8.667   0.511  0.00  0.00     0.077 C 
HETATM   55  C   UNK N   1      -5.884 -10.107   0.067  0.00  0.00     0.020 C 
HETATM   56  C   UNK N   1      -6.956  -8.222   1.250  0.00  0.00     0.020 C 
ENDBRANCH  52  54
ENDBRANCH  51  52
ENDBRANCH  50  51
ENDBRANCH  49  50
ENDBRANCH  30  49
ENDBRANCH  29  30
ENDBRANCH   1  29
TORSDOF 23
