REMARK  3 active torsions:
REMARK  status: ('A' for Active; 'I' for Inactive)
REMARK    1  A    between atoms: N_30  and  C_14 
REMARK    2  A    between atoms: N_32  and  C_15 
REMARK    3  A    between atoms: C_22  and  C_16 
ROOT
HETATM    1  C   UNK N   1       5.124  -3.090  -0.360  0.00  0.00     0.038 A 
HETATM    2  C   UNK N   1       3.756  -2.928  -0.379  0.00  0.00     0.033 A 
HETATM    3  C   UNK N   1       5.362  -0.708  -0.229  0.00  0.00     0.052 A 
HETATM    4  C   UNK N   1       1.185   0.670  -0.927  0.00  0.00     0.197 C 
HETATM    5  C   UNK N   1      -1.517  -2.971   0.533  0.00  0.00     0.121 C 
HETATM    6  C   UNK N   1       5.942  -1.980  -0.248  0.00  0.00     0.103 A 
HETATM    7  C   UNK N   1       3.971  -0.476  -0.276  0.00  0.00     0.021 A 
HETATM    8  C   UNK N   1      -0.402  -2.256   0.321  0.00  0.00     0.118 A 
HETATM    9  C   UNK N   1       3.140  -1.666  -0.308  0.00  0.00     0.056 A 
HETATM   10  C   UNK N   1       0.851  -0.566  -0.233  0.00  0.00     0.110 A 
HETATM   11  C   UNK N   1       3.508   1.006  -0.171  0.00  0.00     0.053 C 
HETATM   12  C   UNK N   1       0.949  -2.730   0.177  0.00  0.00     0.282 A 
HETATM   13  N   UNK N   1       2.297   1.386  -0.395  0.00  0.00    -0.381 N 
ATOM     14  HN  UNK N   1       2.102   2.358  -0.153  1.00  0.00     0.160 HD
HETATM   15  N   UNK N   1      -0.367  -0.873   0.040  0.00  0.00    -0.339 N 
ATOM     16  HN  UNK N   1      -1.162  -0.234   0.052  1.00  0.00     0.167 HD
HETATM   17  N   UNK N   1       1.721  -1.665  -0.149  0.00  0.00    -0.264 N 
HETATM   18  O   UNK N   1       1.340  -3.876   0.339  0.00  0.00    -0.265 OA
ENDROOT
BRANCH   5  19
HETATM   19  N   UNK N   1      -2.784  -2.331   0.608  0.00  0.00    -0.384 N 
HETATM   20  C   UNK N   1      -3.948  -2.965   0.035  0.00  0.00     0.152 C 
HETATM   21  C   UNK N   1      -5.052  -1.920  -0.191  0.00  0.00     0.291 C 
HETATM   22  N   UNK N   1      -4.503  -0.671  -0.744  0.00  0.00     0.087 N 
HETATM   23  C   UNK N   1      -5.583   0.297  -0.761  0.00  0.00     0.310 C 
HETATM   24  C   UNK N   1      -3.445  -0.065   0.079  0.00  0.00     0.291 C 
HETATM   25  C   UNK N   1      -2.903  -0.997   1.151  0.00  0.00     0.152 C 
ENDBRANCH   5  19
BRANCH  11  26
HETATM   26  C   UNK N   1       4.493   2.159   0.071  0.00  0.00     0.013 A 
HETATM   27  C   UNK N   1       5.879   1.918   0.095  0.00  0.00     0.015 A 
HETATM   28  C   UNK N   1       6.813   2.943   0.231  0.00  0.00     0.001 A 
HETATM   29  C   UNK N   1       6.386   4.259   0.347  0.00  0.00     0.002 A 
HETATM   30  C   UNK N   1       5.026   4.546   0.340  0.00  0.00     0.025 A 
HETATM   31  C   UNK N   1       4.073   3.530   0.204  0.00  0.00     0.046 A 
HETATM   32 Cl   UNK N   1       2.395   4.076   0.211  0.00  0.00    -0.083 Cl
ENDBRANCH  11  26
BRANCH   6  33
HETATM   33  N   UNK N   1       7.346  -2.148  -0.090  0.00  0.00    -0.116 N 
HETATM   34  O   UNK N   1       8.043  -1.199   0.122  0.00  0.00    -0.532 OA
HETATM   35  O   UNK N   1       7.822  -3.242  -0.065  0.00  0.00    -0.532 OA
ENDBRANCH   6  33
TORSDOF 3
