REMARK  3 active torsions:
REMARK  status: ('A' for Active; 'I' for Inactive)
REMARK    1  A    between atoms: C_6  and  C_7 
REMARK    2  A    between atoms: C_15  and  C_16 
REMARK    3  A    between atoms: Mg_19  and  Mg_19 
ROOT
HETATM    1 Mg   UNK N   1      -3.463   3.239  -0.049  0.00  0.00     0.000 Mg
ENDROOT
TORSDOF 3
