REMARK  4 active torsions:
REMARK  status: ('A' for Active; 'I' for Inactive)
REMARK    1  A    between atoms: N_7  and  N_8 
REMARK       I    between atoms: N_8  and  C_9 
REMARK    2  A    between atoms: C_9  and  C_11 
REMARK    3  A    between atoms: C_15  and  S_17 
REMARK    4  A    between atoms: S_17  and  N_20 
ROOT
HETATM    1  C   UNK N   1      -2.358  -1.325   0.319  0.00  0.00     0.034 A 
HETATM    2  C   UNK N   1      -3.612  -1.950   0.253  0.00  0.00     0.019 A 
HETATM    3  C   UNK N   1      -4.779  -1.181   0.220  0.00  0.00     0.026 A 
HETATM    4  C   UNK N   1      -4.702   0.215   0.187  0.00  0.00     0.057 A 
HETATM    5  C   UNK N   1      -3.443   0.845   0.226  0.00  0.00     0.102 A 
HETATM    6  C   UNK N   1      -2.287   0.070   0.311  0.00  0.00     0.044 A 
HETATM    7 Cl   UNK N   1      -6.189   1.139   0.046  0.00  0.00    -0.083 Cl
ENDROOT
BRANCH   1   8
HETATM    8  C   UNK N   1      -1.115  -2.103   0.181  0.00  0.00     0.266 C 
HETATM    9  N   UNK N   1      -1.172  -3.316  -0.441  0.00  0.00    -0.284 N 
HETATM   10  H   UNK N   1      -2.072  -3.705  -0.530  0.00  0.00     0.184 HD
HETATM   11  O   UNK N   1      -0.052  -1.583   0.487  0.00  0.00    -0.266 OA
BRANCH   9  12
HETATM   12  N   UNK N   1      -0.118  -4.090  -0.975  0.00  0.00    -0.220 NA
HETATM   13  C   UNK N   1      -0.131  -5.454  -0.431  0.00  0.00     0.076 C 
HETATM   14  C   UNK N   1       0.417  -5.499   0.992  0.00  0.00     0.021 C 
HETATM   15  C   UNK N   1      -1.509  -6.093  -0.521  0.00  0.00     0.028 C 
HETATM   16  C   UNK N   1       1.850  -4.975   0.990  0.00  0.00     0.003 C 
HETATM   17  C   UNK N   1       1.898  -3.557   0.429  0.00  0.00     0.021 C 
HETATM   18  C   UNK N   1       1.254  -3.537  -0.958  0.00  0.00     0.076 C 
HETATM   19  C   UNK N   1       1.401  -2.223  -1.713  0.00  0.00     0.028 C 
ENDBRANCH   9  12
ENDBRANCH   1   8
BRANCH   5  20
HETATM   20  S   UNK N   1      -3.268   2.619   0.031  0.00  0.00     0.258 S 
HETATM   21  O   UNK N   1      -3.759   3.457   1.220  0.00  0.00    -0.201 OA
HETATM   22  O   UNK N   1      -1.795   3.039  -0.086  0.00  0.00    -0.201 OA
BRANCH  20  23
HETATM   23  N   UNK N   1      -4.021   3.325  -1.401  0.00  0.00    -0.324 N 
HETATM   24  H   UNK N   1      -3.885   3.905  -2.228  0.00  0.00     0.169 HD
HETATM   25  H   UNK N   1      -4.997   3.030  -1.401  0.00  0.00     0.169 HD
ENDBRANCH  20  23
ENDBRANCH   5  20
TORSDOF 4
