REMARK  8 active torsions:
REMARK  status: ('A' for Active; 'I' for Inactive)
REMARK    1  A    between atoms: C_2  and  O_3 
REMARK    2  A    between atoms: C_6  and  N_7 
REMARK    3  A    between atoms: N_7  and  C_8 
REMARK    4  A    between atoms: C_8  and  C_9 
REMARK    5  A    between atoms: C_16  and  N_17 
REMARK    6  A    between atoms: N_19  and  C_33 
REMARK    7  A    between atoms: C_33  and  C_34 
REMARK    8  A    between atoms: C_34  and  O_36 
ROOT
HETATM    1  C   UNK N   1      -4.302   1.839   0.150  0.00  0.00    -0.012 A 
HETATM    2  C   UNK N   1      -5.302   2.699  -0.316  0.00  0.00     0.030 A 
HETATM    3  C   UNK N   1      -5.009   4.015  -0.673  0.00  0.00     0.013 A 
HETATM    4 Br   UNK N   1      -6.391   5.169  -1.292  0.00  0.00    -0.051 Br
HETATM    5  C   UNK N   1      -3.705   4.490  -0.577  0.00  0.00     0.040 A 
HETATM    6  C   UNK N   1      -2.687   3.658  -0.118  0.00  0.00     0.039 A 
HETATM    7 Br   UNK N   1      -0.920   4.377  -0.015  0.00  0.00    -0.049 Br
HETATM    8  C   UNK N   1      -2.971   2.329   0.253  0.00  0.00     0.051 A 
ENDROOT
BRANCH   1   9
HETATM    9  C   UNK N   1      -4.739   0.433   0.503  0.00  0.00     0.155 C 
BRANCH   9  10
HETATM   10  N   UNK N   1      -3.707  -0.388   1.120  0.00  0.00    -0.413 N 
HETATM   11  H   UNK N   1      -3.250  -0.197   2.012  0.00  0.00     0.153 HD
BRANCH  10  12
HETATM   12  C   UNK N   1      -3.435  -1.528   0.256  0.00  0.00     0.077 C 
HETATM   13  C   UNK N   1      -4.447  -2.646   0.532  0.00  0.00     0.027 C 
HETATM   14  C   UNK N   1      -4.104  -3.905  -0.265  0.00  0.00     0.034 C 
HETATM   15  C   UNK N   1      -2.695  -4.372   0.087  0.00  0.00     0.118 C 
HETATM   16  C   UNK N   1      -1.701  -3.276  -0.258  0.00  0.00     0.034 C 
HETATM   17  C   UNK N   1      -2.023  -2.025   0.552  0.00  0.00     0.027 C 
BRANCH  15  18
HETATM   18  O   UNK N   1      -2.383  -5.528  -0.627  0.00  0.00    -0.396 OA
HETATM   19  H   UNK N   1      -2.971  -6.118  -1.124  0.00  0.00     0.210 HD
ENDBRANCH  15  18
ENDBRANCH  10  12
ENDBRANCH   9  10
ENDBRANCH   1   9
BRANCH   8  20
HETATM   20  N   UNK N   1      -1.925   1.507   0.717  0.00  0.00    -0.398 N 
HETATM   21  H   UNK N   1      -2.057   0.586   1.041  0.00  0.00     0.156 HD
HETATM   22  H   UNK N   1      -1.011   1.873   0.717  0.00  0.00     0.156 HD
ENDBRANCH   8  20
TORSDOF 8
