REMARK  2 active torsions:
REMARK  status: ('A' for Active; 'I' for Inactive)
REMARK    1  A    between atoms: C_11  and  C_2 
REMARK    2  A    between atoms: O_13  and  C_9 
ROOT
HETATM    1  O   UNK N   1      -0.674   1.095   0.047  0.00  0.00    -0.312 OA
HETATM    2  C   UNK N   1       0.609   1.225  -0.242  0.00  0.00     0.059 A 
HETATM    3  C   UNK N   1      -0.969  -0.181   0.014  0.00  0.00     0.103 A 
HETATM    4  C   UNK N   1       0.145  -0.908  -0.295  0.00  0.00     0.004 A 
HETATM    5  C   UNK N   1       1.184  -0.025  -0.478  0.00  0.00     0.047 A 
HETATM    6  C   UNK N   1      -2.203  -0.786   0.234  0.00  0.00     0.048 A 
HETATM    7  C   UNK N   1      -2.272  -2.188   0.143  0.00  0.00     0.058 A 
HETATM    8  C   UNK N   1       0.115  -2.296  -0.392  0.00  0.00     0.051 A 
HETATM    9  C   UNK N   1      -1.112  -2.951  -0.166  0.00  0.00     0.070 A 
HETATM   10 Br   UNK N   1      -3.762   0.242   0.626  0.00  0.00    -0.048 Br
ENDROOT
BRANCH   2  11
HETATM   11  C   UNK N   1       1.329   2.537  -0.343  0.00  0.00     0.046 C 
HETATM   12  C   UNK N   1       2.623   2.547   0.469  0.00  0.00     0.030 C 
HETATM   13  C   UNK N   1       3.333   3.910   0.380  0.00  0.00     0.114 C 
HETATM   14  N   UNK N   1       2.558   4.902  -0.375  0.00  0.00    -0.421 N 
HETATM   15  C   UNK N   1       1.225   5.016   0.218  0.00  0.00     0.114 C 
HETATM   16  H   UNK N   1       2.895   5.426  -1.182  0.00  0.00     0.153 HD
HETATM   17  C   UNK N   1       0.435   3.706   0.083  0.00  0.00     0.030 C 
ENDBRANCH   2  11
BRANCH   9  18
HETATM   18  O   UNK N   1      -1.156  -4.302  -0.252  0.00  0.00    -0.356 OA
HETATM   19  C   UNK N   1      -2.306  -5.032  -0.054  0.00  0.00     0.210 C 
ENDBRANCH   9  18
TORSDOF 2
