REMARK  4 active torsions:
REMARK  status: ('A' for Active; 'I' for Inactive)
REMARK    1  A    between atoms: C_20  and  C_17 
REMARK    2  A    between atoms: C_19  and  O_38 
REMARK    3  A    between atoms: C_25  and  O_33 
REMARK    4  A    between atoms: C_27  and  O_38 
ROOT
HETATM    1  C   UNK N   1       6.588  -3.753  -0.055  0.00  0.00     0.042 C 
HETATM    2  C   UNK N   1       7.867  -3.073  -0.521  0.00  0.00     0.152 C 
HETATM    3  C   UNK N   1       9.085  -3.739   0.118  0.00  0.00     0.178 C 
HETATM    4  C   UNK N   1      10.328  -2.988  -0.381  0.00  0.00     0.183 C 
HETATM    5  C   UNK N   1      10.227  -1.493  -0.042  0.00  0.00     0.204 C 
HETATM    6  C   UNK N   1       8.907  -0.929  -0.583  0.00  0.00     0.292 C 
HETATM    7  O   UNK N   1       8.993  -3.670   1.515  0.00  0.00    -0.390 OA
HETATM    8  O   UNK N   1      10.276  -1.307   1.345  0.00  0.00    -0.388 OA
HETATM    9  O   UNK N   1       7.812  -1.729  -0.121  0.00  0.00    -0.351 OA
HETATM   10  H   UNK N   1       9.002  -3.591   2.482  0.00  0.00     0.210 HD
HETATM   11  H   UNK N   1      10.405  -1.273   2.305  0.00  0.00     0.210 HD
ENDROOT
BRANCH   4  12
HETATM   12  O   UNK N   1      11.485  -3.533   0.178  0.00  0.00    -0.390 OA
HETATM   13  H   UNK N   1      11.559  -4.419   0.566  0.00  0.00     0.210 HD
ENDBRANCH   4  12
BRANCH   6  14
HETATM   14  O   UNK N   1       8.812   0.426  -0.110  0.00  0.00    -0.349 OA
BRANCH  14  15
HETATM   15  C   UNK N   1       7.466   0.829  -0.007  0.00  0.00     0.147 C 
HETATM   16  C   UNK N   1       7.250   2.324   0.078  0.00  0.00     0.037 C 
HETATM   17  C   UNK N   1       5.731   2.473  -0.081  0.00  0.00     0.017 C 
HETATM   18  C   UNK N   1       4.974   1.799   1.088  0.00  0.00    -0.017 C 
HETATM   19  C   UNK N   1       4.983   2.828   2.220  0.00  0.00     0.020 C 
HETATM   20  C   UNK N   1       5.623   0.535   1.618  0.00  0.00    -0.072 C 
HETATM   21  C   UNK N   1       3.521   1.437   0.754  0.00  0.00     0.005 C 
HETATM   22  C   UNK N   1       4.756  -0.593   2.093  0.00  0.00     0.035 C 
HETATM   23  C   UNK N   1       6.790   0.148   1.149  0.00  0.00     0.008 C 
HETATM   24  C   UNK N   1       4.017  -1.103   0.831  0.00  0.00     0.012 C 
HETATM   25  C   UNK N   1       3.229   0.018   0.093  0.00  0.00     0.026 C 
HETATM   26  C   UNK N   1       1.695  -0.213   0.287  0.00  0.00     0.070 C 
HETATM   27  C   UNK N   1       0.885  -1.371  -0.340  0.00  0.00     0.040 C 
HETATM   28  C   UNK N   1       0.906   0.982  -0.278  0.00  0.00    -0.005 C 
HETATM   29  O   UNK N   1       1.513  -0.343   1.677  0.00  0.00    -0.389 OA
HETATM   30  C   UNK N   1      -0.603  -0.832  -0.389  0.00  0.00     0.013 C 
HETATM   31  C   UNK N   1      -0.498   0.599   0.175  0.00  0.00     0.032 C 
HETATM   32  C   UNK N   1       1.009   1.057  -1.825  0.00  0.00     0.019 C 
HETATM   33  C   UNK N   1       1.347   2.345   0.256  0.00  0.00     0.013 C 
HETATM   34  C   UNK N   1       2.814   2.560   0.024  0.00  0.00     0.007 C 
HETATM   35  H   UNK N   1       1.373  -0.280   2.635  0.00  0.00     0.210 HD
BRANCH  31  36
HETATM   36  C   UNK N   1      -1.421   1.778  -0.020  0.00  0.00    -0.030 A 
HETATM   37  C   UNK N   1      -1.454   2.704   1.039  0.00  0.00     0.015 A 
HETATM   38  C   UNK N   1      -1.860   4.010   0.823  0.00  0.00     0.083 A 
HETATM   39  C   UNK N   1      -2.217   4.376  -0.465  0.00  0.00     0.287 A 
HETATM   40  O   UNK N   1      -2.538   5.536  -0.689  0.00  0.00    -0.260 OA
HETATM   41  O   UNK N   1      -2.204   3.491  -1.459  0.00  0.00    -0.287 OA
HETATM   42  C   UNK N   1      -1.792   2.230  -1.286  0.00  0.00     0.153 A 
ENDBRANCH  31  36
ENDBRANCH  14  15
ENDBRANCH   6  14
TORSDOF 4
