REMARK  5 active torsions:
REMARK  status: ('A' for Active; 'I' for Inactive)
REMARK    1  A    between atoms: C_3  and  C_2 
REMARK    2  A    between atoms: O_4  and  C_2 
REMARK    3  A    between atoms: C_9  and  C_8 
REMARK    4  A    between atoms: O_10  and  C_8 
REMARK    5  A    between atoms: Ca_13  and  Ca_13 
ROOT
HETATM    1 Ca   UNK N   1      -3.713  -0.887  -0.294  0.00  0.00     0.000 Ca
ENDROOT
TORSDOF 5
