REMARK  6 active torsions:
REMARK  status: ('A' for Active; 'I' for Inactive)
REMARK    1  A    between atoms: O_2  and  Si_4 
REMARK    2  A    between atoms: Si_4  and  O_5 
REMARK    3  A    between atoms: Si_4  and  O_7 
REMARK    4  A    between atoms: Si_13  and  O_16 
REMARK    5  A    between atoms: Si_13  and  O_18 
REMARK    6  A    between atoms: Mg_20  and  Mg_20 
ROOT
HETATM    1  O   UNK N   1      -1.795  -0.423   0.000  0.00  0.00    -0.411 OA
HETATM    2  H   UNK N   1      -0.825  -0.423   0.000  0.00  0.00     0.205 HD
HETATM    3  H   UNK N   1      -2.280   0.417   0.000  0.00  0.00     0.205 HD
ENDROOT
TORSDOF 6
