REMARK  0 active torsions:
REMARK  status: ('A' for Active; 'I' for Inactive)
ROOT
HETATM    1  O   UNK N   1      21.197  -3.147  -1.713  0.00  0.00    -0.395 OA
HETATM    2  O   UNK N   1      13.576  -7.855  -1.353  0.00  0.00    -0.298 OA
HETATM    3  C   UNK N   1      17.312  -5.047   0.148  0.00  0.00    -0.001 C 
HETATM    4  C   UNK N   1      18.628  -5.664   0.727  0.00  0.00    -0.005 C 
HETATM    5  C   UNK N   1      16.068  -5.638   0.909  0.00  0.00    -0.032 C 
HETATM    6  C   UNK N   1      19.848  -5.025   0.044  0.00  0.00     0.001 C 
HETATM    7  C   UNK N   1      19.869  -3.515   0.263  0.00  0.00    -0.014 C 
HETATM    8  C   UNK N   1      16.098  -7.206   0.833  0.00  0.00     0.001 C 
HETATM    9  C   UNK N   1      17.364  -3.499   0.230  0.00  0.00     0.007 C 
HETATM   10  C   UNK N   1      18.636  -2.899  -0.400  0.00  0.00     0.012 C 
HETATM   11  C   UNK N   1      18.613  -7.181   0.540  0.00  0.00     0.006 C 
HETATM   12  C   UNK N   1      21.222  -5.453   0.535  0.00  0.00     0.008 C 
HETATM   13  C   UNK N   1      21.225  -3.130  -0.316  0.00  0.00     0.126 C 
HETATM   14  C   UNK N   1      14.686  -5.153   0.356  0.00  0.00    -0.003 C 
HETATM   15  C   UNK N   1      17.437  -7.780   1.310  0.00  0.00     0.006 C 
HETATM   16  C   UNK N   1      22.137  -4.272   0.166  0.00  0.00     0.033 C 
HETATM   17  C   UNK N   1      16.131  -5.233   2.387  0.00  0.00     0.016 C 
HETATM   18  C   UNK N   1      15.806  -7.725  -0.583  0.00  0.00     0.083 C 
HETATM   19  C   UNK N   1      19.880  -3.120   1.751  0.00  0.00     0.018 C 
HETATM   20  C   UNK N   1      14.380  -5.655  -1.052  0.00  0.00     0.083 C 
HETATM   21  C   UNK N   1      14.519  -7.137  -1.051  0.00  0.00     0.127 C 
HETATM   22  C   UNK N   1      14.436  -3.655   0.441  0.00  0.00     0.011 C 
HETATM   23  H   UNK N   1      21.177  -3.136  -2.683  0.00  0.00     0.210 HD
ENDROOT
TORSDOF 0
