REMARK  26 active torsions:
REMARK  status: ('A' for Active; 'I' for Inactive)
REMARK    1  A    between atoms: N_2  and  C_27 
REMARK    2  A    between atoms: C_7  and  O_25 
REMARK    3  A    between atoms: C_8  and  O_23 
REMARK    4  A    between atoms: C_11  and  C_12 
REMARK    5  A    between atoms: C_12  and  C_13 
REMARK    6  A    between atoms: C_16  and  O_21 
REMARK    7  A    between atoms: C_17  and  O_19 
REMARK    8  A    between atoms: C_27  and  C_28 
REMARK    9  A    between atoms: C_28  and  C_29 
REMARK   10  A    between atoms: C_29  and  O_31 
REMARK   11  A    between atoms: O_31  and  C_32 
REMARK   12  A    between atoms: C_32  and  C_33 
REMARK   13  A    between atoms: C_33  and  C_34 
REMARK   14  A    between atoms: C_34  and  C_35 
REMARK   15  A    between atoms: C_35  and  C_36 
REMARK   16  A    between atoms: C_36  and  O_37 
REMARK   17  A    between atoms: O_37  and  C_38 
REMARK   18  A    between atoms: C_38  and  C_40 
REMARK   19  A    between atoms: C_40  and  C_41 
REMARK   20  A    between atoms: N_42  and  C_41 
REMARK   21  A    between atoms: C_47  and  O_65 
REMARK   22  A    between atoms: C_48  and  O_63 
REMARK   23  A    between atoms: C_51  and  C_52 
REMARK   24  A    between atoms: C_52  and  C_53 
REMARK   25  A    between atoms: C_56  and  O_61 
REMARK   26  A    between atoms: C_57  and  O_59 
ROOT
HETATM    1  C   UNK N   1      12.985  -4.033   1.137  0.00  0.00     0.004 C 
ENDROOT
BRANCH   1   2
HETATM    2  C   UNK N   1      13.176  -2.704   0.432  0.00  0.00     0.027 C 
BRANCH   2   3
HETATM    3  C   UNK N   1      12.991  -2.891  -1.069  0.00  0.00     0.178 C 
BRANCH   3   4
HETATM    4  O   UNK N   1      11.735  -3.389  -1.344  0.00  0.00    -0.321 OA
BRANCH   4   5
HETATM    5  C   UNK N   1      11.539  -4.640  -1.835  0.00  0.00     0.260 C 
HETATM    6  O   UNK N   1      12.488  -5.372  -2.080  0.00  0.00    -0.265 OA
BRANCH   5   7
HETATM    7  C   UNK N   1      10.143  -5.125  -2.076  0.00  0.00     0.139 C 
BRANCH   7   8
HETATM    8  C   UNK N   1       9.742  -6.308  -1.176  0.00  0.00     0.247 C 
BRANCH   8   9
HETATM    9  N   UNK N   1       9.437  -5.993   0.243  0.00  0.00    -0.062 N 
HETATM   10  C   UNK N   1      10.665  -5.679   0.942  0.00  0.00     0.273 C 
HETATM   11  C   UNK N   1       8.992  -7.225   0.897  0.00  0.00     0.242 C 
HETATM   12  C   UNK N   1       7.707  -7.780   0.298  0.00  0.00     0.067 C 
HETATM   13  C   UNK N   1       6.674  -6.717   0.127  0.00  0.00    -0.045 A 
HETATM   14  C   UNK N   1       5.348  -7.118  -0.036  0.00  0.00     0.047 A 
HETATM   15  C   UNK N   1       7.004  -5.346   0.168  0.00  0.00    -0.018 A 
HETATM   16  C   UNK N   1       4.315  -6.185  -0.143  0.00  0.00     0.102 A 
HETATM   17  C   UNK N   1       4.631  -4.805  -0.113  0.00  0.00     0.102 A 
HETATM   18  C   UNK N   1       5.971  -4.418   0.042  0.00  0.00     0.049 A 
HETATM   19  C   UNK N   1       8.441  -4.902   0.466  0.00  0.00     0.227 C 
BRANCH  16  20
HETATM   20  O   UNK N   1       3.047  -6.661  -0.255  0.00  0.00    -0.353 OA
HETATM   21  C   UNK N   1       1.903  -5.897  -0.248  0.00  0.00     0.210 C 
ENDBRANCH  16  20
BRANCH  17  22
HETATM   22  O   UNK N   1       3.654  -3.870  -0.220  0.00  0.00    -0.353 OA
HETATM   23  C   UNK N   1       3.888  -2.514  -0.199  0.00  0.00     0.210 C 
ENDBRANCH  17  22
BRANCH  19  24
HETATM   24  C   UNK N   1       8.962  -3.525  -0.055  0.00  0.00     0.077 C 
BRANCH  24  25
HETATM   25  C   UNK N   1       8.308  -2.189   0.181  0.00  0.00    -0.053 A 
HETATM   26  C   UNK N   1       7.101  -2.040   0.864  0.00  0.00     0.010 A 
HETATM   27  C   UNK N   1       6.457  -0.804   0.905  0.00  0.00     0.040 A 
HETATM   28  C   UNK N   1       7.032   0.321   0.291  0.00  0.00     0.101 A 
HETATM   29  C   UNK N   1       8.289   0.202  -0.322  0.00  0.00     0.102 A 
HETATM   30  C   UNK N   1       8.911  -1.059  -0.385  0.00  0.00     0.046 A 
BRANCH  28  31
HETATM   31  O   UNK N   1       6.391   1.514   0.271  0.00  0.00    -0.353 OA
HETATM   32  C   UNK N   1       5.087   1.674   0.685  0.00  0.00     0.210 C 
ENDBRANCH  28  31
BRANCH  29  33
HETATM   33  O   UNK N   1       8.867   1.303  -0.863  0.00  0.00    -0.353 OA
HETATM   34  C   UNK N   1      10.131   1.302  -1.410  0.00  0.00     0.210 C 
ENDBRANCH  29  33
ENDBRANCH  24  25
ENDBRANCH  19  24
ENDBRANCH   8   9
ENDBRANCH   7   8
ENDBRANCH   5   7
ENDBRANCH   4   5
ENDBRANCH   3   4
ENDBRANCH   2   3
ENDBRANCH   1   2
BRANCH   1  35
HETATM   35  C   UNK N   1      13.989  -4.240   2.251  0.00  0.00     0.027 C 
BRANCH  35  36
HETATM   36  C   UNK N   1      14.598  -5.646   2.191  0.00  0.00     0.178 C 
BRANCH  36  37
HETATM   37  O   UNK N   1      14.854  -6.069   0.897  0.00  0.00    -0.321 OA
BRANCH  37  38
HETATM   38  C   UNK N   1      15.620  -5.391   0.003  0.00  0.00     0.260 C 
HETATM   39  O   UNK N   1      15.810  -5.875  -1.103  0.00  0.00    -0.265 OA
BRANCH  38  40
HETATM   40  C   UNK N   1      16.218  -4.050   0.356  0.00  0.00     0.139 C 
BRANCH  40  41
HETATM   41  C   UNK N   1      17.035  -3.452  -0.783  0.00  0.00     0.247 C 
BRANCH  41  42
HETATM   42  N   UNK N   1      18.471  -3.322  -0.500  0.00  0.00    -0.062 N 
HETATM   43  C   UNK N   1      18.695  -2.526   0.719  0.00  0.00     0.242 C 
HETATM   44  C   UNK N   1      20.185  -2.230   0.976  0.00  0.00     0.067 C 
HETATM   45  C   UNK N   1      21.122  -3.301   0.485  0.00  0.00    -0.045 A 
HETATM   46  C   UNK N   1      22.491  -3.156   0.712  0.00  0.00     0.047 A 
HETATM   47  C   UNK N   1      20.649  -4.438  -0.193  0.00  0.00    -0.018 A 
HETATM   48  C   UNK N   1      23.403  -4.140   0.311  0.00  0.00     0.102 A 
HETATM   49  C   UNK N   1      22.921  -5.300  -0.344  0.00  0.00     0.102 A 
HETATM   50  C   UNK N   1      21.551  -5.416  -0.610  0.00  0.00     0.049 A 
HETATM   51  C   UNK N   1      19.169  -4.636  -0.417  0.00  0.00     0.227 C 
HETATM   52  C   UNK N   1      18.969  -2.573  -1.653  0.00  0.00     0.273 C 
BRANCH  48  53
HETATM   53  O   UNK N   1      24.714  -3.947   0.612  0.00  0.00    -0.353 OA
HETATM   54  C   UNK N   1      25.735  -4.829   0.341  0.00  0.00     0.210 C 
ENDBRANCH  48  53
BRANCH  49  55
HETATM   55  O   UNK N   1      23.769  -6.308  -0.663  0.00  0.00    -0.353 OA
HETATM   56  C   UNK N   1      23.360  -7.614  -0.803  0.00  0.00     0.210 C 
ENDBRANCH  49  55
BRANCH  51  57
HETATM   57  C   UNK N   1      18.625  -5.540   0.721  0.00  0.00     0.077 C 
BRANCH  57  58
HETATM   58  C   UNK N   1      18.883  -7.009   0.550  0.00  0.00    -0.053 A 
HETATM   59  C   UNK N   1      20.177  -7.522   0.622  0.00  0.00     0.010 A 
HETATM   60  C   UNK N   1      20.420  -8.876   0.437  0.00  0.00     0.040 A 
HETATM   61  C   UNK N   1      19.355  -9.765   0.207  0.00  0.00     0.101 A 
HETATM   62  C   UNK N   1      18.042  -9.265   0.186  0.00  0.00     0.102 A 
HETATM   63  C   UNK N   1      17.812  -7.889   0.354  0.00  0.00     0.046 A 
BRANCH  61  64
HETATM   64  O   UNK N   1      19.579 -11.083   0.011  0.00  0.00    -0.353 OA
HETATM   65  C   UNK N   1      20.841 -11.635  -0.041  0.00  0.00     0.210 C 
ENDBRANCH  61  64
BRANCH  62  66
HETATM   66  O   UNK N   1      17.013 -10.134  -0.002  0.00  0.00    -0.353 OA
HETATM   67  C   UNK N   1      15.692  -9.750   0.014  0.00  0.00     0.210 C 
ENDBRANCH  62  66
ENDBRANCH  57  58
ENDBRANCH  51  57
ENDBRANCH  41  42
ENDBRANCH  40  41
ENDBRANCH  38  40
ENDBRANCH  37  38
ENDBRANCH  36  37
ENDBRANCH  35  36
ENDBRANCH   1  35
TORSDOF 26
