REMARK  2 active torsions:
REMARK  status: ('A' for Active; 'I' for Inactive)
REMARK    1  A    between atoms: C_3  and  O_21 
REMARK    2  A    between atoms: C_19  and  O_18 
ROOT
HETATM    1  C   UNK N   1       2.962  -0.665   0.282  0.00  0.00     0.010 C 
HETATM    2  C   UNK N   1       0.415  -2.157  -0.269  0.00  0.00     0.009 C 
HETATM    3  C   UNK N   1       3.070   1.776  -0.035  0.00  0.00     0.128 C 
HETATM    4  C   UNK N   1       0.456   2.180   0.056  0.00  0.00     0.014 C 
HETATM    5  C   UNK N   1       3.915   0.494  -0.040  0.00  0.00     0.052 C 
HETATM    6  C   UNK N   1      -2.154  -0.829   0.505  0.00  0.00     0.019 C 
HETATM    7  C   UNK N   1      -0.825   1.416   0.538  0.00  0.00     0.006 C 
HETATM    8  C   UNK N   1      -0.774  -3.025   0.165  0.00  0.00     0.034 C 
HETATM    9  C   UNK N   1      -2.058  -2.270  -0.023  0.00  0.00    -0.077 C 
HETATM   10  C   UNK N   1      -3.485  -0.131   0.160  0.00  0.00     0.012 C 
HETATM   11  C   UNK N   1      -3.054  -2.864  -0.699  0.00  0.00     0.007 C 
HETATM   12  C   UNK N   1      -4.141  -0.679  -1.104  0.00  0.00     0.036 C 
HETATM   13  C   UNK N   1       0.346  -0.838   0.505  0.00  0.00    -0.005 C 
HETATM   14  C   UNK N   1      -0.903  -0.041   0.026  0.00  0.00    -0.002 C 
HETATM   15  C   UNK N   1       1.637   1.260  -0.359  0.00  0.00     0.003 C 
HETATM   16  C   UNK N   1       1.502   0.900  -1.844  0.00  0.00     0.020 C 
HETATM   17  C   UNK N   1       1.628   0.019   0.522  0.00  0.00     0.002 C 
HETATM   18  C   UNK N   1      -4.362  -2.181  -0.950  0.00  0.00     0.141 C 
HETATM   19  C   UNK N   1       3.666   2.752  -0.958  0.00  0.00    -0.078 C 
HETATM   20  C   UNK N   1       4.220   3.551  -1.671  0.00  0.00     0.015 C 
ENDROOT
BRANCH   3  21
HETATM   21  O   UNK N   1       3.111   2.324   1.254  0.00  0.00    -0.377 OA
HETATM   22  H   UNK N   1       3.453   2.489   2.146  0.00  0.00     0.211 HD
ENDBRANCH   3  21
BRANCH  18  23
HETATM   23  O   UNK N   1      -5.241  -2.444   0.105  0.00  0.00    -0.392 OA
HETATM   24  H   UNK N   1      -5.703  -2.008   0.838  0.00  0.00     0.210 HD
ENDBRANCH  18  23
TORSDOF 2
