REMARK  11 active torsions:
REMARK  status: ('A' for Active; 'I' for Inactive)
REMARK    1  A    between atoms: C_6  and  C_5 
REMARK    2  A    between atoms: C_7  and  C_5 
REMARK    3  A    between atoms: C_8  and  C_6 
REMARK    4  A    between atoms: C_15  and  C_7 
REMARK    5  A    between atoms: C_16  and  C_8 
REMARK    6  A    between atoms: N_25  and  C_15 
REMARK    7  A    between atoms: N_26  and  C_16 
REMARK    8  A    between atoms: O_29  and  C_19 
REMARK    9  A    between atoms: O_30  and  C_20 
REMARK       I    between atoms: N_25  and  C_21 
REMARK   10  A    between atoms: O_29  and  C_21 
REMARK       I    between atoms: N_26  and  C_22 
REMARK   11  A    between atoms: O_30  and  C_22 
ROOT
HETATM    1  C   UNK N   1       5.929  -0.523  -0.704  0.00  0.00     0.002 C 
ENDROOT
BRANCH   1   2
HETATM    2  C   UNK N   1       4.792  -1.550  -0.697  0.00  0.00     0.002 C 
BRANCH   2   3
HETATM    3  C   UNK N   1       3.729  -1.256   0.354  0.00  0.00     0.020 C 
BRANCH   3   4
HETATM    4  C   UNK N   1       3.139   0.131   0.123  0.00  0.00     0.127 C 
BRANCH   4   5
HETATM    5  N   UNK N   1       1.687   0.258   0.087  0.00  0.00    -0.332 N 
HETATM    6  C   UNK N   1       1.176   1.605   0.069  0.00  0.00     0.155 C 
HETATM    7  C   UNK N   1       0.790  -0.778   0.048  0.00  0.00     0.367 C 
HETATM    8  O   UNK N   1       1.170  -1.941   0.035  0.00  0.00    -0.238 OA
BRANCH   7   9
HETATM    9  O   UNK N   1      -0.544  -0.487   0.016  0.00  0.00    -0.260 OA
BRANCH   9  10
HETATM   10  C   UNK N   1      -1.607  -1.331   0.001  0.00  0.00     0.096 A 
HETATM   11  C   UNK N   1      -1.474  -2.727   0.001  0.00  0.00     0.040 A 
HETATM   12  C   UNK N   1      -2.615  -3.533  -0.006  0.00  0.00     0.020 A 
HETATM   13  C   UNK N   1      -3.877  -2.934  -0.011  0.00  0.00     0.090 A 
HETATM   14  N   UNK N   1      -3.991  -1.578  -0.012  0.00  0.00    -0.368 N 
HETATM   15  C   UNK N   1      -5.308  -0.971  -0.015  0.00  0.00     0.154 C 
HETATM   16  C   UNK N   1      -2.891  -0.779  -0.007  0.00  0.00     0.127 A 
ENDBRANCH   9  10
ENDBRANCH   7   9
ENDBRANCH   4   5
ENDBRANCH   3   4
ENDBRANCH   2   3
ENDBRANCH   1   2
BRANCH   1  17
HETATM   17  C   UNK N   1       6.988  -0.799   0.355  0.00  0.00     0.020 C 
BRANCH  17  18
HETATM   18  C   UNK N   1       7.577  -2.190   0.152  0.00  0.00     0.127 C 
BRANCH  18  19
HETATM   19  N   UNK N   1       9.029  -2.318   0.094  0.00  0.00    -0.332 N 
HETATM   20  C   UNK N   1       9.538  -3.665   0.062  0.00  0.00     0.155 C 
HETATM   21  C   UNK N   1       9.927  -1.283   0.053  0.00  0.00     0.367 C 
HETATM   22  O   UNK N   1       9.548  -0.120   0.055  0.00  0.00    -0.238 OA
BRANCH  21  23
HETATM   23  O   UNK N   1      11.260  -1.576   0.007  0.00  0.00    -0.260 OA
BRANCH  23  24
HETATM   24  C   UNK N   1      12.323  -0.732  -0.005  0.00  0.00     0.096 A 
HETATM   25  C   UNK N   1      12.192   0.664   0.001  0.00  0.00     0.040 A 
HETATM   26  C   UNK N   1      13.333   1.469  -0.002  0.00  0.00     0.020 A 
HETATM   27  C   UNK N   1      14.594   0.869  -0.009  0.00  0.00     0.090 A 
HETATM   28  N   UNK N   1      14.708  -0.487  -0.015  0.00  0.00    -0.368 N 
HETATM   29  C   UNK N   1      16.025  -1.095  -0.018  0.00  0.00     0.154 C 
HETATM   30  C   UNK N   1      13.607  -1.285  -0.014  0.00  0.00     0.127 A 
ENDBRANCH  23  24
ENDBRANCH  21  23
ENDBRANCH  18  19
ENDBRANCH  17  18
ENDBRANCH   1  17
TORSDOF 11
