REMARK  1 active torsions:
REMARK  status: ('A' for Active; 'I' for Inactive)
REMARK    1  A    between atoms: O_17  and  C_9 
ROOT
HETATM    1  C   UNK N   1      -1.097  -2.309  -0.173  0.00  0.00     0.070 C 
HETATM    2  C   UNK N   1       4.657   1.649   0.055  0.00  0.00     0.038 A 
HETATM    3  C   UNK N   1       3.285   1.955   0.000  0.00  0.00     0.017 A 
HETATM    4  C   UNK N   1       0.026   1.966  -0.094  0.00  0.00     0.061 C 
HETATM    5  C   UNK N   1      -1.427   1.470   0.131  0.00  0.00     0.124 C 
HETATM    6  C   UNK N   1       4.156  -0.749   0.123  0.00  0.00     0.067 A 
HETATM    7  C   UNK N   1      -0.733  -0.868  -0.055  0.00  0.00     0.028 C 
HETATM    8  C   UNK N   1       5.100   0.298   0.120  0.00  0.00     0.070 A 
HETATM    9  C   UNK N   1       2.388   0.892   0.010  0.00  0.00    -0.001 A 
HETATM   10  C   UNK N   1       1.019   0.861  -0.025  0.00  0.00    -0.015 A 
HETATM   11  C   UNK N   1       2.808  -0.413   0.064  0.00  0.00     0.046 A 
HETATM   12  C   UNK N   1       0.668  -0.459  -0.003  0.00  0.00     0.062 A 
HETATM   13  N   UNK N   1      -1.663   0.028  -0.004  0.00  0.00    -0.391 N 
ATOM     14  HN  UNK N   1      -2.631  -0.290  -0.062  1.00  0.00     0.159 HD
HETATM   15  N   UNK N   1       1.756  -1.262   0.050  0.00  0.00    -0.353 N 
HETATM   16  H   UNK N   1       1.777  -2.246   0.073  0.00  0.00     0.166 HD
ENDROOT
BRANCH   8  17
HETATM   17  O   UNK N   1       6.417  -0.011   0.178  0.00  0.00    -0.356 OA
HETATM   18  C   UNK N   1       7.414   0.938   0.158  0.00  0.00     0.210 C 
ENDBRANCH   8  17
TORSDOF 1
