REMARK  4 active torsions:
REMARK  status: ('A' for Active; 'I' for Inactive)
REMARK    1  A    between atoms: C_1  and  C_2 
REMARK    2  A    between atoms: C_1  and  O_12 
REMARK    3  A    between atoms: C_2  and  O_13 
REMARK    4  A    between atoms: C_3  and  O_13 
ROOT
HETATM    1  C   UNK N   1      -0.224   0.003   0.000  0.00  0.00     0.081 A 
HETATM    2  C   UNK N   1      -0.062  -1.397   0.000  0.00  0.00    -0.028 A 
HETATM    3  C   UNK N   1      -1.177  -2.239   0.000  0.00  0.00     0.009 A 
HETATM    4  C   UNK N   1      -2.462  -1.704   0.000  0.00  0.00     0.001 A 
HETATM    5  C   UNK N   1      -2.643  -0.323   0.000  0.00  0.00     0.009 A 
HETATM    6  C   UNK N   1      -1.545   0.541  -0.000  0.00  0.00    -0.028 A 
HETATM    7  C   UNK N   1       1.298  -2.008   0.000  0.00  0.00     0.051 C 
HETATM    8  C   UNK N   1      -1.840   2.004  -0.000  0.00  0.00     0.051 C 
ENDROOT
BRANCH   1   9
HETATM    9  O   UNK N   1       0.903   0.770  -0.000  0.00  0.00    -0.340 OA
BRANCH   9  10
HETATM   10  C   UNK N   1       0.937   2.145   0.000  0.00  0.00     0.285 C 
BRANCH  10  11
HETATM   11  C   UNK N   1       2.342   2.641  -0.000  0.00  0.00     0.164 C 
HETATM   12  O   UNK N   1       2.551   3.846   0.000  0.00  0.00    -0.648 OA
BRANCH  11  13
HETATM   13  O   UNK N   1       3.377   1.783  -0.000  0.00  0.00    -0.775 OA
HETATM   14  H   UNK N   1       3.220   0.859  -0.000  0.00  0.00     0.167 HD
ENDBRANCH  11  13
ENDBRANCH  10  11
ENDBRANCH   9  10
ENDBRANCH   1   9
TORSDOF 4
