REMARK  7 active torsions:
REMARK  status: ('A' for Active; 'I' for Inactive)
REMARK    1  A    between atoms: O_1  and  C_2 
REMARK    2  A    between atoms: C_3  and  C_14 
REMARK    3  A    between atoms: C_14  and  C_15 
REMARK    4  A    between atoms: C_15  and  C_16 
REMARK    5  A    between atoms: C_16  and  C_17 
REMARK    6  A    between atoms: C_17  and  C_18 
REMARK    7  A    between atoms: C_18  and  C_19 
ROOT
HETATM    1  C   UNK N   1      -3.011   1.163  -0.000  0.00  0.00     0.127 A 
HETATM    2  C   UNK N   1      -1.793   0.540  -0.000  0.00  0.00     0.032 A 
HETATM    3  C   UNK N   1      -1.733  -0.979  -0.000  0.00  0.00     0.209 A 
HETATM    4  O   UNK N   1      -0.672  -1.586  -0.001  0.00  0.00    -0.285 OA
HETATM    5  C   UNK N   1      -2.982  -1.743  -0.000  0.00  0.00     0.105 A 
HETATM    6  C   UNK N   1      -4.192  -1.084  -0.000  0.00  0.00     0.089 A 
HETATM    7  S   UNK N   1      -5.356  -2.250   0.000  0.00  0.00    -0.078 SA
HETATM    8  C   UNK N   1      -4.343  -3.571   0.000  0.00  0.00     0.139 A 
HETATM    9  N   UNK N   1      -3.056  -3.119  -0.000  0.00  0.00    -0.355 N 
ATOM     10  HN  UNK N   1      -2.240  -3.731  -0.000  1.00  0.00     0.166 HD
HETATM   11  C   UNK N   1      -4.280   0.375  -0.000  0.00  0.00     0.225 A 
HETATM   12  O   UNK N   1      -5.367   0.934  -0.000  0.00  0.00    -0.284 OA
ENDROOT
BRANCH   2  13
HETATM   13  C   UNK N   1      -0.538   1.410  -0.000  0.00  0.00     0.046 C 
BRANCH  13  14
HETATM   14  C   UNK N   1       0.749   0.605   0.004  0.00  0.00     0.005 C 
BRANCH  14  15
HETATM   15  C   UNK N   1       2.029   1.403  -0.001  0.00  0.00     0.000 C 
BRANCH  15  16
HETATM   16  C   UNK N   1       3.121   0.352  -0.001  0.00  0.00     0.000 C 
BRANCH  16  17
HETATM   17  C   UNK N   1       4.514   0.935  -0.001  0.00  0.00    -0.000 C 
BRANCH  17  18
HETATM   18  C   UNK N   1       5.485  -0.231  -0.000  0.00  0.00    -0.005 C 
HETATM   19  C   UNK N   1       6.911   0.271   0.000  0.00  0.00     0.005 C 
ENDBRANCH  17  18
ENDBRANCH  16  17
ENDBRANCH  15  16
ENDBRANCH  14  15
ENDBRANCH  13  14
ENDBRANCH   2  13
BRANCH   1  20
HETATM   20  O   UNK N   1      -3.081   2.510  -0.000  0.00  0.00    -0.356 OA
HETATM   21  H   UNK N   1      -2.295   3.020  -0.000  0.00  0.00     0.218 HD
ENDBRANCH   1  20
TORSDOF 7
