REMARK  9 active torsions:
REMARK  status: ('A' for Active; 'I' for Inactive)
REMARK    1  A    between atoms: C_3  and  C_11 
REMARK    2  A    between atoms: C_3  and  C_12 
REMARK    3  A    between atoms: C_5  and  C_6 
REMARK    4  A    between atoms: C_6  and  C_7 
REMARK    5  A    between atoms: C_7  and  C_8 
REMARK    6  A    between atoms: C_8  and  C_9 
REMARK    7  A    between atoms: C_9  and  C_10 
REMARK    8  A    between atoms: C_10  and  C_11 
REMARK    9  A    between atoms: C_12  and  P_13 
ROOT
HETATM    1  C   UNK N   1      -0.548   0.207  -0.232  0.00  0.00     0.000 C 
ENDROOT
BRANCH   1   2
HETATM    2  C   UNK N   1      -1.845   0.887   0.147  0.00  0.00     0.000 C 
BRANCH   2   3
HETATM    3  C   UNK N   1      -2.975  -0.110   0.007  0.00  0.00     0.000 C 
BRANCH   3   4
HETATM    4  C   UNK N   1      -4.304   0.601   0.128  0.00  0.00     0.000 C 
BRANCH   4   5
HETATM    5  C   UNK N   1      -5.420  -0.411  -0.017  0.00  0.00    -0.000 C 
BRANCH   5   6
HETATM    6  C   UNK N   1      -6.757   0.295   0.044  0.00  0.00    -0.005 C 
HETATM    7  C   UNK N   1      -7.869  -0.728  -0.042  0.00  0.00     0.005 C 
ENDBRANCH   5   6
ENDBRANCH   4   5
ENDBRANCH   3   4
ENDBRANCH   2   3
ENDBRANCH   1   2
BRANCH   1   8
HETATM    8  C   UNK N   1       0.601   1.180  -0.093  0.00  0.00     0.000 C 
BRANCH   8   9
HETATM    9  C   UNK N   1       1.857   0.537  -0.641  0.00  0.00     0.007 C 
BRANCH   9  10
HETATM   10  C   UNK N   1       3.045   1.003   0.176  0.00  0.00     0.073 C 
BRANCH  10  11
HETATM   11  P   UNK N   1       4.602   0.155  -0.390  0.00  0.00     0.071 P 
HETATM   12  C   UNK N   1       4.961  -1.640  -0.709  0.00  0.00     0.085 C 
HETATM   13  O   UNK N   1       5.731   0.671   0.544  0.00  0.00    -0.323 OA
HETATM   14  C   UNK N   1       4.012  -0.824   1.079  0.00  0.00     0.085 C 
ENDBRANCH  10  11
ENDBRANCH   9  10
ENDBRANCH   8   9
ENDBRANCH   1   8
TORSDOF 9
