REMARK  10 active torsions:
REMARK  status: ('A' for Active; 'I' for Inactive)
REMARK    1  A    between atoms: N_1  and  C_5 
REMARK    2  A    between atoms: C_5  and  C_6 
REMARK    3  A    between atoms: C_6  and  C_7 
REMARK    4  A    between atoms: C_7  and  C_8 
REMARK    5  A    between atoms: C_8  and  C_9 
REMARK    6  A    between atoms: C_9  and  C_10 
REMARK    7  A    between atoms: C_10  and  C_11 
REMARK    8  A    between atoms: C_11  and  C_12 
REMARK    9  A    between atoms: C_12  and  C_13 
REMARK   10  A    between atoms: C_13  and  C_14 
ROOT
HETATM    1  C   UNK N   1      -0.622   0.239  -0.056  0.00  0.00     0.000 C 
ENDROOT
BRANCH   1   2
HETATM    2  C   UNK N   1      -1.591   1.403  -0.134  0.00  0.00     0.002 C 
BRANCH   2   3
HETATM    3  C   UNK N   1      -2.929   1.008   0.449  0.00  0.00     0.036 C 
BRANCH   3   4
HETATM    4  C   UNK N   1      -3.764   0.271  -0.596  0.00  0.00     0.311 C 
BRANCH   4   5
HETATM    5  N   UNK N   1      -4.798  -0.574   0.003  0.00  0.00     0.005 N 
HETATM    6  O   UNK N   1      -5.518  -1.129  -0.998  0.00  0.00    -0.065 OA
HETATM    7  C   UNK N   1      -4.202  -1.650   0.780  0.00  0.00     0.355 C 
HETATM    8  C   UNK N   1      -5.708   0.196   0.839  0.00  0.00     0.355 C 
ENDBRANCH   4   5
ENDBRANCH   3   4
ENDBRANCH   2   3
ENDBRANCH   1   2
BRANCH   1   9
HETATM    9  C   UNK N   1       0.765   0.776  -0.316  0.00  0.00     0.000 C 
BRANCH   9  10
HETATM   10  C   UNK N   1       1.827  -0.272  -0.062  0.00  0.00     0.000 C 
BRANCH  10  11
HETATM   11  C   UNK N   1       3.137   0.472   0.063  0.00  0.00     0.000 C 
BRANCH  11  12
HETATM   12  C   UNK N   1       4.329  -0.456   0.020  0.00  0.00     0.000 C 
BRANCH  12  13
HETATM   13  C   UNK N   1       5.567   0.415   0.064  0.00  0.00    -0.000 C 
BRANCH  13  14
HETATM   14  C   UNK N   1       6.820  -0.421  -0.043  0.00  0.00    -0.005 C 
HETATM   15  C   UNK N   1       8.023   0.500  -0.013  0.00  0.00     0.005 C 
ENDBRANCH  13  14
ENDBRANCH  12  13
ENDBRANCH  11  12
ENDBRANCH  10  11
ENDBRANCH   9  10
ENDBRANCH   1   9
TORSDOF 10
