REMARK  6 active torsions:
REMARK  status: ('A' for Active; 'I' for Inactive)
REMARK    1  A    between atoms: C_6  and  C_7 
REMARK    2  A    between atoms: C_9  and  N_10 
REMARK    3  A    between atoms: N_10  and  C_11 
REMARK    4  A    between atoms: C_11  and  C_12 
REMARK    5  A    between atoms: C_12  and  O_14 
REMARK    6  A    between atoms: C_22  and  C_23 
ROOT
HETATM    1  C   UNK N   1      -0.105  -0.806  -0.007  0.00  0.00     0.019 A 
HETATM    2  C   UNK N   1       1.252  -1.243  -0.034  0.00  0.00     0.065 A 
HETATM    3  C   UNK N   1       2.534  -0.635  -0.112  0.00  0.00     0.117 A 
HETATM    4  N   UNK N   1       3.639  -1.441  -0.132  0.00  0.00    -0.338 N 
ATOM      5  HN  UNK N   1       4.563  -1.014  -0.193  1.00  0.00     0.168 HD
HETATM    6  C   UNK N   1       3.538  -2.799  -0.072  0.00  0.00     0.183 A 
HETATM    7  N   UNK N   1       2.318  -3.390  -0.008  0.00  0.00    -0.338 N 
ATOM      8  HN  UNK N   1       2.237  -4.406   0.028  1.00  0.00     0.168 HD
HETATM    9  C   UNK N   1       1.211  -2.612   0.006  0.00  0.00     0.121 A 
HETATM   10  N   UNK N   1      -0.032  -3.086   0.042  0.00  0.00    -0.340 N 
HETATM   11  C   UNK N   1      -0.872  -2.026   0.029  0.00  0.00     0.056 A 
HETATM   12  H   UNK N   1      -0.293  -4.035   0.073  0.00  0.00     0.167 HD
ENDROOT
BRANCH   3  13
HETATM   13  N   UNK N   1       2.705   0.761  -0.215  0.00  0.00    -0.373 N 
HETATM   14  H   UNK N   1       1.931   1.343  -0.039  0.00  0.00     0.161 HD
BRANCH  13  15
HETATM   15  C   UNK N   1       3.963   1.372  -0.565  0.00  0.00     0.152 C 
BRANCH  15  16
HETATM   16  C   UNK N   1       4.145   2.700   0.158  0.00  0.00     0.132 C 
HETATM   17  C   UNK N   1       5.310   3.441  -0.463  0.00  0.00     0.041 C 
BRANCH  16  18
HETATM   18  O   UNK N   1       2.997   3.484   0.033  0.00  0.00    -0.394 OA
HETATM   19  H   UNK N   1       3.070   4.448  -0.053  0.00  0.00     0.210 HD
ENDBRANCH  16  18
ENDBRANCH  15  16
ENDBRANCH  13  15
ENDBRANCH   3  13
BRANCH   1  20
HETATM   20  C   UNK N   1      -0.598   0.632  -0.018  0.00  0.00    -0.023 A 
HETATM   21  C   UNK N   1      -1.959   0.950  -0.037  0.00  0.00     0.012 A 
HETATM   22  C   UNK N   1      -2.414   2.272  -0.037  0.00  0.00     0.001 A 
HETATM   23  C   UNK N   1      -1.499   3.320  -0.016  0.00  0.00     0.000 A 
HETATM   24  C   UNK N   1      -0.137   3.036   0.006  0.00  0.00     0.001 A 
HETATM   25  C   UNK N   1       0.296   1.708   0.008  0.00  0.00     0.012 A 
ENDBRANCH   1  20
BRANCH  11  26
HETATM   26  C   UNK N   1      -2.347  -2.317   0.041  0.00  0.00    -0.009 A 
HETATM   27  C   UNK N   1      -2.751  -3.666   0.053  0.00  0.00     0.014 A 
HETATM   28  C   UNK N   1      -4.104  -4.018   0.046  0.00  0.00     0.001 A 
HETATM   29  C   UNK N   1      -5.081  -3.023   0.026  0.00  0.00     0.000 A 
HETATM   30  C   UNK N   1      -4.701  -1.682   0.015  0.00  0.00     0.001 A 
HETATM   31  C   UNK N   1      -3.346  -1.341   0.021  0.00  0.00     0.014 A 
ENDBRANCH  11  26
TORSDOF 6
