REMARK  8 active torsions:
REMARK  status: ('A' for Active; 'I' for Inactive)
REMARK    1  A    between atoms: C_2  and  C_3 
REMARK    2  A    between atoms: C_15  and  O_18 
REMARK    3  A    between atoms: C_15  and  C_27 
REMARK    4  A    between atoms: N_19  and  C_20 
REMARK    5  A    between atoms: N_19  and  C_28 
REMARK    6  A    between atoms: C_25  and  C_26 
REMARK    7  A    between atoms: C_27  and  C_28 
REMARK    8  A    between atoms: C_27  and  O_29 
ROOT
HETATM    1  C   UNK N   1       5.460  -3.079   0.023  0.00  0.00     0.183 A 
HETATM    2  C   UNK N   1       1.030  -2.536   0.095  0.00  0.00     0.056 A 
HETATM    3  N   UNK N   1       4.281  -3.755   0.147  0.00  0.00    -0.338 N 
ATOM      4  HN  UNK N   1       4.273  -4.767   0.276  1.00  0.00     0.168 HD
HETATM    5  C   UNK N   1       3.122  -3.055   0.096  0.00  0.00     0.121 A 
HETATM    6  C   UNK N   1       3.091  -1.702  -0.071  0.00  0.00     0.065 A 
HETATM    7  C   UNK N   1       4.298  -1.011  -0.225  0.00  0.00     0.117 A 
HETATM    8  N   UNK N   1       5.465  -1.722  -0.168  0.00  0.00    -0.338 N 
ATOM      9  HN  UNK N   1       6.354  -1.234  -0.269  1.00  0.00     0.168 HD
HETATM   10  N   UNK N   1       1.891  -3.581   0.192  0.00  0.00    -0.340 N 
HETATM   11  C   UNK N   1       1.748  -1.330  -0.077  0.00  0.00     0.019 A 
HETATM   12  H   UNK N   1       1.659  -4.531   0.307  0.00  0.00     0.167 HD
ENDROOT
BRANCH   7  13
HETATM   13  N   UNK N   1       4.314   0.380  -0.464  0.00  0.00    -0.373 N 
HETATM   14  H   UNK N   1       3.456   0.838  -0.619  0.00  0.00     0.161 HD
BRANCH  13  15
HETATM   15  C   UNK N   1       5.521   1.163  -0.491  0.00  0.00     0.155 C 
BRANCH  15  16
HETATM   16  C   UNK N   1       5.452   2.223   0.602  0.00  0.00     0.159 C 
BRANCH  16  17
HETATM   17  C   UNK N   1       6.689   3.104   0.578  0.00  0.00     0.197 C 
BRANCH  17  18
HETATM   18  O   UNK N   1       6.734   3.857  -0.598  0.00  0.00    -0.398 OA
HETATM   19  H   UNK N   1       7.202   4.091  -1.415  0.00  0.00     0.209 HD
ENDBRANCH  17  18
ENDBRANCH  16  17
BRANCH  16  20
HETATM   20  O   UNK N   1       4.316   3.019   0.435  0.00  0.00    -0.392 OA
HETATM   21  H   UNK N   1       4.400   3.978   0.318  0.00  0.00     0.210 HD
ENDBRANCH  16  20
ENDBRANCH  15  16
ENDBRANCH  13  15
ENDBRANCH   7  13
BRANCH  11  22
HETATM   22  C   UNK N   1       1.199   0.044  -0.247  0.00  0.00    -0.023 A 
HETATM   23  C   UNK N   1       0.051   0.261  -1.023  0.00  0.00     0.012 A 
HETATM   24  C   UNK N   1      -0.468   1.548  -1.189  0.00  0.00     0.001 A 
HETATM   25  C   UNK N   1       0.156   2.634  -0.575  0.00  0.00     0.000 A 
HETATM   26  C   UNK N   1       1.301   2.433   0.197  0.00  0.00     0.001 A 
HETATM   27  C   UNK N   1       1.822   1.145   0.353  0.00  0.00     0.012 A 
ENDBRANCH  11  22
BRANCH   2  28
HETATM   28  C   UNK N   1      -0.436  -2.726   0.258  0.00  0.00    -0.009 A 
HETATM   29  C   UNK N   1      -0.976  -4.021   0.225  0.00  0.00     0.014 A 
HETATM   30  C   UNK N   1      -2.349  -4.222   0.403  0.00  0.00     0.001 A 
HETATM   31  C   UNK N   1      -3.193  -3.132   0.635  0.00  0.00     0.000 A 
HETATM   32  C   UNK N   1      -2.663  -1.844   0.696  0.00  0.00     0.001 A 
HETATM   33  C   UNK N   1      -1.294  -1.647   0.512  0.00  0.00     0.014 A 
ENDBRANCH   2  28
TORSDOF 8
