REMARK  8 active torsions:
REMARK  status: ('A' for Active; 'I' for Inactive)
REMARK    1  A    between atoms: N_1  and  C_2 
REMARK    2  A    between atoms: C_12  and  C_13 
REMARK    3  A    between atoms: C_13  and  N_14 
REMARK    4  A    between atoms: C_16  and  O_17 
REMARK    5  A    between atoms: C_19  and  C_20 
REMARK    6  A    between atoms: C_20  and  S_21 
REMARK    7  A    between atoms: S_21  and  C_22 
REMARK    8  A    between atoms: C_22  and  C_23 
ROOT
HETATM    1  N   UNK N   1      -0.143   0.799   0.211  0.00  0.00     0.095 N 
HETATM    2  C   UNK N   1       0.791   0.766  -0.902  0.00  0.00     0.304 C 
HETATM    3  C   UNK N   1       1.812  -0.282  -0.521  0.00  0.00     0.152 C 
HETATM    4  C   UNK N   1      -0.360  -0.615   0.453  0.00  0.00     0.280 C 
HETATM    5  C   UNK N   1       1.069  -1.122   0.530  0.00  0.00     0.054 C 
ENDROOT
BRANCH   1   6
HETATM    6  C   UNK N   1      -1.344   1.543  -0.139  0.00  0.00     0.315 C 
BRANCH   6   7
HETATM    7  C   UNK N   1      -1.056   3.028  -0.131  0.00  0.00     0.015 A 
HETATM    8  C   UNK N   1       0.139   3.669   0.127  0.00  0.00     0.073 A 
HETATM    9  N   UNK N   1       1.354   3.164   0.458  0.00  0.00    -0.350 N 
HETATM   10  C   UNK N   1      -0.067   4.995  -0.023  0.00  0.00     0.103 A 
HETATM   11  C   UNK N   1       2.398   4.027   0.632  0.00  0.00     0.182 A 
ATOM     12  HN  UNK N   1       1.486   2.160   0.575  1.00  0.00     0.166 HD
HETATM   13  N   UNK N   1       2.214   5.376   0.477  0.00  0.00    -0.337 N 
HETATM   14  C   UNK N   1       0.987   5.883   0.153  0.00  0.00     0.129 A 
ATOM     15  HN  UNK N   1       3.002   6.010   0.606  1.00  0.00     0.168 HD
HETATM   16  N   UNK N   1      -1.347   5.251  -0.353  0.00  0.00    -0.360 N 
HETATM   17  C   UNK N   1      -1.968   4.040  -0.423  0.00  0.00     0.099 A 
HETATM   18  H   UNK N   1      -1.753   6.134  -0.511  0.00  0.00     0.165 HD
BRANCH  14  19
HETATM   19  N   UNK N   1       0.810   7.271  -0.009  0.00  0.00    -0.384 N 
HETATM   20  H   UNK N   1       1.588   7.863  -0.121  0.00  0.00     0.157 HD
HETATM   21  H   UNK N   1      -0.098   7.651  -0.009  0.00  0.00     0.157 HD
ENDBRANCH  14  19
ENDBRANCH   6   7
ENDBRANCH   1   6
BRANCH   3  22
HETATM   22  O   UNK N   1       2.170  -0.996  -1.664  0.00  0.00    -0.393 OA
HETATM   23  H   UNK N   1       1.864  -1.460  -2.460  0.00  0.00     0.210 HD
ENDBRANCH   3  22
BRANCH   5  24
HETATM   24  C   UNK N   1       1.282  -2.634   0.472  0.00  0.00     0.083 C 
BRANCH  24  25
HETATM   25  S   UNK N   1       0.622  -3.426  -1.031  0.00  0.00    -0.164 SA
BRANCH  25  26
HETATM   26  C   UNK N   1       0.145  -4.884  -0.062  0.00  0.00     0.112 C 
BRANCH  26  27
HETATM   27  C   UNK N   1      -1.333  -5.044  -0.015  0.00  0.00    -0.049 A 
HETATM   28  C   UNK N   1      -1.902  -6.259  -0.407  0.00  0.00     0.008 A 
HETATM   29  C   UNK N   1      -3.287  -6.436  -0.344  0.00  0.00     0.001 A 
HETATM   30  C   UNK N   1      -4.105  -5.395   0.106  0.00  0.00     0.000 A 
HETATM   31  C   UNK N   1      -3.538  -4.179   0.498  0.00  0.00     0.001 A 
HETATM   32  C   UNK N   1      -2.153  -4.004   0.445  0.00  0.00     0.008 A 
ENDBRANCH  26  27
ENDBRANCH  25  26
ENDBRANCH  24  25
ENDBRANCH   5  24
TORSDOF 8
