REMARK  10 active torsions:
REMARK  status: ('A' for Active; 'I' for Inactive)
REMARK    1  A    between atoms: C_2  and  C_3 
REMARK    2  A    between atoms: C_3  and  C_4 
REMARK    3  A    between atoms: C_4  and  C_5 
REMARK    4  A    between atoms: C_5  and  C_6 
REMARK    5  A    between atoms: C_6  and  C_7 
REMARK    6  A    between atoms: C_7  and  C_8 
REMARK    7  A    between atoms: C_8  and  C_9 
REMARK    8  A    between atoms: C_9  and  C_10 
REMARK    9  A    between atoms: C_10  and  O_11 
REMARK   10  A    between atoms: O_11  and  C_12 
ROOT
HETATM    1  C   UNK N   1       1.368   0.469  -0.000  0.00  0.00     0.000 C 
ENDROOT
BRANCH   1   2
HETATM    2  C   UNK N   1       0.151  -0.427  -0.000  0.00  0.00     0.000 C 
BRANCH   2   3
HETATM    3  C   UNK N   1      -1.081   0.445   0.000  0.00  0.00     0.000 C 
BRANCH   3   4
HETATM    4  C   UNK N   1      -2.326  -0.411   0.000  0.00  0.00     0.000 C 
BRANCH   4   5
HETATM    5  C   UNK N   1      -3.525   0.510  -0.000  0.00  0.00    -0.000 C 
BRANCH   5   6
HETATM    6  C   UNK N   1      -4.803  -0.297  -0.000  0.00  0.00    -0.005 C 
HETATM    7  C   UNK N   1      -5.981   0.653  -0.000  0.00  0.00     0.005 C 
ENDBRANCH   5   6
ENDBRANCH   4   5
ENDBRANCH   3   4
ENDBRANCH   2   3
ENDBRANCH   1   2
BRANCH   1   8
HETATM    8  C   UNK N   1       2.613  -0.385  -0.000  0.00  0.00     0.002 C 
BRANCH   8   9
HETATM    9  C   UNK N   1       3.835   0.504  -0.000  0.00  0.00     0.027 C 
BRANCH   9  10
HETATM   10  C   UNK N   1       5.065  -0.375   0.000  0.00  0.00     0.178 C 
BRANCH  10  11
HETATM   11  O   UNK N   1       6.190   0.403   0.000  0.00  0.00    -0.328 OA
BRANCH  11  12
HETATM   12  C   UNK N   1       7.403  -0.182   0.000  0.00  0.00     0.398 C 
HETATM   13  O   UNK N   1       8.410   0.501  -0.000  0.00  0.00    -0.276 OA
ENDBRANCH  11  12
ENDBRANCH  10  11
ENDBRANCH   9  10
ENDBRANCH   8   9
ENDBRANCH   1   8
TORSDOF 10
