REMARK  7 active torsions:
REMARK  status: ('A' for Active; 'I' for Inactive)
REMARK    1  A    between atoms: P_1  and  O_3 
REMARK    2  A    between atoms: P_1  and  O_4 
REMARK    3  A    between atoms: P_1  and  O_5 
REMARK    4  A    between atoms: O_5  and  C_6 
REMARK    5  A    between atoms: C_7  and  C_6 
REMARK    6  A    between atoms: C_9  and  O_10 
REMARK    7  A    between atoms: C_12  and  C_21 
ROOT
HETATM    1  C   UNK N   1      -0.727   1.227   0.962  0.00  0.00     0.175 C 
HETATM    2  O   UNK N   1       0.374   0.671   0.280  0.00  0.00    -0.371 OA
HETATM    3  C   UNK N   1      -1.982   0.770   0.244  0.00  0.00     0.152 C 
HETATM    4  C   UNK N   1      -1.586  -0.621  -0.105  0.00  0.00     0.071 C 
HETATM    5  C   UNK N   1      -0.136  -0.379  -0.522  0.00  0.00     0.160 C 
ENDROOT
BRANCH   5   6
HETATM    6  C   UNK N   1       0.740  -1.608  -0.413  0.00  0.00     0.010 A 
HETATM    7  C   UNK N   1       2.120  -1.509  -0.672  0.00  0.00     0.128 A 
HETATM    8  C   UNK N   1       2.935  -2.641  -0.582  0.00  0.00     0.085 A 
HETATM    9  F   UNK N   1       2.677  -0.317  -1.002  0.00  0.00    -0.205 F 
HETATM   10  C   UNK N   1       2.387  -3.880  -0.246  0.00  0.00     0.125 A 
HETATM   11  C   UNK N   1       1.014  -3.991   0.006  0.00  0.00    -0.023 A 
HETATM   12  F   UNK N   1       3.193  -4.969  -0.170  0.00  0.00    -0.205 F 
HETATM   13  C   UNK N   1       0.411  -5.308   0.350  0.00  0.00     0.051 C 
HETATM   14  C   UNK N   1       0.198  -2.859  -0.072  0.00  0.00     0.022 A 
ENDBRANCH   5   6
BRANCH   1  15
HETATM   15  C   UNK N   1      -0.617   2.749   1.021  0.00  0.00     0.215 C 
BRANCH  15  16
HETATM   16  O   UNK N   1      -0.429   3.281  -0.261  0.00  0.00    -0.294 OA
BRANCH  16  17
HETATM   17  P   UNK N   1      -1.568   4.588  -0.412  0.00  0.00     0.390 P 
HETATM   18  O   UNK N   1      -1.276   5.615   0.715  0.00  0.00    -0.632 OA
BRANCH  17  19
HETATM   19  O   UNK N   1      -3.213   4.058  -0.238  0.00  0.00    -0.307 OA
HETATM   20  H   UNK N   1      -3.928   4.706  -0.141  0.00  0.00     0.222 HD
ENDBRANCH  17  19
BRANCH  17  21
HETATM   21  O   UNK N   1      -1.345   5.426  -1.915  0.00  0.00    -0.307 OA
HETATM   22  H   UNK N   1      -0.877   5.553  -2.755  0.00  0.00     0.222 HD
ENDBRANCH  17  21
ENDBRANCH  16  17
ENDBRANCH  15  16
ENDBRANCH   1  15
BRANCH   3  23
HETATM   23  O   UNK N   1      -3.105   0.811   1.072  0.00  0.00    -0.393 OA
HETATM   24  H   UNK N   1      -3.471   1.501   1.648  0.00  0.00     0.210 HD
ENDBRANCH   3  23
TORSDOF 7
