REMARK  6 active torsions:
REMARK  status: ('A' for Active; 'I' for Inactive)
REMARK    1  A    between atoms: C_2  and  C_3 
REMARK    2  A    between atoms: N_18  and  C_19 
REMARK    3  A    between atoms: N_18  and  C_26 
REMARK    4  A    between atoms: C_23  and  C_24 
REMARK    5  A    between atoms: C_25  and  C_26 
REMARK    6  A    between atoms: C_25  and  O_28 
ROOT
HETATM    1  C   UNK N   1       3.961  -2.772  -0.204  0.00  0.00     0.184 A 
HETATM    2  C   UNK N   1      -0.399  -1.951   0.038  0.00  0.00     0.100 A 
HETATM    3  N   UNK N   1       2.737  -3.364  -0.133  0.00  0.00    -0.332 N 
ATOM      4  HN  UNK N   1       2.648  -4.380  -0.136  1.00  0.00     0.168 HD
HETATM    5  C   UNK N   1       1.640  -2.577  -0.057  0.00  0.00     0.164 A 
HETATM    6  O   UNK N   1       0.403  -2.998   0.006  0.00  0.00    -0.291 OA
HETATM    7  C   UNK N   1       1.704  -1.208  -0.046  0.00  0.00     0.073 A 
HETATM    8  C   UNK N   1       2.980  -0.598  -0.066  0.00  0.00     0.118 A 
HETATM    9  N   UNK N   1       4.074  -1.410  -0.164  0.00  0.00    -0.338 N 
ATOM     10  HN  UNK N   1       5.002  -0.988  -0.208  1.00  0.00     0.168 HD
HETATM   11  C   UNK N   1       0.375  -0.772   0.003  0.00  0.00     0.027 A 
ENDROOT
BRANCH   8  12
HETATM   12  N   UNK N   1       3.188   0.797   0.067  0.00  0.00    -0.365 N 
HETATM   13  H   UNK N   1       3.848   1.238  -0.516  0.00  0.00     0.161 HD
BRANCH  12  14
HETATM   14  C   UNK N   1       2.465   1.595   1.027  0.00  0.00     0.231 C 
BRANCH  14  15
HETATM   15  C   UNK N   1       2.637   3.057   0.754  0.00  0.00     0.158 C 
HETATM   16  O   UNK N   1       2.045   3.870   1.443  0.00  0.00    -0.649 OA
BRANCH  15  17
HETATM   17  O   UNK N   1       3.409   3.482  -0.266  0.00  0.00    -0.775 OA
HETATM   18  H   UNK N   1       3.933   3.165  -0.975  0.00  0.00     0.167 HD
ENDBRANCH  15  17
ENDBRANCH  14  15
ENDBRANCH  12  14
ENDBRANCH   8  12
BRANCH  11  19
HETATM   19  C   UNK N   1      -0.142   0.616  -0.021  0.00  0.00    -0.022 A 
HETATM   20  C   UNK N   1      -1.144   1.014   0.877  0.00  0.00     0.012 A 
HETATM   21  C   UNK N   1      -1.652   2.314   0.843  0.00  0.00     0.001 A 
HETATM   22  C   UNK N   1      -1.172   3.225  -0.099  0.00  0.00     0.000 A 
HETATM   23  C   UNK N   1      -0.178   2.837  -1.003  0.00  0.00     0.001 A 
HETATM   24  C   UNK N   1       0.339   1.538  -0.962  0.00  0.00     0.012 A 
ENDBRANCH  11  19
BRANCH   2  25
HETATM   25  C   UNK N   1      -1.876  -2.102   0.003  0.00  0.00    -0.001 A 
HETATM   26  C   UNK N   1      -2.441  -3.369   0.207  0.00  0.00     0.014 A 
HETATM   27  C   UNK N   1      -3.829  -3.542   0.153  0.00  0.00     0.001 A 
HETATM   28  C   UNK N   1      -4.661  -2.454  -0.122  0.00  0.00     0.000 A 
HETATM   29  C   UNK N   1      -4.107  -1.194  -0.348  0.00  0.00     0.001 A 
HETATM   30  C   UNK N   1      -2.723  -1.024  -0.287  0.00  0.00     0.014 A 
ENDBRANCH   2  25
TORSDOF 6
