REMARK  6 active torsions:
REMARK  status: ('A' for Active; 'I' for Inactive)
REMARK    1  A    between atoms: C_2  and  C_3 
REMARK    2  A    between atoms: N_17  and  C_18 
REMARK    3  A    between atoms: N_17  and  C_26 
REMARK    4  A    between atoms: C_23  and  C_24 
REMARK    5  A    between atoms: C_25  and  C_26 
REMARK    6  A    between atoms: C_25  and  O_27 
ROOT
HETATM    1  C   UNK N   1       4.016  -2.844  -0.048  0.00  0.00     0.183 A 
HETATM    2  C   UNK N   1      -0.356  -1.975   0.090  0.00  0.00     0.056 A 
HETATM    3  N   UNK N   1       2.787  -3.422   0.018  0.00  0.00    -0.338 N 
ATOM      4  HN  UNK N   1       2.692  -4.438   0.043  1.00  0.00     0.168 HD
HETATM    5  C   UNK N   1       1.694  -2.628   0.051  0.00  0.00     0.121 A 
HETATM    6  C   UNK N   1       1.765  -1.255   0.024  0.00  0.00     0.065 A 
HETATM    7  C   UNK N   1       3.053  -0.657   0.005  0.00  0.00     0.117 A 
HETATM    8  N   UNK N   1       4.138  -1.484  -0.049  0.00  0.00    -0.338 N 
ATOM      9  HN  UNK N   1       5.071  -1.072  -0.093  1.00  0.00     0.168 HD
HETATM   10  N   UNK N   1       0.430  -3.074   0.105  0.00  0.00    -0.340 N 
HETATM   11  C   UNK N   1       0.436  -0.809   0.040  0.00  0.00     0.019 A 
HETATM   12  H   UNK N   1       0.136  -4.012   0.148  0.00  0.00     0.167 HD
ENDROOT
BRANCH   2  13
HETATM   13  C   UNK N   1      -1.839  -2.089   0.026  0.00  0.00    -0.009 A 
HETATM   14  C   UNK N   1      -2.451  -3.320   0.305  0.00  0.00     0.014 A 
HETATM   15  C   UNK N   1      -3.842  -3.454   0.226  0.00  0.00     0.001 A 
HETATM   16  C   UNK N   1      -4.631  -2.366  -0.153  0.00  0.00     0.000 A 
HETATM   17  C   UNK N   1      -4.030  -1.144  -0.459  0.00  0.00     0.001 A 
HETATM   18  C   UNK N   1      -2.644  -1.011  -0.371  0.00  0.00     0.014 A 
ENDBRANCH   2  13
BRANCH  11  19
HETATM   19  C   UNK N   1      -0.088   0.575  -0.010  0.00  0.00    -0.023 A 
HETATM   20  C   UNK N   1      -1.080   0.980   0.898  0.00  0.00     0.012 A 
HETATM   21  C   UNK N   1      -1.615   2.267   0.839  0.00  0.00     0.001 A 
HETATM   22  C   UNK N   1      -1.171   3.160  -0.137  0.00  0.00     0.000 A 
HETATM   23  C   UNK N   1      -0.187   2.766  -1.050  0.00  0.00     0.001 A 
HETATM   24  C   UNK N   1       0.355   1.477  -0.987  0.00  0.00     0.012 A 
ENDBRANCH  11  19
BRANCH   7  25
HETATM   25  N   UNK N   1       3.290   0.739   0.077  0.00  0.00    -0.373 N 
HETATM   26  H   UNK N   1       4.023   1.115  -0.463  0.00  0.00     0.161 HD
BRANCH  25  27
HETATM   27  C   UNK N   1       2.522   1.638   0.894  0.00  0.00     0.147 C 
BRANCH  27  28
HETATM   28  C   UNK N   1       2.934   3.063   0.589  0.00  0.00     0.183 C 
BRANCH  28  29
HETATM   29  O   UNK N   1       1.979   3.942   1.095  0.00  0.00    -0.399 OA
HETATM   30  H   UNK N   1       2.177   4.824   1.447  0.00  0.00     0.209 HD
ENDBRANCH  28  29
ENDBRANCH  27  28
ENDBRANCH  25  27
ENDBRANCH   7  25
TORSDOF 6
