REMARK  15 active torsions:
REMARK  status: ('A' for Active; 'I' for Inactive)
REMARK    1  A    between atoms: C_2  and  B_1 
REMARK    2  A    between atoms: B_1  and  O_28 
REMARK    3  A    between atoms: B_1  and  O_29 
REMARK    4  A    between atoms: C_2  and  C_3 
REMARK    5  A    between atoms: C_2  and  N_24 
REMARK    6  A    between atoms: C_3  and  C_4 
REMARK    7  A    between atoms: C_4  and  C_5 
REMARK    8  A    between atoms: C_5  and  C_6 
REMARK    9  A    between atoms: C_6  and  C_7 
REMARK   10  A    between atoms: C_7  and  N_25 
REMARK   11  A    between atoms: C_8  and  C_9 
REMARK       I    between atoms: C_9  and  N_24 
REMARK   12  A    between atoms: C_13  and  C_15 
REMARK       I    between atoms: C_13  and  N_26 
REMARK   13  A    between atoms: C_14  and  C_15 
REMARK   14  A    between atoms: C_14  and  C_22 
REMARK   15  A    between atoms: C_15  and  N_27 
REMARK       I    between atoms: C_16  and  N_27 
ROOT
HETATM    1  C   UNK N   1       0.558  -1.916   0.649  0.00  0.00     0.179 C 
HETATM    2  C   UNK N   1       0.752  -3.117  -0.247  0.00  0.00     0.037 C 
HETATM    3  C   UNK N   1       2.282  -3.138  -0.463  0.00  0.00     0.022 C 
HETATM    4  C   UNK N   1       2.798  -1.755  -0.029  0.00  0.00     0.127 C 
HETATM    5  C   UNK N   1       1.454   0.305  -0.143  0.00  0.00     0.243 C 
HETATM    6  N   UNK N   1       1.592  -1.022   0.192  0.00  0.00    -0.337 N 
HETATM    7  O   UNK N   1       0.351   0.818  -0.163  0.00  0.00    -0.271 OA
ENDROOT
BRANCH   1   8
HETATM    8  C   UNK N   1      -0.855  -1.421   0.839  0.00  0.00     0.240 C 
HETATM    9  N   UNK N   1      -1.696  -1.222  -0.215  0.00  0.00    -0.358 N 
HETATM   10  H   UNK N   1      -1.347  -1.342  -1.127  0.00  0.00     0.162 HD
HETATM   11  O   UNK N   1      -1.266  -1.277   1.983  0.00  0.00    -0.271 OA
BRANCH   9  12
HETATM   12  C   UNK N   1      -3.093  -0.836  -0.045  0.00  0.00     0.110 C 
BRANCH  12  13
HETATM   13  B   UNK N   1      -3.229   0.694   0.455  0.00  0.00     0.515 B 
BRANCH  13  14
HETATM   14  O   UNK N   1      -2.043   1.446   0.844  0.00  0.00    -0.436 OA
HETATM   15  H   UNK N   1      -1.214   1.012   1.102  0.00  0.00     0.184 HD
ENDBRANCH  13  14
BRANCH  13  16
HETATM   16  O   UNK N   1      -4.431   1.440   0.094  0.00  0.00    -0.436 OA
HETATM   17  H   UNK N   1      -4.401   2.379  -0.145  0.00  0.00     0.184 HD
ENDBRANCH  13  16
ENDBRANCH  12  13
BRANCH  12  18
HETATM   18  C   UNK N   1      -3.783  -1.849   0.898  0.00  0.00     0.020 C 
BRANCH  18  19
HETATM   19  C   UNK N   1      -5.183  -1.492   1.381  0.00  0.00     0.001 C 
BRANCH  19  20
HETATM   20  C   UNK N   1      -6.189  -1.622   0.264  0.00  0.00     0.002 C 
BRANCH  20  21
HETATM   21  C   UNK N   1      -6.879  -0.290   0.091  0.00  0.00     0.019 C 
BRANCH  21  22
HETATM   22  C   UNK N   1      -7.624  -0.279  -1.221  0.00  0.00     0.111 C 
BRANCH  22  23
HETATM   23  N   UNK N   1      -8.067   1.073  -1.505  0.00  0.00    -0.430 N 
HETATM   24  H   UNK N   1      -7.399   1.818  -1.704  0.00  0.00     0.149 HD
HETATM   25  H   UNK N   1      -9.065   1.282  -1.505  0.00  0.00     0.149 HD
ENDBRANCH  22  23
ENDBRANCH  21  22
ENDBRANCH  20  21
ENDBRANCH  19  20
ENDBRANCH  18  19
ENDBRANCH  12  18
ENDBRANCH   9  12
ENDBRANCH   1   8
BRANCH   5  26
HETATM   26  C   UNK N   1       2.669   1.194  -0.396  0.00  0.00     0.181 C 
BRANCH  26  27
HETATM   27  C   UNK N   1       3.674   0.616  -1.401  0.00  0.00     0.073 C 
BRANCH  27  28
HETATM   28  C   UNK N   1       5.068   0.671  -0.841  0.00  0.00    -0.056 A 
HETATM   29  C   UNK N   1       5.615  -0.469  -0.238  0.00  0.00     0.007 A 
HETATM   30  C   UNK N   1       6.879  -0.418   0.355  0.00  0.00     0.001 A 
HETATM   31  C   UNK N   1       7.604   0.776   0.348  0.00  0.00     0.000 A 
HETATM   32  C   UNK N   1       7.064   1.918  -0.253  0.00  0.00     0.001 A 
HETATM   33  C   UNK N   1       5.794   1.869  -0.841  0.00  0.00     0.007 A 
ENDBRANCH  27  28
ENDBRANCH  26  27
BRANCH  26  34
HETATM   34  N   UNK N   1       2.238   2.501  -0.865  0.00  0.00    -0.348 N 
HETATM   35  C   UNK N   1       2.358   3.649  -0.153  0.00  0.00     0.214 C 
HETATM   36  C   UNK N   1       1.869   4.928  -0.740  0.00  0.00     0.117 C 
HETATM   37  O   UNK N   1       2.841   3.648   0.969  0.00  0.00    -0.274 OA
HETATM   38  H   UNK N   1       1.831   2.556  -1.760  0.00  0.00     0.163 HD
ENDBRANCH  26  34
ENDBRANCH   5  26
TORSDOF 15
