REMARK  2 active torsions:
REMARK  status: ('A' for Active; 'I' for Inactive)
REMARK    1  A    between atoms: C_3  and  O_10 
REMARK    2  A    between atoms: C_6  and  O_9 
ROOT
HETATM    1  C   UNK N   1       0.206   0.762   0.000  0.00  0.00    -0.021 A 
HETATM    2  C   UNK N   1      -0.991   1.479  -0.000  0.00  0.00     0.049 A 
HETATM    3  C   UNK N   1      -2.211   0.803  -0.000  0.00  0.00     0.066 A 
HETATM    4  C   UNK N   1      -2.241  -0.596  -0.000  0.00  0.00     0.037 A 
HETATM    5  C   UNK N   1      -1.046  -1.325   0.000  0.00  0.00     0.018 A 
HETATM    6  C   UNK N   1       1.398  -1.362   0.000  0.00  0.00     0.076 A 
HETATM    7  C   UNK N   1       2.622   0.734   0.000  0.00  0.00     0.004 A 
HETATM    8  C   UNK N   1       1.421   1.446   0.000  0.00  0.00     0.012 A 
HETATM    9  C   UNK N   1       2.610  -0.664   0.000  0.00  0.00     0.037 A 
HETATM   10  C   UNK N   1       0.184  -0.653   0.000  0.00  0.00     0.007 A 
ENDROOT
BRANCH   3  11
HETATM   11  O   UNK N   1      -3.357   1.500  -0.000  0.00  0.00    -0.361 OA
HETATM   12  H   UNK N   1      -3.336   2.437  -0.000  0.00  0.00     0.217 HD
ENDBRANCH   3  11
BRANCH   6  13
HETATM   13  O   UNK N   1       1.408  -2.707   0.000  0.00  0.00    -0.360 OA
HETATM   14  H   UNK N   1       0.600  -3.181   0.000  0.00  0.00     0.217 HD
ENDBRANCH   6  13
TORSDOF 2
