REMARK  8 active torsions:
REMARK  status: ('A' for Active; 'I' for Inactive)
REMARK    1  A    between atoms: C_8  and  C_9 
REMARK    2  A    between atoms: C_9  and  O_10 
REMARK    3  A    between atoms: C_15  and  N_12 
REMARK    4  A    between atoms: C_15  and  C_16 
REMARK    5  A    between atoms: C_15  and  C_19 
REMARK    6  A    between atoms: C_16  and  O_17 
REMARK    7  A    between atoms: C_19  and  C_20 
REMARK    8  A    between atoms: C_23  and  O_24 
ROOT
HETATM    1  O   UNK N   1       0.690  -1.879  -0.026  0.00  0.00    -0.267 OA
HETATM    2  C   UNK N   1       1.249  -0.799  -0.131  0.00  0.00     0.262 A 
HETATM    3  C   UNK N   1       2.659  -0.531   0.182  0.00  0.00     0.048 A 
HETATM    4  C   UNK N   1       2.868   0.798  -0.097  0.00  0.00     0.049 A 
HETATM    5  C   UNK N   1       4.111   1.399   0.044  0.00  0.00     0.036 A 
HETATM    6  C   UNK N   1       3.695  -1.347   0.633  0.00  0.00     0.019 A 
HETATM    7  C   UNK N   1       4.972  -0.765   0.786  0.00  0.00     0.019 A 
HETATM    8  C   UNK N   1       5.186   0.606   0.489  0.00  0.00     0.038 A 
HETATM    9  N   UNK N   1       0.662   0.346  -0.582  0.00  0.00    -0.264 N 
HETATM   10  C   UNK N   1       1.600   1.329  -0.567  0.00  0.00     0.262 A 
HETATM   11  O   UNK N   1       1.402   2.477  -0.935  0.00  0.00    -0.267 OA
ENDROOT
BRANCH   9  12
HETATM   12  C   UNK N   1      -0.704   0.552  -1.079  0.00  0.00     0.198 C 
BRANCH  12  13
HETATM   13  C   UNK N   1      -1.432   1.595  -0.253  0.00  0.00     0.164 C 
HETATM   14  O   UNK N   1      -2.458   2.103  -0.677  0.00  0.00    -0.648 OA
BRANCH  13  15
HETATM   15  O   UNK N   1      -0.929   2.010   0.926  0.00  0.00    -0.775 OA
HETATM   16  H   UNK N   1      -0.504   1.852   1.746  0.00  0.00     0.167 HD
ENDBRANCH  13  15
ENDBRANCH  12  13
BRANCH  12  17
HETATM   17  C   UNK N   1      -1.491  -0.763  -1.323  0.00  0.00     0.075 C 
BRANCH  17  18
HETATM   18  C   UNK N   1      -2.675  -1.092  -0.456  0.00  0.00    -0.056 A 
HETATM   19  C   UNK N   1      -2.659  -2.243   0.339  0.00  0.00     0.010 A 
HETATM   20  C   UNK N   1      -3.789  -2.596   1.088  0.00  0.00     0.037 A 
HETATM   21  C   UNK N   1      -4.941  -1.803   1.035  0.00  0.00     0.065 A 
HETATM   22  C   UNK N   1      -4.966  -0.662   0.231  0.00  0.00     0.037 A 
HETATM   23  C   UNK N   1      -3.841  -0.317  -0.522  0.00  0.00     0.010 A 
BRANCH  21  24
HETATM   24  O   UNK N   1      -6.025  -2.140   1.752  0.00  0.00    -0.361 OA
HETATM   25  H   UNK N   1      -6.607  -1.602   2.253  0.00  0.00     0.217 HD
ENDBRANCH  21  24
ENDBRANCH  17  18
ENDBRANCH  12  17
ENDBRANCH   9  12
BRANCH   8  26
HETATM   26  C   UNK N   1       6.531   1.201   0.619  0.00  0.00     0.176 C 
HETATM   27  O   UNK N   1       6.711   2.380   0.356  0.00  0.00    -0.646 OA
BRANCH  26  28
HETATM   28  O   UNK N   1       7.573   0.444   1.016  0.00  0.00    -0.773 OA
HETATM   29  H   UNK N   1       7.480  -0.446   1.291  0.00  0.00     0.167 HD
ENDBRANCH  26  28
ENDBRANCH   8  26
TORSDOF 8
