REMARK  10 active torsions:
REMARK  status: ('A' for Active; 'I' for Inactive)
REMARK       I    between atoms: C_1  and  N_17 
REMARK       I    between atoms: C_1  and  N_18 
REMARK    1  A    between atoms: O_2  and  N_18 
REMARK    2  A    between atoms: O_2  and  C_19 
REMARK    3  A    between atoms: C_3  and  C_19 
REMARK    4  A    between atoms: C_3  and  N_20 
REMARK    5  A    between atoms: C_4  and  C_5 
REMARK       I    between atoms: C_4  and  N_20 
REMARK    6  A    between atoms: C_5  and  C_6 
REMARK    7  A    between atoms: C_10  and  N_25 
REMARK    8  A    between atoms: C_12  and  N_25 
REMARK    9  A    between atoms: C_12  and  C_26 
REMARK   10  A    between atoms: C_26  and  C_29 
ROOT
HETATM    1  C   UNK N   1       0.073   1.375  -0.140  0.00  0.00     0.012 C 
HETATM    2  C   UNK N   1       0.181   2.706  -0.575  0.00  0.00     0.054 C 
HETATM    3  C   UNK N   1       1.253   3.078  -1.392  0.00  0.00     0.026 C 
HETATM    4  C   UNK N   1       2.286   2.170  -1.645  0.00  0.00     0.034 C 
HETATM    5  C   UNK N   1       2.199   0.868  -1.149  0.00  0.00     0.068 C 
HETATM    6  C   UNK N   1      -0.725   3.713  -0.087  0.00  0.00     0.100 C 
HETATM    7  C   UNK N   1       1.034   0.454  -0.483  0.00  0.00     0.150 C 
HETATM    8  F   UNK N   1       0.872  -0.829  -0.060  0.00  0.00    -0.203 F 
HETATM    9  N   UNK N   1      -1.476   4.490   0.329  0.00  0.00    -0.191 NA
ENDROOT
BRANCH   1  10
HETATM   10  C   UNK N   1      -0.949   0.921   0.834  0.00  0.00     0.146 C 
BRANCH  10  11
HETATM   11  C   UNK N   1      -2.130   0.493   0.108  0.00  0.00     0.222 C 
HETATM   12  N   UNK N   1      -2.430  -0.820   0.045  0.00  0.00    -0.359 N 
HETATM   13  H   UNK N   1      -1.825  -1.481   0.452  0.00  0.00     0.162 HD
HETATM   14  O   UNK N   1      -2.829   1.333  -0.433  0.00  0.00    -0.273 OA
BRANCH  12  15
HETATM   15  C   UNK N   1      -3.624  -1.256  -0.612  0.00  0.00     0.151 C 
BRANCH  15  16
HETATM   16  C   UNK N   1      -4.764  -1.335   0.400  0.00  0.00     0.221 C 
BRANCH  16  17
HETATM   17  O   UNK N   1      -4.789  -0.275   1.339  0.00  0.00    -0.265 OA
BRANCH  17  18
HETATM   18  N   UNK N   1      -5.121   0.862   0.690  0.00  0.00    -0.097 N 
HETATM   19  C   UNK N   1      -6.358   1.044   0.018  0.00  0.00     0.689 C 
HETATM   20  N   UNK N   1      -7.187   0.074  -0.086  0.00  0.00    -0.233 N 
HETATM   21  N   UNK N   1      -6.619   2.258  -0.653  0.00  0.00    -0.233 N 
HETATM   22  H   UNK N   1      -8.152   0.252  -0.166  0.00  0.00     0.174 HD
ATOM     23  HN  UNK N   1      -6.846  -0.888  -0.086  1.00  0.00     0.174 HD
HETATM   24  H   UNK N   1      -5.976   2.839  -1.121  0.00  0.00     0.174 HD
HETATM   25  H   UNK N   1      -7.556   2.561  -0.653  0.00  0.00     0.174 HD
HETATM   26  H   UNK N   1      -4.472   1.602   0.682  0.00  0.00     0.213 HD
ENDBRANCH  17  18
ENDBRANCH  16  17
ENDBRANCH  15  16
ENDBRANCH  12  15
ENDBRANCH  10  11
ENDBRANCH   1  10
BRANCH   5  27
HETATM   27  N   UNK N   1       3.343   0.033  -1.133  0.00  0.00    -0.381 N 
HETATM   28  H   UNK N   1       4.112   0.205  -1.723  0.00  0.00     0.160 HD
BRANCH  27  29
HETATM   29  C   UNK N   1       3.333  -1.085  -0.209  0.00  0.00     0.206 C 
BRANCH  29  30
HETATM   30  C   UNK N   1       4.293  -1.076   0.986  0.00  0.00     0.301 C 
HETATM   31  F   UNK N   1       3.649  -1.543   2.129  0.00  0.00    -0.197 F 
HETATM   32  F   UNK N   1       4.817   0.178   1.263  0.00  0.00    -0.197 F 
BRANCH  30  33
HETATM   33  C   UNK N   1       5.322  -2.050   0.550  0.00  0.00     0.083 A 
HETATM   34  C   UNK N   1       4.936  -3.373   0.260  0.00  0.00     0.031 A 
HETATM   35  C   UNK N   1       5.842  -4.231  -0.349  0.00  0.00     0.003 A 
HETATM   36  C   UNK N   1       7.115  -3.765  -0.671  0.00  0.00     0.017 A 
HETATM   37  C   UNK N   1       7.470  -2.451  -0.353  0.00  0.00     0.088 A 
HETATM   38  N   UNK N   1       6.573  -1.624   0.242  0.00  0.00    -0.364 N 
ATOM     39  HN  UNK N   1       6.843  -0.665   0.463  1.00  0.00     0.165 HD
ENDBRANCH  30  33
ENDBRANCH  29  30
ENDBRANCH  27  29
ENDBRANCH   5  27
TORSDOF 10
