REMARK  4 active torsions:
REMARK  status: ('A' for Active; 'I' for Inactive)
REMARK    1  A    between atoms: C_5  and  S_8 
REMARK    2  A    between atoms: S_8  and  N_11 
REMARK    3  A    between atoms: N_11  and  C_13 
REMARK    4  A    between atoms: N_18  and  C_19 
ROOT
HETATM    1  C   UNK N   1      -0.634  -1.296   0.054  0.00  0.00     0.140 A 
HETATM    2  C   UNK N   1       0.593  -1.910   0.205  0.00  0.00     0.070 A 
HETATM    3  C   UNK N   1       0.308  -3.262   0.261  0.00  0.00     0.111 A 
HETATM    4  N   UNK N   1      -1.025  -3.434   0.161  0.00  0.00    -0.303 N 
ATOM      5  HN  UNK N   1      -1.505  -4.334   0.169  1.00  0.00     0.186 HD
HETATM    6  N   UNK N   1      -1.614  -2.254   0.049  0.00  0.00    -0.240 N 
ENDROOT
BRANCH   1   7
HETATM    7  N   UNK N   1      -0.780   0.118  -0.133  0.00  0.00    -0.260 N 
HETATM    8  C   UNK N   1      -1.933   0.666  -0.804  0.00  0.00     0.171 C 
BRANCH   7   9
HETATM    9  S   UNK N   1       0.525   1.254   0.269  0.00  0.00     0.266 S 
HETATM   10  O   UNK N   1      -0.195   2.590   0.511  0.00  0.00    -0.200 OA
HETATM   11  O   UNK N   1       0.595   1.553  -1.239  0.00  0.00    -0.200 OA
BRANCH   9  12
HETATM   12  C   UNK N   1       2.302   1.549   0.168  0.00  0.00     0.080 A 
HETATM   13  C   UNK N   1       3.241   0.513   0.249  0.00  0.00     0.026 A 
HETATM   14  C   UNK N   1       4.612   0.809   0.164  0.00  0.00     0.008 A 
HETATM   15  C   UNK N   1       5.041   2.135   0.004  0.00  0.00    -0.062 A 
HETATM   16  C   UNK N   1       4.106   3.165  -0.065  0.00  0.00     0.008 A 
HETATM   17  C   UNK N   1       6.490   2.452  -0.095  0.00  0.00     0.048 C 
HETATM   18  C   UNK N   1       2.746   2.874   0.020  0.00  0.00     0.026 A 
ENDBRANCH   9  12
ENDBRANCH   7   9
ENDBRANCH   1   7
BRANCH   6  19
HETATM   19  C   UNK N   1      -3.068  -2.179   0.012  0.00  0.00     0.058 A 
HETATM   20  C   UNK N   1      -3.812  -3.357  -0.195  0.00  0.00     0.031 A 
HETATM   21  C   UNK N   1      -5.211  -3.334  -0.188  0.00  0.00     0.002 A 
HETATM   22  C   UNK N   1      -5.890  -2.137   0.043  0.00  0.00     0.000 A 
HETATM   23  C   UNK N   1      -5.169  -0.967   0.278  0.00  0.00     0.002 A 
HETATM   24  C   UNK N   1      -3.771  -0.995   0.273  0.00  0.00     0.031 A 
ENDBRANCH   6  19
TORSDOF 4
