REMARK  2 active torsions:
REMARK  status: ('A' for Active; 'I' for Inactive)
REMARK    1  A    between atoms: C_4  and  Si_9 
REMARK    2  A    between atoms: C_10  and  Si_9 
ROOT
HETATM    1  C   UNK N   1      -1.804  -0.023   1.457  0.00  0.00     0.000 C 
HETATM    2  C   UNK N   1       1.143   0.118   2.201  0.00  0.00     0.000 C 
HETATM    3 Si   UNK N   1      -0.086   0.339   0.807  0.00  0.00     0.000 Si
ENDROOT
BRANCH   3   4
HETATM    4  C   UNK N   1      -0.025   2.086   0.230  0.00  0.00    -0.026 A 
HETATM    5  C   UNK N   1       1.183   2.632  -0.217  0.00  0.00     0.012 A 
HETATM    6  C   UNK N   1       1.229   3.954  -0.668  0.00  0.00     0.001 A 
HETATM    7  C   UNK N   1       0.064   4.727  -0.685  0.00  0.00     0.000 A 
HETATM    8  C   UNK N   1      -1.145   4.181  -0.243  0.00  0.00     0.001 A 
HETATM    9  C   UNK N   1      -1.188   2.863   0.219  0.00  0.00     0.012 A 
ENDBRANCH   3   4
BRANCH   3  10
HETATM   10  C   UNK N   1       0.313  -0.757  -0.683  0.00  0.00    -0.006 C 
HETATM   11  C   UNK N   1       1.571  -1.602  -0.499  0.00  0.00     0.041 C 
HETATM   12  C   UNK N   1       1.363  -2.742   0.508  0.00  0.00     0.311 C 
HETATM   13  N   UNK N   1       0.053  -3.406   0.416  0.00  0.00     0.009 N 
HETATM   14  C   UNK N   1      -0.695  -3.118  -0.814  0.00  0.00     0.311 C 
HETATM   15  O   UNK N   1       0.271  -4.741   0.453  0.00  0.00    -0.065 OA
HETATM   16  C   UNK N   1      -0.741  -3.072   1.588  0.00  0.00     0.356 C 
HETATM   17  C   UNK N   1      -0.896  -1.615  -1.067  0.00  0.00     0.041 C 
ENDBRANCH   3  10
TORSDOF 2
