REMARK  0 active torsions:
REMARK  status: ('A' for Active; 'I' for Inactive)
ROOT
HETATM    1  C   UNK N   1      -3.203   1.399  -0.000  0.00  0.00     0.089 C 
HETATM    2  C   UNK N   1      -1.889   0.707   0.000  0.00  0.00     0.080 A 
HETATM    3  N   UNK N   1      -0.747   1.433   0.000  0.00  0.00    -0.349 N 
ATOM      4  HN  UNK N   1      -0.810   2.451   0.000  1.00  0.00     0.167 HD
HETATM    5  C   UNK N   1       0.479   0.849   0.000  0.00  0.00     0.023 A 
HETATM    6  C   UNK N   1       1.644   1.778   0.000  0.00  0.00     0.068 A 
HETATM    7  C   UNK N   1       3.077   1.284  -0.000  0.00  0.00     0.080 A 
HETATM    8  S   UNK N   1       3.472  -0.490   0.000  0.00  0.00    -0.164 SA
HETATM    9  C   UNK N   1       1.857  -1.325  -0.000  0.00  0.00     0.120 A 
HETATM   10  C   UNK N   1       0.571  -0.556  -0.000  0.00  0.00     0.042 A 
HETATM   11  C   UNK N   1      -0.629  -1.294  -0.000  0.00  0.00     0.255 A 
HETATM   12  O   UNK N   1      -0.607  -2.513  -0.000  0.00  0.00    -0.268 OA
HETATM   13  N   UNK N   1      -1.833  -0.645   0.000  0.00  0.00    -0.313 N 
HETATM   14  H   UNK N   1      -2.668  -1.168   0.000  0.00  0.00     0.170 HD
ENDROOT
TORSDOF 0
