REMARK  6 active torsions:
REMARK  status: ('A' for Active; 'I' for Inactive)
REMARK    1  A    between atoms: C_10  and  C_11 
REMARK    2  A    between atoms: C_11  and  C_16 
REMARK    3  A    between atoms: C_11  and  P_12 
REMARK    4  A    between atoms: P_12  and  O_13 
REMARK    5  A    between atoms: P_12  and  O_15 
REMARK       I    between atoms: C_16  and  N_18 
REMARK    6  A    between atoms: N_18  and  C_19 
ROOT
HETATM    1  C   UNK N   1       1.031  -3.916   0.693  0.00  0.00     0.223 C 
ENDROOT
BRANCH   1   2
HETATM    2  C   UNK N   1      -0.211  -3.134   0.252  0.00  0.00    -0.015 A 
HETATM    3  C   UNK N   1      -0.328  -1.726  -0.049  0.00  0.00    -0.009 A 
HETATM    4  C   UNK N   1      -1.634  -1.336  -0.346  0.00  0.00     0.015 A 
HETATM    5  C   UNK N   1       0.674  -0.751  -0.031  0.00  0.00     0.037 A 
HETATM    6  C   UNK N   1      -1.992  -0.022  -0.624  0.00  0.00     0.021 A 
HETATM    7  S   UNK N   1      -2.594  -2.665  -0.255  0.00  0.00    -0.101 SA
HETATM    8  C   UNK N   1      -0.985   0.951  -0.594  0.00  0.00     0.025 A 
HETATM    9  C   UNK N   1       0.343   0.590  -0.299  0.00  0.00     0.035 A 
HETATM   10 Cl   UNK N   1       1.583   1.822  -0.236  0.00  0.00    -0.084 Cl
HETATM   11  C   UNK N   1      -1.456  -3.800   0.180  0.00  0.00     0.059 A 
ENDBRANCH   1   2
BRANCH   1  12
HETATM   12  C   UNK N   1       2.348  -3.152   0.721  0.00  0.00     0.242 C 
HETATM   13  O   UNK N   1       2.454  -2.170   1.438  0.00  0.00    -0.272 OA
HETATM   14  N   UNK N   1       3.436  -3.631   0.048  0.00  0.00    -0.326 N 
HETATM   15  H   UNK N   1       3.330  -4.476  -0.445  0.00  0.00     0.169 HD
BRANCH  14  16
HETATM   16  C   UNK N   1       4.710  -2.999   0.005  0.00  0.00     0.035 A 
HETATM   17  C   UNK N   1       4.844  -1.604   0.104  0.00  0.00     0.030 A 
HETATM   18  C   UNK N   1       6.110  -1.010   0.086  0.00  0.00     0.014 A 
HETATM   19  C   UNK N   1       7.253  -1.807  -0.012  0.00  0.00    -0.026 A 
HETATM   20  C   UNK N   1       7.126  -3.210  -0.116  0.00  0.00    -0.024 A 
HETATM   21  C   UNK N   1       8.523  -1.222   0.004  0.00  0.00     0.012 A 
HETATM   22  C   UNK N   1       5.856  -3.795  -0.120  0.00  0.00     0.042 A 
HETATM   23  C   UNK N   1       8.270  -4.009  -0.195  0.00  0.00     0.012 A 
HETATM   24  C   UNK N   1       9.538  -3.417  -0.170  0.00  0.00     0.001 A 
HETATM   25  C   UNK N   1       9.664  -2.027  -0.073  0.00  0.00     0.001 A 
ENDBRANCH  14  16
ENDBRANCH   1  12
BRANCH   1  26
HETATM   26  P   UNK N   1       1.205  -5.516  -0.290  0.00  0.00     0.254 P 
HETATM   27  O   UNK N   1      -0.093  -6.365  -0.223  0.00  0.00    -0.653 OA
BRANCH  26  28
HETATM   28  O   UNK N   1       1.533  -5.356  -1.986  0.00  0.00    -0.328 OA
HETATM   29  H   UNK N   1       1.701  -5.470  -2.935  0.00  0.00     0.220 HD
ENDBRANCH  26  28
BRANCH  26  30
HETATM   30  O   UNK N   1       2.412  -6.587   0.352  0.00  0.00    -0.328 OA
HETATM   31  H   UNK N   1       2.231  -7.470   0.711  0.00  0.00     0.220 HD
ENDBRANCH  26  30
ENDBRANCH   1  26
TORSDOF 6
