REMARK  6 active torsions:
REMARK  status: ('A' for Active; 'I' for Inactive)
REMARK    1  A    between atoms: S_2  and  N_4 
REMARK    2  A    between atoms: S_2  and  C_5 
REMARK    3  A    between atoms: C_8  and  N_11 
REMARK    4  A    between atoms: N_11  and  C_12 
REMARK    5  A    between atoms: C_22  and  N_24 
REMARK    6  A    between atoms: N_24  and  C_25 
ROOT
HETATM    1  C   UNK N   1      -0.871   0.622   0.061  0.00  0.00     0.149 A 
HETATM    2  N   UNK N   1      -1.879   1.546   0.062  0.00  0.00    -0.069 N 
HETATM    3  N   UNK N   1      -3.104   1.468   0.534  0.00  0.00    -0.273 N 
ATOM      4  HN  UNK N   1      -3.535   0.661   0.985  1.00  0.00     0.189 HD
HETATM    5  C   UNK N   1      -3.683   2.675   0.301  0.00  0.00     0.215 A 
HETATM    6  C   UNK N   1      -1.701   2.774  -0.437  0.00  0.00     0.707 A 
HETATM    7  N   UNK N   1      -2.812   3.520  -0.314  0.00  0.00    -0.184 N 
ATOM      8  HN  UNK N   1      -2.965   4.484  -0.610  1.00  0.00     0.185 HD
HETATM    9  N   UNK N   1      -0.504   3.190  -0.934  0.00  0.00    -0.175 N 
ATOM     10  HN  UNK N   1      -0.389   4.128  -1.318  1.00  0.00     0.186 HD
HETATM   11  C   UNK N   1       0.542   2.305  -0.900  0.00  0.00     0.120 A 
HETATM   12  C   UNK N   1       0.346   1.016  -0.404  0.00  0.00     0.099 A 
ENDROOT
BRANCH   1  13
HETATM   13  N   UNK N   1      -0.965  -0.711   0.525  0.00  0.00    -0.340 N 
HETATM   14  H   UNK N   1      -0.194  -1.064   1.024  0.00  0.00     0.167 HD
BRANCH  13  15
HETATM   15  C   UNK N   1      -2.052  -1.579   0.342  0.00  0.00     0.033 A 
HETATM   16  C   UNK N   1      -3.255  -1.124  -0.189  0.00  0.00     0.031 A 
HETATM   17  C   UNK N   1      -4.322  -1.984  -0.339  0.00  0.00     0.027 A 
HETATM   18  C   UNK N   1      -4.180  -3.324  -0.003  0.00  0.00     0.079 A 
HETATM   19  C   UNK N   1      -2.961  -3.814   0.476  0.00  0.00     0.027 A 
HETATM   20  C   UNK N   1      -1.891  -2.935   0.644  0.00  0.00     0.031 A 
BRANCH  18  21
HETATM   21  S   UNK N   1      -5.628  -4.330  -0.015  0.00  0.00     0.256 S 
HETATM   22  O   UNK N   1      -6.219  -4.572  -1.411  0.00  0.00    -0.201 OA
HETATM   23  O   UNK N   1      -5.419  -5.741   0.550  0.00  0.00    -0.201 OA
BRANCH  21  24
HETATM   24  N   UNK N   1      -6.942  -3.644   0.939  0.00  0.00    -0.324 N 
HETATM   25  H   UNK N   1      -6.979  -2.787   1.491  0.00  0.00     0.169 HD
HETATM   26  H   UNK N   1      -7.803  -4.192   0.939  0.00  0.00     0.169 HD
ENDBRANCH  21  24
ENDBRANCH  18  21
ENDBRANCH  13  15
ENDBRANCH   1  13
BRANCH  11  27
HETATM   27  N   UNK N   1       1.870   2.714  -1.165  0.00  0.00    -0.371 N 
HETATM   28  H   UNK N   1       2.072   3.453  -1.784  0.00  0.00     0.161 HD
BRANCH  27  29
HETATM   29  C   UNK N   1       2.920   1.987  -0.475  0.00  0.00     0.083 C 
HETATM   30  C   UNK N   1       4.154   2.743  -0.049  0.00  0.00     0.025 C 
HETATM   31  C   UNK N   1       4.756   1.981   1.139  0.00  0.00     0.002 C 
HETATM   32  C   UNK N   1       4.988   0.495   0.819  0.00  0.00     0.000 C 
HETATM   33  C   UNK N   1       3.707  -0.188   0.332  0.00  0.00     0.002 C 
HETATM   34  C   UNK N   1       3.162   0.542  -0.892  0.00  0.00     0.025 C 
ENDBRANCH  27  29
ENDBRANCH  11  27
TORSDOF 6
