REMARK  7 active torsions:
REMARK  status: ('A' for Active; 'I' for Inactive)
REMARK    1  A    between atoms: S_2  and  N_4 
REMARK    2  A    between atoms: S_2  and  C_5 
REMARK    3  A    between atoms: C_8  and  N_11 
REMARK    4  A    between atoms: N_11  and  C_12 
REMARK    5  A    between atoms: C_22  and  N_24 
REMARK    6  A    between atoms: C_25  and  N_24 
REMARK    7  A    between atoms: C_28  and  N_29 
ROOT
HETATM    1  C   UNK N   1       0.353   0.565   0.037  0.00  0.00     0.149 A 
HETATM    2  N   UNK N   1      -0.783   1.221  -0.350  0.00  0.00    -0.069 N 
HETATM    3  N   UNK N   1      -1.924   0.741  -0.796  0.00  0.00    -0.273 N 
ATOM      4  HN  UNK N   1      -2.174  -0.242  -0.905  1.00  0.00     0.189 HD
HETATM    5  C   UNK N   1      -2.703   1.816  -1.085  0.00  0.00     0.215 A 
HETATM    6  C   UNK N   1      -0.851   2.552  -0.374  0.00  0.00     0.707 A 
HETATM    7  N   UNK N   1      -2.042   2.977  -0.828  0.00  0.00    -0.184 N 
ATOM      8  HN  UNK N   1      -2.370   3.935  -0.950  1.00  0.00     0.185 HD
HETATM    9  N   UNK N   1       0.221   3.331  -0.087  0.00  0.00    -0.175 N 
ATOM     10  HN  UNK N   1       0.155   4.349  -0.125  1.00  0.00     0.186 HD
HETATM   11  C   UNK N   1       1.393   2.714   0.255  0.00  0.00     0.120 A 
HETATM   12  C   UNK N   1       1.446   1.324   0.353  0.00  0.00     0.099 A 
ENDROOT
BRANCH   1  13
HETATM   13  N   UNK N   1       0.515  -0.840  -0.036  0.00  0.00    -0.340 N 
HETATM   14  H   UNK N   1       1.424  -1.205  -0.133  0.00  0.00     0.167 HD
BRANCH  13  15
HETATM   15  C   UNK N   1      -0.560  -1.728   0.024  0.00  0.00     0.033 A 
HETATM   16  C   UNK N   1      -1.582  -1.501   0.940  0.00  0.00     0.031 A 
HETATM   17  C   UNK N   1      -2.715  -2.287   0.913  0.00  0.00     0.027 A 
HETATM   18  C   UNK N   1      -2.851  -3.325  -0.061  0.00  0.00     0.079 A 
HETATM   19  C   UNK N   1      -1.775  -3.577  -0.928  0.00  0.00     0.027 A 
HETATM   20  C   UNK N   1      -0.630  -2.785  -0.881  0.00  0.00     0.031 A 
BRANCH  18  21
HETATM   21  S   UNK N   1      -4.381  -4.326  -0.307  0.00  0.00     0.256 S 
HETATM   22  O   UNK N   1      -5.673  -3.856   0.375  0.00  0.00    -0.201 OA
HETATM   23  O   UNK N   1      -4.013  -4.443   1.180  0.00  0.00    -0.201 OA
BRANCH  21  24
HETATM   24  N   UNK N   1      -4.631  -2.644  -0.815  0.00  0.00    -0.324 N 
HETATM   25  H   UNK N   1      -3.866  -2.035  -1.106  0.00  0.00     0.169 HD
HETATM   26  H   UNK N   1      -5.580  -2.269  -0.815  0.00  0.00     0.169 HD
ENDBRANCH  21  24
ENDBRANCH  18  21
ENDBRANCH  13  15
ENDBRANCH   1  13
BRANCH  11  27
HETATM   27  N   UNK N   1       2.610   3.435   0.199  0.00  0.00    -0.371 N 
HETATM   28  H   UNK N   1       2.662   4.304   0.659  0.00  0.00     0.161 HD
BRANCH  27  29
HETATM   29  C   UNK N   1       3.798   2.946  -0.514  0.00  0.00     0.083 C 
HETATM   30  C   UNK N   1       5.004   2.903   0.433  0.00  0.00     0.027 C 
HETATM   31  C   UNK N   1       6.015   1.839  -0.002  0.00  0.00     0.026 C 
HETATM   32  C   UNK N   1       5.379   0.454   0.177  0.00  0.00     0.074 C 
HETATM   33  C   UNK N   1       3.983   0.371  -0.445  0.00  0.00     0.026 C 
HETATM   34  C   UNK N   1       3.631   1.606  -1.296  0.00  0.00     0.027 C 
BRANCH  32  35
HETATM   35  N   UNK N   1       6.225  -0.561  -0.422  0.00  0.00    -0.426 N 
HETATM   36  H   UNK N   1       5.904  -1.433  -0.843  0.00  0.00     0.150 HD
HETATM   37  H   UNK N   1       7.230  -0.387  -0.422  0.00  0.00     0.150 HD
ENDBRANCH  32  35
ENDBRANCH  27  29
ENDBRANCH  11  27
TORSDOF 7
