REMARK  4 active torsions:
REMARK  status: ('A' for Active; 'I' for Inactive)
REMARK    1  A    between atoms: C_10  and  S_11 
REMARK    2  A    between atoms: N_14  and  S_11 
REMARK    3  A    between atoms: S_20  and  N_19 
REMARK    4  A    between atoms: S_20  and  C_23 
ROOT
HETATM    1  N   UNK N   1      -0.785   0.635   1.000  0.00  0.00    -0.204 NA
HETATM    2  C   UNK N   1      -0.179  -0.696   0.929  0.00  0.00     0.123 C 
HETATM    3  C   UNK N   1      -1.248  -1.722   0.533  0.00  0.00     0.123 C 
HETATM    4  C   UNK N   1      -1.345   0.990  -0.303  0.00  0.00     0.123 C 
HETATM    5  C   UNK N   1      -2.418  -0.029  -0.687  0.00  0.00     0.123 C 
HETATM    6  N   UNK N   1      -1.814  -1.357  -0.766  0.00  0.00    -0.204 NA
ENDROOT
BRANCH   1   7
HETATM    7  S   UNK N   1       0.455   1.826   1.433  0.00  0.00     0.243 S 
HETATM    8  O   UNK N   1      -0.284   3.173   1.454  0.00  0.00    -0.206 OA
HETATM    9  O   UNK N   1       0.692   1.624   2.937  0.00  0.00    -0.206 OA
BRANCH   7  10
HETATM   10  C   UNK N   1       2.008   1.958   0.549  0.00  0.00     0.077 A 
HETATM   11  C   UNK N   1       3.058   1.086   0.852  0.00  0.00     0.064 A 
HETATM   12  C   UNK N   1       4.299   1.244   0.227  0.00  0.00     0.103 A 
HETATM   13  C   UNK N   1       4.495   2.291  -0.687  0.00  0.00     0.102 A 
HETATM   14  O   UNK N   1       5.316   0.396   0.495  0.00  0.00    -0.346 OA
HETATM   15  O   UNK N   1       5.718   2.462  -1.245  0.00  0.00    -0.346 OA
HETATM   16  C   UNK N   1       3.443   3.152  -1.004  0.00  0.00     0.041 A 
HETATM   17  C   UNK N   1       6.832   1.786  -0.772  0.00  0.00     0.202 C 
HETATM   18  C   UNK N   1       6.466   0.378  -0.280  0.00  0.00     0.202 C 
HETATM   19  C   UNK N   1       2.199   2.988  -0.383  0.00  0.00     0.028 A 
ENDBRANCH   7  10
ENDBRANCH   1   7
BRANCH   6  20
HETATM   20  S   UNK N   1      -3.048  -2.542  -1.239  0.00  0.00     0.249 S 
HETATM   21  O   UNK N   1      -3.419  -2.160  -2.681  0.00  0.00    -0.205 OA
HETATM   22  O   UNK N   1      -2.254  -3.831  -1.502  0.00  0.00    -0.205 OA
BRANCH  20  23
HETATM   23  C   UNK N   1      -4.528  -2.851  -0.243  0.00  0.00     0.151 A 
HETATM   24  C   UNK N   1      -4.690  -4.074   0.437  0.00  0.00     0.142 A 
HETATM   25  C   UNK N   1      -5.844  -4.312   1.189  0.00  0.00     0.044 A 
HETATM   26  F   UNK N   1      -3.741  -5.039   0.367  0.00  0.00    -0.204 F 
HETATM   27  C   UNK N   1      -6.843  -3.341   1.271  0.00  0.00     0.006 A 
HETATM   28  C   UNK N   1      -6.694  -2.129   0.594  0.00  0.00     0.044 A 
HETATM   29  C   UNK N   1      -5.543  -1.881  -0.162  0.00  0.00     0.142 A 
HETATM   30  F   UNK N   1      -5.426  -0.703  -0.821  0.00  0.00    -0.204 F 
ENDBRANCH  20  23
ENDBRANCH   6  20
TORSDOF 4
