REMARK  7 active torsions:
REMARK  status: ('A' for Active; 'I' for Inactive)
REMARK    1  A    between atoms: C_2  and  O_5 
REMARK    2  A    between atoms: O_5  and  C_6 
REMARK       I    between atoms: C_6  and  N_8 
REMARK    3  A    between atoms: C_9  and  N_8 
REMARK    4  A    between atoms: C_9  and  C_13 
REMARK    5  A    between atoms: C_9  and  C_10 
REMARK    6  A    between atoms: C_14  and  C_13 
REMARK    7  A    between atoms: C_14  and  O_15 
ROOT
HETATM    1  C   UNK N   1      -1.367  -0.625   0.026  0.00  0.00     0.362 C 
HETATM    2  O   UNK N   1      -1.541   0.337   0.759  0.00  0.00    -0.238 OA
HETATM    3  N   UNK N   1      -0.115  -0.978  -0.366  0.00  0.00    -0.325 N 
HETATM    4  H   UNK N   1      -0.029  -1.698  -1.032  0.00  0.00     0.165 HD
ENDROOT
BRANCH   3   5
HETATM    5  C   UNK N   1       1.105  -0.366   0.129  0.00  0.00     0.165 C 
BRANCH   5   6
HETATM    6  C   UNK N   1       2.282  -1.006  -0.614  0.00  0.00     0.144 C 
BRANCH   6   7
HETATM    7  C   UNK N   1       3.625  -0.653  -0.047  0.00  0.00     0.260 C 
HETATM    8  O   UNK N   1       4.005   0.510  -0.046  0.00  0.00    -0.265 OA
BRANCH   7   9
HETATM    9  O   UNK N   1       4.421  -1.641   0.426  0.00  0.00    -0.326 OA
HETATM   10  C   UNK N   1       5.678  -1.399   0.929  0.00  0.00     0.213 C 
ENDBRANCH   7   9
ENDBRANCH   6   7
ENDBRANCH   5   6
BRANCH   5  11
HETATM   11  C   UNK N   1       1.100   1.132  -0.062  0.00  0.00     0.146 C 
HETATM   12  O   UNK N   1       1.005   1.614  -1.180  0.00  0.00    -0.296 OA
HETATM   13  C   UNK N   1       1.213   2.036   1.122  0.00  0.00     0.093 C 
ENDBRANCH   5  11
ENDBRANCH   3   5
BRANCH   1  14
HETATM   14  O   UNK N   1      -2.421  -1.386  -0.384  0.00  0.00    -0.294 OA
BRANCH  14  15
HETATM   15  C   UNK N   1      -3.760  -1.120  -0.138  0.00  0.00     0.061 C 
HETATM   16  C   UNK N   1      -4.206   0.114  -0.901  0.00  0.00     0.046 C 
HETATM   17  C   UNK N   1      -4.578  -2.301  -0.618  0.00  0.00     0.046 C 
HETATM   18  C   UNK N   1      -4.035  -0.938   1.348  0.00  0.00     0.046 C 
ENDBRANCH  14  15
ENDBRANCH   1  14
TORSDOF 7
