REMARK  4 active torsions:
REMARK  status: ('A' for Active; 'I' for Inactive)
REMARK       I    between atoms: C_6  and  N_7 
REMARK    1  A    between atoms: C_11  and  C_12 
REMARK    2  A    between atoms: C_12  and  C_13 
REMARK    3  A    between atoms: C_13  and  C_14 
REMARK    4  A    between atoms: C_17  and  O_18 
ROOT
HETATM    1  C   UNK N   1      -0.937   4.432   0.000  0.00  0.00     0.051 A 
HETATM    2  C   UNK N   1       0.352   3.858   0.000  0.00  0.00     0.062 A 
HETATM    3  C   UNK N   1       1.513   4.644   0.000  0.00  0.00     0.272 A 
HETATM    4  O   UNK N   1       1.442   5.860   0.000  0.00  0.00    -0.267 OA
HETATM    5  N   UNK N   1       2.743   4.037   0.000  0.00  0.00    -0.156 N 
HETATM    6  C   UNK N   1       2.860   2.684  -0.000  0.00  0.00     0.679 A 
HETATM    7  N   UNK N   1       4.135   2.086  -0.000  0.00  0.00    -0.234 N 
HETATM    8  N   UNK N   1       1.751   1.903  -0.000  0.00  0.00    -0.190 N 
ATOM      9  HN  UNK N   1       1.855   0.889  -0.000  1.00  0.00     0.184 HD
HETATM   10  C   UNK N   1       0.502   2.444  -0.000  0.00  0.00     0.073 A 
HETATM   11  C   UNK N   1      -0.630   1.599  -0.000  0.00  0.00    -0.001 A 
HETATM   12  C   UNK N   1      -1.891   2.213  -0.000  0.00  0.00     0.068 A 
HETATM   13  N   UNK N   1      -3.107   1.646  -0.000  0.00  0.00    -0.350 N 
ATOM     14  HN  UNK N   1      -3.331   0.651  -0.000  1.00  0.00     0.166 HD
HETATM   15  C   UNK N   1      -3.972   2.695  -0.000  0.00  0.00     0.181 A 
HETATM   16  N   UNK N   1      -3.327   3.890   0.000  0.00  0.00    -0.350 N 
HETATM   17  C   UNK N   1      -2.027   3.567   0.000  0.00  0.00     0.061 A 
HETATM   18  H   UNK N   1       3.556   4.592   0.000  0.00  0.00     0.187 HD
HETATM   19  H   UNK N   1       4.219   1.105  -0.000  0.00  0.00     0.174 HD
HETATM   20  H   UNK N   1       4.943   2.649  -0.000  0.00  0.00     0.174 HD
HETATM   21  H   UNK N   1      -3.725   4.791   0.000  0.00  0.00     0.166 HD
ENDROOT
BRANCH  11  22
HETATM   22  C   UNK N   1      -0.386   0.119  -0.000  0.00  0.00     0.048 C 
BRANCH  22  23
HETATM   23  C   UNK N   1      -1.532  -0.885  -0.000  0.00  0.00     0.043 C 
BRANCH  23  24
HETATM   24  C   UNK N   1      -0.970  -2.289  -0.000  0.00  0.00    -0.058 A 
HETATM   25  C   UNK N   1       0.419  -2.516  -0.000  0.00  0.00     0.010 A 
HETATM   26  C   UNK N   1       0.932  -3.809  -0.000  0.00  0.00     0.037 A 
HETATM   27  C   UNK N   1       0.065  -4.910   0.000  0.00  0.00     0.068 A 
HETATM   28  C   UNK N   1      -1.320  -4.693   0.000  0.00  0.00     0.037 A 
HETATM   29  C   UNK N   1      -1.836  -3.389   0.000  0.00  0.00     0.010 A 
BRANCH  27  30
HETATM   30  O   UNK N   1       0.540  -6.178   0.000  0.00  0.00    -0.356 OA
HETATM   31  C   UNK N   1       1.885  -6.477   0.000  0.00  0.00     0.210 C 
ENDBRANCH  27  30
ENDBRANCH  23  24
ENDBRANCH  22  23
ENDBRANCH  11  22
TORSDOF 4
