REMARK  9 active torsions:
REMARK  status: ('A' for Active; 'I' for Inactive)
REMARK    1  A    between atoms: C_1  and  N_15 
REMARK    2  A    between atoms: C_13  and  N_10 
REMARK    3  A    between atoms: C_14  and  C_13 
REMARK    4  A    between atoms: C_21  and  C_13 
REMARK    5  A    between atoms: C_16  and  C_14 
REMARK    6  A    between atoms: C_17  and  C_16 
REMARK    7  A    between atoms: C_18  and  C_17 
REMARK    8  A    between atoms: C_19  and  C_18 
REMARK    9  A    between atoms: C_21  and  O_22 
ROOT
HETATM    1  C   UNK N   1       1.794   3.984   0.315  0.00  0.00     0.131 A 
HETATM    2  C   UNK N   1       1.922   2.623   0.091  0.00  0.00     0.122 A 
HETATM    3  C   UNK N   1       0.826   1.849  -0.056  0.00  0.00     0.141 A 
HETATM    4  C   UNK N   1      -0.571   3.702   0.232  0.00  0.00     0.183 A 
HETATM    5  C   UNK N   1       2.567   0.623  -0.286  0.00  0.00     0.185 A 
HETATM    6  N   UNK N   1      -0.428   2.359   0.005  0.00  0.00    -0.336 N 
ATOM      7  HN  UNK N   1      -1.244   1.758  -0.115  1.00  0.00     0.168 HD
HETATM    8  N   UNK N   1       0.534   4.506   0.383  0.00  0.00    -0.337 N 
ATOM      9  HN  UNK N   1       0.411   5.505   0.548  1.00  0.00     0.168 HD
HETATM   10  N   UNK N   1       1.207   0.579  -0.297  0.00  0.00    -0.320 N 
HETATM   11  N   UNK N   1       3.031   1.878  -0.040  0.00  0.00    -0.346 N 
ATOM     12  HN  UNK N   1       4.002   2.184   0.030  1.00  0.00     0.167 HD
ENDROOT
BRANCH  10  13
HETATM   13  C   UNK N   1       0.407  -0.629  -0.598  0.00  0.00     0.120 C 
BRANCH  13  14
HETATM   14  C   UNK N   1      -1.108  -0.358  -0.621  0.00  0.00     0.028 C 
BRANCH  14  15
HETATM   15  C   UNK N   1      -1.780  -0.341   0.750  0.00  0.00     0.002 C 
BRANCH  15  16
HETATM   16  C   UNK N   1      -3.289  -0.470   0.593  0.00  0.00     0.000 C 
BRANCH  16  17
HETATM   17  C   UNK N   1      -3.647  -1.749  -0.149  0.00  0.00    -0.000 C 
BRANCH  17  18
HETATM   18  C   UNK N   1      -5.142  -1.969  -0.125  0.00  0.00    -0.005 C 
HETATM   19  C   UNK N   1      -5.411  -3.412   0.244  0.00  0.00     0.005 C 
ENDBRANCH  17  18
ENDBRANCH  16  17
ENDBRANCH  15  16
ENDBRANCH  14  15
ENDBRANCH  13  14
BRANCH  13  20
HETATM   20  C   UNK N   1       0.778  -1.817   0.328  0.00  0.00     0.137 C 
HETATM   21  C   UNK N   1      -0.033  -3.058  -0.017  0.00  0.00     0.041 C 
BRANCH  20  22
HETATM   22  O   UNK N   1       2.129  -2.138   0.188  0.00  0.00    -0.394 OA
HETATM   23  H   UNK N   1       2.406  -3.063   0.090  0.00  0.00     0.210 HD
ENDBRANCH  20  22
ENDBRANCH  13  20
ENDBRANCH  10  13
BRANCH   1  24
HETATM   24  N   UNK N   1       2.926   4.814   0.452  0.00  0.00    -0.383 N 
HETATM   25  H   UNK N   1       3.822   4.419   0.547  0.00  0.00     0.157 HD
HETATM   26  H   UNK N   1       2.818   5.792   0.452  0.00  0.00     0.157 HD
ENDBRANCH   1  24
TORSDOF 9
