REMARK  4 active torsions:
REMARK  status: ('A' for Active; 'I' for Inactive)
REMARK    1  A    between atoms: C_2  and  O_1 
REMARK    2  A    between atoms: C_19  and  O_20 
REMARK    3  A    between atoms: C_28  and  C_29 
REMARK    4  A    between atoms: C_29  and  O_30 
ROOT
HETATM    1  C   UNK N   1      -5.928   0.725   0.529  0.00  0.00     0.171 C 
HETATM    2  C   UNK N   1      -5.505   1.848  -0.386  0.00  0.00     0.003 C 
HETATM    3  C   UNK N   1      -4.279   2.374  -0.502  0.00  0.00    -0.025 C 
HETATM    4  C   UNK N   1      -3.098   1.941   0.306  0.00  0.00     0.061 C 
HETATM    5  C   UNK N   1      -2.250   0.901  -0.433  0.00  0.00     0.158 C 
HETATM    6  O   UNK N   1      -1.032   0.761   0.264  0.00  0.00    -0.374 OA
HETATM    7  C   UNK N   1      -0.014   0.332  -0.629  0.00  0.00     0.157 C 
HETATM    8  C   UNK N   1       1.231   1.192  -0.461  0.00  0.00     0.069 C 
HETATM    9  C   UNK N   1       1.854   0.940   0.908  0.00  0.00     0.156 C 
HETATM   10  O   UNK N   1       3.046   1.695   1.098  0.00  0.00    -0.375 OA
HETATM   11  C   UNK N   1       4.101   1.257   0.252  0.00  0.00     0.157 C 
HETATM   12  C   UNK N   1       5.290   2.204   0.441  0.00  0.00     0.061 C 
HETATM   13  C   UNK N   1       6.429   2.047  -0.549  0.00  0.00    -0.026 C 
HETATM   14  C   UNK N   1       6.636   0.991  -1.354  0.00  0.00    -0.005 C 
HETATM   15  C   UNK N   1       5.744  -0.211  -1.368  0.00  0.00     0.195 C 
HETATM   16  O   UNK N   1       5.641  -0.724  -0.065  0.00  0.00    -0.377 OA
HETATM   17  C   UNK N   1       4.492  -0.214   0.601  0.00  0.00     0.182 C 
HETATM   18  C   UNK N   1       3.276  -1.114   0.344  0.00  0.00     0.181 C 
HETATM   19  C   UNK N   1       2.069  -0.575   1.146  0.00  0.00     0.182 C 
HETATM   20  O   UNK N   1       0.869  -1.327   0.937  0.00  0.00    -0.369 OA
HETATM   21  C   UNK N   1       0.314  -1.129  -0.361  0.00  0.00     0.173 C 
HETATM   22  C   UNK N   1      -0.886  -2.029  -0.545  0.00  0.00     0.006 C 
HETATM   23  C   UNK N   1      -2.202  -1.739  -0.668  0.00  0.00     0.006 C 
HETATM   24  C   UNK N   1      -3.007  -0.449  -0.565  0.00  0.00     0.174 C 
HETATM   25  O   UNK N   1      -3.880  -0.615   0.542  0.00  0.00    -0.369 OA
HETATM   26  C   UNK N   1      -5.259  -0.625   0.183  0.00  0.00     0.178 C 
ENDROOT
BRANCH  26  27
HETATM   27  C   UNK N   1      -5.926  -1.753   0.963  0.00  0.00     0.199 C 
BRANCH  27  28
HETATM   28  O   UNK N   1      -5.441  -2.989   0.531  0.00  0.00    -0.398 OA
HETATM   29  H   UNK N   1      -6.015  -3.710   0.230  0.00  0.00     0.209 HD
ENDBRANCH  27  28
ENDBRANCH  26  27
BRANCH   1  30
HETATM   30  O   UNK N   1      -7.312   0.598   0.388  0.00  0.00    -0.389 OA
HETATM   31  H   UNK N   1      -7.869   1.386   0.289  0.00  0.00     0.210 HD
ENDBRANCH   1  30
BRANCH  18  32
HETATM   32  O   UNK N   1       3.556  -2.427   0.733  0.00  0.00    -0.390 OA
HETATM   33  H   UNK N   1       2.863  -3.050   1.004  0.00  0.00     0.210 HD
ENDBRANCH  18  32
TORSDOF 4
