REMARK  1 active torsions:
REMARK  status: ('A' for Active; 'I' for Inactive)
REMARK    1  A    between atoms: C_1  and  C_8 
ROOT
HETATM    1  C   UNK N   1      -0.186   0.710  -0.173  0.00  0.00     0.044 C 
HETATM    2  C   UNK N   1      -0.005   1.654   1.011  0.00  0.00     0.036 C 
HETATM    3  C   UNK N   1       1.507   1.921   0.940  0.00  0.00     0.077 C 
HETATM    4  C   UNK N   1       2.182   0.746   1.626  0.00  0.00     0.027 C 
HETATM    5  C   UNK N   1       1.980  -0.353   0.588  0.00  0.00     0.027 C 
HETATM    6  C   UNK N   1       1.274   0.412  -0.538  0.00  0.00     0.085 C 
HETATM    7  N   UNK N   1       1.862   1.731  -0.457  0.00  0.00    -0.412 N 
HETATM    8  H   UNK N   1       2.349   2.316  -1.134  0.00  0.00     0.154 HD
ENDROOT
BRANCH   1   9
HETATM    9  C   UNK N   1      -1.117  -0.459   0.049  0.00  0.00    -0.036 A 
HETATM   10  C   UNK N   1      -0.703  -1.782  -0.155  0.00  0.00     0.012 A 
HETATM   11  C   UNK N   1      -1.620  -2.827  -0.040  0.00  0.00     0.043 A 
HETATM   12  C   UNK N   1      -2.949  -2.541   0.275  0.00  0.00     0.103 A 
HETATM   13 Cl   UNK N   1      -4.124  -3.834   0.376  0.00  0.00    -0.065 Cl
HETATM   14  N   UNK N   1      -3.337  -1.252   0.483  0.00  0.00    -0.356 N 
HETATM   15  C   UNK N   1      -2.460  -0.220   0.374  0.00  0.00     0.096 A 
ATOM     16  HN  UNK N   1      -4.308  -1.057   0.725  1.00  0.00     0.166 HD
ENDBRANCH   1   9
TORSDOF 1
