REMARK  5 active torsions:
REMARK  status: ('A' for Active; 'I' for Inactive)
REMARK    1  A    between atoms: C_3  and  O_9 
REMARK    2  A    between atoms: C_10  and  C_3 
REMARK    3  A    between atoms: C_5  and  C_10 
REMARK    4  A    between atoms: C_11  and  C_5 
REMARK    5  A    between atoms: O_15  and  C_7 
ROOT
HETATM    1  N   UNK N   1      -0.813  -2.644   0.008  0.00  0.00    -0.365 N 
HETATM    2  C   UNK N   1       0.425  -2.114   0.006  0.00  0.00     0.043 A 
HETATM    3  C   UNK N   1       1.514   0.035  -0.007  0.00  0.00     0.051 A 
HETATM    4  C   UNK N   1       1.641  -2.796   0.013  0.00  0.00     0.033 A 
HETATM    5  C   UNK N   1       2.768  -0.611   0.000  0.00  0.00     0.069 A 
HETATM    6  C   UNK N   1      -0.943  -0.400  -0.007  0.00  0.00    -0.030 A 
HETATM    7  C   UNK N   1      -1.673  -1.587   0.000  0.00  0.00     0.096 A 
HETATM    8  C   UNK N   1       0.374  -0.755  -0.003  0.00  0.00     0.001 A 
HETATM    9  C   UNK N   1       2.825  -2.027   0.010  0.00  0.00     0.039 A 
HETATM   10  H   UNK N   1      -1.048  -3.600   0.014  0.00  0.00     0.165 HD
ENDROOT
BRANCH   6  11
HETATM   11  C   UNK N   1      -1.415   1.018  -0.016  0.00  0.00     0.051 C 
BRANCH  11  12
HETATM   12  C   UNK N   1      -2.920   1.206  -0.007  0.00  0.00     0.114 C 
BRANCH  12  13
HETATM   13  C   UNK N   1      -3.251   2.672   0.002  0.00  0.00     0.139 C 
HETATM   14  O   UNK N   1      -4.417   3.026   0.011  0.00  0.00    -0.650 OA
BRANCH  13  15
HETATM   15  O   UNK N   1      -2.273   3.604   0.002  0.00  0.00    -0.776 OA
HETATM   16  H   UNK N   1      -1.374   3.340   0.001  0.00  0.00     0.167 HD
ENDBRANCH  13  15
ENDBRANCH  12  13
ENDBRANCH  11  12
ENDBRANCH   6  11
BRANCH   5  17
HETATM   17  O   UNK N   1       3.920   0.100  -0.002  0.00  0.00    -0.356 OA
HETATM   18  C   UNK N   1       3.951   1.478  -0.010  0.00  0.00     0.210 C 
ENDBRANCH   5  17
TORSDOF 5
