REMARK  8 active torsions:
REMARK  status: ('A' for Active; 'I' for Inactive)
REMARK    1  A    between atoms: C_1  and  C_16 
REMARK    2  A    between atoms: C_1  and  C_17 
REMARK    3  A    between atoms: N_5  and  S_18 
REMARK    4  A    between atoms: C_7  and  C_16 
REMARK    5  A    between atoms: O_14  and  C_10 
REMARK    6  A    between atoms: C_17  and  O_25 
REMARK    7  A    between atoms: S_18  and  C_19 
REMARK    8  A    between atoms: C_21  and  O_26 
ROOT
HETATM    1  N   UNK N   1      -0.060  -0.698   0.212  0.00  0.00    -0.246 N 
HETATM    2  C   UNK N   1      -0.767  -1.828  -0.032  0.00  0.00     0.117 A 
HETATM    3  C   UNK N   1       0.106  -2.884  -0.241  0.00  0.00    -0.028 A 
HETATM    4  C   UNK N   1       1.380  -2.369  -0.112  0.00  0.00     0.002 A 
HETATM    5  C   UNK N   1       1.244  -1.031   0.166  0.00  0.00     0.061 A 
HETATM    6  C   UNK N   1       3.775  -2.185  -0.005  0.00  0.00     0.069 A 
HETATM    7  C   UNK N   1       3.629  -0.805   0.283  0.00  0.00     0.039 A 
HETATM    8  C   UNK N   1       2.353  -0.213   0.374  0.00  0.00     0.034 A 
HETATM    9  C   UNK N   1       2.623  -2.983  -0.205  0.00  0.00     0.051 A 
ENDROOT
BRANCH   1  10
HETATM   10  S   UNK N   1      -0.838   0.853   0.603  0.00  0.00     0.269 S 
HETATM   11  O   UNK N   1      -1.163   0.826  -0.902  0.00  0.00    -0.200 OA
HETATM   12  O   UNK N   1      -2.261   0.366   0.924  0.00  0.00    -0.200 OA
BRANCH  10  13
HETATM   13  C   UNK N   1      -1.078   2.610   0.270  0.00  0.00     0.080 A 
HETATM   14  C   UNK N   1      -2.384   3.092   0.079  0.00  0.00     0.028 A 
HETATM   15  C   UNK N   1      -2.622   4.451  -0.097  0.00  0.00     0.038 A 
HETATM   16  C   UNK N   1      -1.557   5.362  -0.068  0.00  0.00     0.068 A 
HETATM   17  C   UNK N   1      -0.252   4.887   0.132  0.00  0.00     0.038 A 
HETATM   18  C   UNK N   1      -0.011   3.515   0.308  0.00  0.00     0.028 A 
BRANCH  16  19
HETATM   19  O   UNK N   1      -1.767   6.691  -0.220  0.00  0.00    -0.356 OA
HETATM   20  C   UNK N   1      -3.020   7.240  -0.392  0.00  0.00     0.210 C 
ENDBRANCH  16  19
ENDBRANCH  10  13
ENDBRANCH   1  10
BRANCH   3  21
HETATM   21  C   UNK N   1      -0.286  -4.307  -0.517  0.00  0.00     0.051 C 
BRANCH  21  22
HETATM   22  C   UNK N   1      -1.807  -4.432  -0.619  0.00  0.00     0.114 C 
BRANCH  22  23
HETATM   23  C   UNK N   1      -2.349  -5.692  -0.022  0.00  0.00     0.139 C 
HETATM   24  O   UNK N   1      -3.556  -5.864   0.018  0.00  0.00    -0.650 OA
BRANCH  23  25
HETATM   25  O   UNK N   1      -1.525  -6.631   0.483  0.00  0.00    -0.776 OA
HETATM   26  H   UNK N   1      -1.804  -7.454   0.834  0.00  0.00     0.167 HD
ENDBRANCH  23  25
ENDBRANCH  22  23
ENDBRANCH  21  22
ENDBRANCH   3  21
BRANCH   6  27
HETATM   27  O   UNK N   1       5.020  -2.713  -0.078  0.00  0.00    -0.356 OA
HETATM   28  C   UNK N   1       5.260  -4.044  -0.341  0.00  0.00     0.210 C 
ENDBRANCH   6  27
TORSDOF 8
