REMARK  2 active torsions:
REMARK  status: ('A' for Active; 'I' for Inactive)
REMARK    1  A    between atoms: C_14  and  C_15 
REMARK    2  A    between atoms: C_16  and  C_17 
ROOT
HETATM    1  C   UNK N   1      -0.951  -0.027   0.283  0.00  0.00     0.044 A 
HETATM    2  C   UNK N   1      -0.944   2.374   0.303  0.00  0.00     0.030 A 
HETATM    3  C   UNK N   1      -2.349   2.341   0.299  0.00  0.00     0.089 A 
HETATM    4  C   UNK N   1      -0.242   1.164   0.298  0.00  0.00    -0.006 A 
HETATM    5  C   UNK N   1      -2.338  -0.039   0.258  0.00  0.00     0.046 A 
HETATM    6  N   UNK N   1      -3.013   1.147   0.265  0.00  0.00    -0.365 N 
ATOM      7  HN  UNK N   1      -4.033   1.142   0.244  1.00  0.00     0.165 HD
ENDROOT
BRANCH   4   8
HETATM    8  C   UNK N   1       1.223   1.073   0.230  0.00  0.00     0.043 A 
HETATM    9  C   UNK N   1       1.901  -0.139   0.218  0.00  0.00     0.049 A 
HETATM   10  C   UNK N   1       3.215   0.199   0.061  0.00  0.00     0.056 A 
HETATM   11  C   UNK N   1       4.375  -0.666  -0.038  0.00  0.00     0.253 A 
HETATM   12  C   UNK N   1       3.299   1.549  -0.017  0.00  0.00     0.027 A 
HETATM   13  N   UNK N   1       5.594  -0.108  -0.239  0.00  0.00    -0.356 N 
HETATM   14  O   UNK N   1       4.259  -1.876   0.049  0.00  0.00    -0.268 OA
HETATM   15  C   UNK N   1       5.824   1.332  -0.368  0.00  0.00     0.129 A 
HETATM   16  H   UNK N   1       6.372  -0.707  -0.303  0.00  0.00     0.162 HD
HETATM   17  C   UNK N   1       4.591   2.269  -0.216  0.00  0.00     0.078 A 
HETATM   18  N   UNK N   1       2.078   2.113   0.088  0.00  0.00    -0.358 N 
HETATM   19  H   UNK N   1       1.857   3.072   0.066  0.00  0.00     0.166 HD
ENDBRANCH   4   8
BRANCH   5  20
HETATM   20  C   UNK N   1      -3.026  -1.353   0.169  0.00  0.00     0.029 A 
HETATM   21  C   UNK N   1      -2.246  -2.527   0.205  0.00  0.00     0.017 A 
HETATM   22  C   UNK N   1      -2.833  -3.785   0.101  0.00  0.00     0.001 A 
HETATM   23  C   UNK N   1      -4.215  -3.893  -0.046  0.00  0.00     0.003 A 
HETATM   24  C   UNK N   1      -5.005  -2.741  -0.086  0.00  0.00     0.043 A 
HETATM   25  C   UNK N   1      -4.422  -1.473   0.022  0.00  0.00     0.128 A 
HETATM   26  F   UNK N   1      -5.217  -0.377  -0.035  0.00  0.00    -0.205 F 
ENDBRANCH   5  20
TORSDOF 2
