REMARK  2 active torsions:
REMARK  status: ('A' for Active; 'I' for Inactive)
REMARK    1  A    between atoms: C_1  and  C_9 
REMARK    2  A    between atoms: C_13  and  O_15 
ROOT
HETATM    1  C   UNK N   1      -0.472  -0.181   0.104  0.00  0.00     0.095 A 
HETATM    2  C   UNK N   1      -0.898  -1.417  -0.138  0.00  0.00     0.101 A 
HETATM    3  C   UNK N   1      -2.306  -1.466  -0.007  0.00  0.00     0.256 A 
HETATM    4  N   UNK N   1      -2.857  -0.303   0.350  0.00  0.00    -0.247 N 
HETATM    5  S   UNK N   1      -1.763   1.075   0.583  0.00  0.00     0.266 S 
HETATM    6  O   UNK N   1      -1.309   1.295  -0.870  0.00  0.00    -0.200 OA
HETATM    7  O   UNK N   1      -2.930   1.798  -0.103  0.00  0.00    -0.200 OA
HETATM    8  O   UNK N   1      -2.969  -2.467  -0.207  0.00  0.00    -0.268 OA
HETATM    9  H   UNK N   1      -3.829  -0.214   0.478  0.00  0.00     0.182 HD
ENDROOT
BRANCH   1  10
HETATM   10  C   UNK N   1       0.986   0.135   0.093  0.00  0.00    -0.010 A 
HETATM   11  C   UNK N   1       1.425   1.460   0.236  0.00  0.00     0.013 A 
HETATM   12  C   UNK N   1       2.790   1.760   0.211  0.00  0.00     0.004 A 
HETATM   13  C   UNK N   1       3.729   0.736   0.063  0.00  0.00     0.036 A 
HETATM   14  C   UNK N   1       3.304  -0.589  -0.065  0.00  0.00     0.066 A 
HETATM   15  C   UNK N   1       1.939  -0.887  -0.061  0.00  0.00     0.049 A 
BRANCH  14  16
HETATM   16  O   UNK N   1       4.206  -1.575  -0.188  0.00  0.00    -0.361 OA
HETATM   17  H   UNK N   1       3.924  -2.465  -0.273  0.00  0.00     0.217 HD
ENDBRANCH  14  16
ENDBRANCH   1  10
TORSDOF 2
