REMARK  5 active torsions:
REMARK  status: ('A' for Active; 'I' for Inactive)
REMARK    1  A    between atoms: C_1  and  O_4 
REMARK    2  A    between atoms: C_5  and  N_8 
REMARK    3  A    between atoms: N_10  and  C_12 
REMARK    4  A    between atoms: C_13  and  N_14 
REMARK    5  A    between atoms: C_18  and  N_19 
ROOT
HETATM    1  C   UNK N   1       0.514  -2.155  -0.000  0.00  0.00     0.138 A 
HETATM    2  C   UNK N   1       1.586  -3.009   0.000  0.00  0.00     0.146 A 
HETATM    3  N   UNK N   1       1.145  -4.284   0.000  0.00  0.00    -0.282 N 
HETATM    4  N   UNK N   1      -0.185  -4.265   0.000  0.00  0.00    -0.282 N 
ATOM      5  HN  UNK N   1      -0.794  -5.083   0.000  1.00  0.00     0.188 HD
HETATM    6  C   UNK N   1      -0.588  -2.980   0.000  0.00  0.00     0.146 A 
HETATM    7  H   UNK N   1       1.710  -5.089   0.000  0.00  0.00     0.188 HD
ENDROOT
BRANCH   1   8
HETATM    8  N   UNK N   1       0.538  -0.739  -0.000  0.00  0.00    -0.293 N 
HETATM    9  N   UNK N   1      -0.534  -0.104  -0.000  0.00  0.00    -0.300 N 
ATOM     10  HN  UNK N   1      -1.411  -0.624  -0.000  1.00  0.00     0.187 HD
ATOM     11  HN  UNK N   1       1.429  -0.242  -0.000  1.00  0.00     0.187 HD
BRANCH   9  12
HETATM   12  C   UNK N   1      -0.579   1.308  -0.000  0.00  0.00     0.048 A 
HETATM   13  C   UNK N   1       0.590   2.084   0.000  0.00  0.00     0.034 A 
HETATM   14  C   UNK N   1       0.499   3.481   0.000  0.00  0.00     0.039 A 
HETATM   15  C   UNK N   1      -0.756   4.100   0.000  0.00  0.00     0.065 A 
HETATM   16  C   UNK N   1      -1.918   3.327  -0.000  0.00  0.00     0.039 A 
HETATM   17  C   UNK N   1      -1.828   1.935  -0.000  0.00  0.00     0.034 A 
BRANCH  15  18
HETATM   18  O   UNK N   1      -0.845   5.440   0.000  0.00  0.00    -0.361 OA
HETATM   19  H   UNK N   1      -0.067   5.961   0.000  0.00  0.00     0.217 HD
ENDBRANCH  15  18
ENDBRANCH   9  12
ENDBRANCH   1   8
BRANCH   2  20
HETATM   20  N   UNK N   1       2.947  -2.644   0.000  0.00  0.00    -0.382 N 
HETATM   21  H   UNK N   1       3.643  -3.339  -0.000  0.00  0.00     0.157 HD
HETATM   22  H   UNK N   1       3.201  -1.693   0.000  0.00  0.00     0.157 HD
ENDBRANCH   2  20
BRANCH   6  23
HETATM   23  N   UNK N   1      -1.939  -2.577   0.000  0.00  0.00    -0.382 N 
HETATM   24  H   UNK N   1      -2.167  -1.619   0.000  0.00  0.00     0.157 HD
HETATM   25  H   UNK N   1      -2.654  -3.254   0.000  0.00  0.00     0.157 HD
ENDBRANCH   6  23
TORSDOF 5
