REMARK  5 active torsions:
REMARK  status: ('A' for Active; 'I' for Inactive)
REMARK    1  A    between atoms: C_2  and  C_5 
REMARK    2  A    between atoms: C_14  and  C_15 
REMARK       I    between atoms: C_15  and  N_17 
REMARK    3  A    between atoms: N_17  and  C_18 
REMARK    4  A    between atoms: C_18  and  C_19 
REMARK    5  A    between atoms: C_19  and  S_20 
ROOT
HETATM    1  C   UNK N   1      -2.320  -1.338   0.038  0.00  0.00     0.145 A 
HETATM    2  C   UNK N   1      -1.498  -0.226   0.020  0.00  0.00     0.034 A 
HETATM    3  C   UNK N   1      -2.336   0.821  -0.078  0.00  0.00     0.104 A 
HETATM    4  N   UNK N   1      -3.606   0.413  -0.124  0.00  0.00    -0.288 N 
HETATM    5  C   UNK N   1      -4.792   1.245  -0.214  0.00  0.00     0.178 C 
HETATM    6  N   UNK N   1      -3.615  -0.916  -0.050  0.00  0.00    -0.293 N 
ATOM      7  HN  UNK N   1      -4.442  -1.513  -0.058  1.00  0.00     0.187 HD
HETATM    8  S   UNK N   1      -1.479   2.218  -0.080  0.00  0.00    -0.065 SA
HETATM    9  C   UNK N   1      -0.119   0.110   0.098  0.00  0.00     0.041 A 
HETATM   10  C   UNK N   1       0.052   1.522   0.056  0.00  0.00     0.075 A 
ENDROOT
BRANCH  10  11
HETATM   11  C   UNK N   1       1.309   2.306   0.172  0.00  0.00     0.258 C 
HETATM   12  O   UNK N   1       1.233   3.524   0.170  0.00  0.00    -0.267 OA
HETATM   13  N   UNK N   1       2.535   1.739   0.308  0.00  0.00    -0.356 N 
HETATM   14  H   UNK N   1       3.304   2.343   0.421  0.00  0.00     0.162 HD
BRANCH  13  15
HETATM   15  C   UNK N   1       2.800   0.323   0.299  0.00  0.00     0.133 C 
BRANCH  15  16
HETATM   16  C   UNK N   1       3.968   0.033  -0.628  0.00  0.00     0.090 C 
BRANCH  16  17
HETATM   17  S   UNK N   1       5.487   0.809   0.008  0.00  0.00    -0.181 SA
HETATM   18  H   UNK N   1       6.556   0.116   0.484  0.00  0.00     0.101 HD
ENDBRANCH  16  17
ENDBRANCH  15  16
ENDBRANCH  13  15
ENDBRANCH  10  11
BRANCH   1  19
HETATM   19  C   UNK N   1      -1.898  -2.767   0.158  0.00  0.00     0.434 C 
HETATM   20  F   UNK N   1      -1.145  -3.123  -0.945  0.00  0.00    -0.165 F 
HETATM   21  F   UNK N   1      -1.140  -2.929   1.302  0.00  0.00    -0.165 F 
HETATM   22  F   UNK N   1      -3.009  -3.587   0.233  0.00  0.00    -0.165 F 
ENDBRANCH   1  19
TORSDOF 5
