REMARK  9 active torsions:
REMARK  status: ('A' for Active; 'I' for Inactive)
REMARK    1  A    between atoms: O_3  and  C_6 
REMARK    2  A    between atoms: C_4  and  O_22 
REMARK    3  A    between atoms: C_7  and  C_10 
REMARK    4  A    between atoms: C_10  and  N_21 
REMARK    5  A    between atoms: C_13  and  C_15 
REMARK    6  A    between atoms: C_13  and  S_19 
REMARK    7  A    between atoms: C_14  and  C_15 
REMARK    8  A    between atoms: C_14  and  C_16 
REMARK       I    between atoms: C_16  and  N_20 
REMARK    9  A    between atoms: C_17  and  N_20 
ROOT
HETATM    1  C   UNK N   1      -0.328  -1.742  -0.749  0.00  0.00     0.275 C 
HETATM    2  C   UNK N   1      -1.570  -0.889  -0.989  0.00  0.00     0.055 C 
HETATM    3  C   UNK N   1       0.350  -0.459   1.110  0.00  0.00     0.275 C 
HETATM    4  C   UNK N   1      -0.846   0.484   1.006  0.00  0.00     0.055 C 
HETATM    5  C   UNK N   1      -2.015  -0.220   0.313  0.00  0.00     0.087 C 
HETATM    6  N   UNK N   1       0.733  -0.884  -0.235  0.00  0.00     0.092 N 
ENDROOT
BRANCH   6   7
HETATM    7  C   UNK N   1       1.955  -1.669  -0.154  0.00  0.00     0.316 C 
BRANCH   7   8
HETATM    8  C   UNK N   1       3.238  -0.853  -0.130  0.00  0.00     0.037 A 
HETATM    9  C   UNK N   1       3.276   0.567  -0.244  0.00  0.00     0.079 A 
HETATM   10  C   UNK N   1       4.515   1.230  -0.195  0.00  0.00     0.037 A 
HETATM   11  C   UNK N   1       5.700   0.518  -0.042  0.00  0.00     0.005 A 
HETATM   12  C   UNK N   1       5.669  -0.869   0.056  0.00  0.00     0.037 A 
HETATM   13  C   UNK N   1       4.449  -1.564   0.013  0.00  0.00     0.079 A 
BRANCH   9  14
HETATM   14  O   UNK N   1       2.133   1.280  -0.403  0.00  0.00    -0.355 OA
HETATM   15  C   UNK N   1       2.095   2.654  -0.501  0.00  0.00     0.210 C 
ENDBRANCH   9  14
BRANCH  13  16
HETATM   16  O   UNK N   1       4.420  -2.918   0.106  0.00  0.00    -0.355 OA
HETATM   17  C   UNK N   1       5.551  -3.694   0.226  0.00  0.00     0.210 C 
ENDBRANCH  13  16
ENDBRANCH   7   8
ENDBRANCH   6   7
BRANCH   5  18
HETATM   18  N   UNK N   1      -3.031   0.756   0.011  0.00  0.00    -0.356 N 
HETATM   19  C   UNK N   1      -4.322   0.595   0.376  0.00  0.00     0.217 C 
HETATM   20  O   UNK N   1      -4.683  -0.416   0.962  0.00  0.00    -0.274 OA
HETATM   21  H   UNK N   1      -2.775   1.570  -0.479  0.00  0.00     0.162 HD
BRANCH  19  22
HETATM   22  C   UNK N   1      -5.310   1.671   0.058  0.00  0.00     0.103 C 
BRANCH  22  23
HETATM   23  C   UNK N   1      -6.351   1.192  -0.941  0.00  0.00     0.019 C 
BRANCH  23  24
HETATM   24  C   UNK N   1      -7.676   0.938  -0.248  0.00  0.00     0.071 C 
BRANCH  24  25
HETATM   25  S   UNK N   1      -7.806  -0.805   0.241  0.00  0.00    -0.182 SA
HETATM   26  H   UNK N   1      -8.986  -1.374   0.607  0.00  0.00     0.101 HD
ENDBRANCH  24  25
ENDBRANCH  23  24
ENDBRANCH  22  23
ENDBRANCH  19  22
ENDBRANCH   5  18
TORSDOF 9
