REMARK  7 active torsions:
REMARK  status: ('A' for Active; 'I' for Inactive)
REMARK    1  A    between atoms: C_5  and  C_6 
REMARK    2  A    between atoms: C_5  and  S_21 
REMARK    3  A    between atoms: C_6  and  C_7 
REMARK    4  A    between atoms: C_7  and  N_20 
REMARK    5  A    between atoms: C_10  and  C_8 
REMARK       I    between atoms: C_8  and  N_20 
REMARK    6  A    between atoms: C_15  and  C_16 
REMARK    7  A    between atoms: C_16  and  N_17 
ROOT
HETATM    1  C   UNK N   1      -0.958   0.024  -0.596  0.00  0.00     0.307 C 
HETATM    2  C   UNK N   1      -0.487   1.462  -0.919  0.00  0.00     0.198 C 
HETATM    3  C   UNK N   1       0.945   0.030   0.916  0.00  0.00     0.292 C 
HETATM    4  C   UNK N   1       1.726   1.030   0.051  0.00  0.00     0.145 C 
HETATM    5  N   UNK N   1       0.033  -0.801   0.114  0.00  0.00     0.096 N 
HETATM    6  N   UNK N   1       0.969   1.489  -1.122  0.00  0.00    -0.406 N 
HETATM    7  H   UNK N   1       1.410   1.794  -1.990  0.00  0.00     0.154 HD
ENDROOT
BRANCH   2   8
HETATM    8  C   UNK N   1      -0.947   2.449   0.151  0.00  0.00     0.241 C 
HETATM    9  O   UNK N   1      -0.126   3.064   0.810  0.00  0.00    -0.271 OA
HETATM   10  N   UNK N   1      -2.268   2.674   0.373  0.00  0.00    -0.359 N 
HETATM   11  H   UNK N   1      -2.533   3.260   1.118  0.00  0.00     0.162 HD
BRANCH  10  12
HETATM   12  C   UNK N   1      -3.294   2.083  -0.447  0.00  0.00     0.123 C 
BRANCH  12  13
HETATM   13  C   UNK N   1      -4.089   1.067   0.339  0.00  0.00     0.029 C 
BRANCH  13  14
HETATM   14  C   UNK N   1      -4.900   0.250  -0.644  0.00  0.00     0.072 C 
BRANCH  14  15
HETATM   15  S   UNK N   1      -6.000  -0.878   0.249  0.00  0.00    -0.182 SA
HETATM   16  H   UNK N   1      -7.146  -0.587   0.920  0.00  0.00     0.101 HD
ENDBRANCH  14  15
ENDBRANCH  13  14
ENDBRANCH  12  13
ENDBRANCH  10  12
ENDBRANCH   2   8
BRANCH   5  17
HETATM   17  C   UNK N   1       0.725  -1.609  -0.901  0.00  0.00     0.311 C 
BRANCH  17  18
HETATM   18  C   UNK N   1       1.988  -2.247  -0.410  0.00  0.00    -0.030 A 
HETATM   19  C   UNK N   1       3.205  -1.830  -0.955  0.00  0.00     0.012 A 
HETATM   20  C   UNK N   1       4.404  -2.383  -0.503  0.00  0.00     0.043 A 
HETATM   21  C   UNK N   1       4.388  -3.360   0.494  0.00  0.00     0.116 A 
HETATM   22  F   UNK N   1       5.554  -3.893   0.932  0.00  0.00    -0.206 F 
HETATM   23  C   UNK N   1       3.171  -3.787   1.038  0.00  0.00     0.043 A 
HETATM   24  C   UNK N   1       1.968  -3.229   0.588  0.00  0.00     0.012 A 
ENDBRANCH  17  18
ENDBRANCH   5  17
TORSDOF 7
