REMARK  3 active torsions:
REMARK  status: ('A' for Active; 'I' for Inactive)
REMARK    1  A    between atoms: N_6  and  S_7 
REMARK    2  A    between atoms: S_7  and  C_10 
REMARK    3  A    between atoms: C_15  and  C_16 
ROOT
HETATM    1  C   UNK N   1      -0.547  -0.100   0.241  0.00  0.00     0.075 A 
HETATM    2  C   UNK N   1       0.733   0.470   0.156  0.00  0.00     0.034 A 
HETATM    3  C   UNK N   1       1.866  -0.317   0.095  0.00  0.00    -0.033 A 
HETATM    4  C   UNK N   1       3.209   0.350   0.021  0.00  0.00     0.153 C 
HETATM    5  N   UNK N   1       4.260  -0.517   0.548  0.00  0.00    -0.411 N 
HETATM    6  C   UNK N   1       4.271  -1.775  -0.199  0.00  0.00     0.109 C 
HETATM    7  C   UNK N   1       2.992  -2.581   0.098  0.00  0.00     0.066 C 
HETATM    8  C   UNK N   1       1.760  -1.719   0.127  0.00  0.00    -0.048 A 
HETATM    9  C   UNK N   1       0.481  -2.304   0.227  0.00  0.00     0.009 A 
HETATM   10  C   UNK N   1      -0.669  -1.498   0.289  0.00  0.00     0.025 A 
HETATM   11  H   UNK N   1       4.888  -0.281   1.317  0.00  0.00     0.154 HD
ENDROOT
BRANCH   1  12
HETATM   12  S   UNK N   1      -1.953   1.018   0.422  0.00  0.00     0.243 S 
HETATM   13  O   UNK N   1      -1.619   1.153  -1.074  0.00  0.00    -0.206 OA
HETATM   14  O   UNK N   1      -1.353   2.420   0.628  0.00  0.00    -0.206 OA
BRANCH  12  15
HETATM   15  N   UNK N   1      -3.576   1.341  -0.236  0.00  0.00    -0.205 NA
HETATM   16  C   UNK N   1      -4.507   0.299   0.190  0.00  0.00     0.117 C 
HETATM   17  C   UNK N   1      -5.860   0.514  -0.490  0.00  0.00     0.089 C 
HETATM   18  S   UNK N   1      -6.656   2.013   0.178  0.00  0.00    -0.167 SA
HETATM   19  C   UNK N   1      -5.299   3.082  -0.383  0.00  0.00     0.089 C 
HETATM   20  C   UNK N   1      -4.024   2.630   0.304  0.00  0.00     0.117 C 
ENDBRANCH  12  15
ENDBRANCH   1  12
BRANCH   6  21
HETATM   21  C   UNK N   1       5.487  -2.585   0.211  0.00  0.00     0.247 C 
HETATM   22  F   UNK N   1       6.645  -1.866  -0.034  0.00  0.00    -0.253 F 
ENDBRANCH   6  21
TORSDOF 3
