REMARK  7 active torsions:
REMARK  status: ('A' for Active; 'I' for Inactive)
REMARK    1  A    between atoms: N_3  and  C_4 
REMARK    2  A    between atoms: C_4  and  C_5 
REMARK    3  A    between atoms: C_12  and  C_30 
REMARK    4  A    between atoms: C_19  and  C_20 
REMARK    5  A    between atoms: C_23  and  C_26 
REMARK    6  A    between atoms: C_26  and  N_27 
REMARK    7  A    between atoms: C_26  and  N_28 
ROOT
HETATM    1  O   UNK N   1      -1.189   0.107   0.253  0.00  0.00    -0.273 OA
HETATM    2  C   UNK N   1      -0.622  -0.968   0.315  0.00  0.00     0.227 C 
HETATM    3  N   UNK N   1      -1.145  -2.117  -0.158  0.00  0.00    -0.337 N 
HETATM    4  C   UNK N   1      -0.181  -3.184  -0.132  0.00  0.00     0.159 C 
HETATM    5  C   UNK N   1       0.992  -2.636   0.749  0.00  0.00     0.063 C 
HETATM    6  C   UNK N   1       2.335  -2.641  -0.001  0.00  0.00     0.231 C 
HETATM    7  N   UNK N   1       2.502  -1.302  -0.577  0.00  0.00     0.103 N 
HETATM    8  C   UNK N   1       3.956  -1.113  -0.672  0.00  0.00     0.274 C 
HETATM    9  C   UNK N   1       4.639  -2.156   0.208  0.00  0.00     0.032 C 
HETATM   10  C   UNK N   1       3.512  -2.842   0.937  0.00  0.00     0.038 C 
HETATM   11  C   UNK N   1       1.937  -0.417   0.462  0.00  0.00     0.270 C 
HETATM   12  C   UNK N   1       0.696  -1.143   0.991  0.00  0.00     0.124 C 
ENDROOT
BRANCH  11  13
HETATM   13  C   UNK N   1       1.725   1.022   0.047  0.00  0.00    -0.024 A 
HETATM   14  C   UNK N   1       1.130   1.914   0.952  0.00  0.00     0.010 A 
HETATM   15  C   UNK N   1       0.924   3.248   0.600  0.00  0.00     0.011 A 
HETATM   16  C   UNK N   1       1.342   3.717  -0.651  0.00  0.00    -0.017 A 
HETATM   17  C   UNK N   1       1.959   2.839  -1.550  0.00  0.00     0.011 A 
HETATM   18  C   UNK N   1       2.142   1.494  -1.207  0.00  0.00     0.010 A 
BRANCH  16  19
HETATM   19  C   UNK N   1       1.122   5.143  -1.042  0.00  0.00     0.202 C 
BRANCH  19  20
HETATM   20  N   UNK N   1      -0.300   5.425  -1.131  0.00  0.00    -0.407 N 
HETATM   21  H   UNK N   1      -0.628   6.388  -1.194  0.00  0.00     0.152 HD
HETATM   22  H   UNK N   1      -0.972   4.657  -1.131  0.00  0.00     0.152 HD
ENDBRANCH  19  20
BRANCH  19  23
HETATM   23  N   UNK N   1       1.735   6.035  -0.070  0.00  0.00    -0.407 N 
HETATM   24  H   UNK N   1       2.492   5.975   0.611  0.00  0.00     0.152 HD
HETATM   25  H   UNK N   1       1.296   6.955  -0.070  0.00  0.00     0.152 HD
ENDBRANCH  19  23
ENDBRANCH  16  19
ENDBRANCH  11  13
BRANCH   3  26
HETATM   26  C   UNK N   1      -2.488  -2.312  -0.718  0.00  0.00     0.165 C 
BRANCH  26  27
HETATM   27  C   UNK N   1      -3.522  -1.244  -0.457  0.00  0.00    -0.040 A 
HETATM   28  C   UNK N   1      -4.354  -0.850  -1.510  0.00  0.00     0.012 A 
HETATM   29  C   UNK N   1      -5.325   0.136  -1.314  0.00  0.00     0.043 A 
HETATM   30  C   UNK N   1      -5.465   0.743  -0.063  0.00  0.00     0.116 A 
HETATM   31  F   UNK N   1      -6.377   1.730   0.111  0.00  0.00    -0.206 F 
HETATM   32  C   UNK N   1      -4.662   0.332   1.005  0.00  0.00     0.043 A 
HETATM   33  C   UNK N   1      -3.709  -0.676   0.817  0.00  0.00     0.012 A 
ENDBRANCH  26  27
ENDBRANCH   3  26
BRANCH   4  34
HETATM   34  C   UNK N   1      -0.717  -4.505   0.439  0.00  0.00     0.376 C 
HETATM   35  F   UNK N   1       0.305  -5.439   0.471  0.00  0.00    -0.212 F 
HETATM   36  F   UNK N   1      -1.731  -5.004  -0.358  0.00  0.00    -0.212 F 
ENDBRANCH   4  34
TORSDOF 7
