REMARK  5 active torsions:
REMARK  status: ('A' for Active; 'I' for Inactive)
REMARK    1  A    between atoms: C_3  and  S_11 
REMARK    2  A    between atoms: C_6  and  C_7 
REMARK       I    between atoms: C_7  and  N_9 
REMARK    3  A    between atoms: N_9  and  C_10 
REMARK    4  A    between atoms: C_10  and  C_15 
REMARK    5  A    between atoms: S_11  and  N_12 
ROOT
HETATM    1  C   UNK N   1      -1.585  -0.614  -0.036  0.00  0.00     0.251 C 
HETATM    2  O   UNK N   1      -1.973  -0.207  -1.122  0.00  0.00    -0.268 OA
HETATM    3  N   UNK N   1      -2.186  -0.192   1.109  0.00  0.00    -0.353 N 
HETATM    4  H   UNK N   1      -1.922  -0.599   1.965  0.00  0.00     0.163 HD
ENDROOT
BRANCH   1   5
HETATM    5  C   UNK N   1      -0.355  -1.422   0.047  0.00  0.00     0.032 A 
HETATM    6  C   UNK N   1       0.465  -1.541  -1.081  0.00  0.00     0.018 A 
HETATM    7  C   UNK N   1       1.702  -2.177  -0.986  0.00  0.00     0.026 A 
HETATM    8  C   UNK N   1       2.138  -2.732   0.247  0.00  0.00     0.079 A 
HETATM    9  C   UNK N   1       1.296  -2.620   1.362  0.00  0.00     0.026 A 
HETATM   10  C   UNK N   1       0.067  -1.961   1.268  0.00  0.00     0.018 A 
BRANCH   8  11
HETATM   11  S   UNK N   1       3.775  -3.530   0.514  0.00  0.00     0.256 S 
HETATM   12  O   UNK N   1       4.244  -2.393  -0.409  0.00  0.00    -0.201 OA
HETATM   13  O   UNK N   1       2.993  -4.382  -0.500  0.00  0.00    -0.201 OA
BRANCH  11  14
HETATM   14  N   UNK N   1       4.976  -4.428  -0.414  0.00  0.00    -0.324 N 
HETATM   15  H   UNK N   1       4.874  -5.290  -0.950  0.00  0.00     0.169 HD
HETATM   16  H   UNK N   1       5.914  -4.026  -0.414  0.00  0.00     0.169 HD
ENDBRANCH  11  14
ENDBRANCH   8  11
ENDBRANCH   1   5
BRANCH   3  17
HETATM   17  C   UNK N   1      -3.201   0.839   1.105  0.00  0.00     0.164 C 
BRANCH  17  18
HETATM   18  C   UNK N   1      -2.674   2.153   0.561  0.00  0.00     0.001 A 
HETATM   19  C   UNK N   1      -3.596   3.048   0.009  0.00  0.00     0.012 A 
HETATM   20  C   UNK N   1      -3.169   4.257  -0.548  0.00  0.00     0.004 A 
HETATM   21  C   UNK N   1      -1.810   4.577  -0.569  0.00  0.00     0.045 A 
HETATM   22  C   UNK N   1      -0.876   3.699  -0.019  0.00  0.00     0.155 A 
HETATM   23  C   UNK N   1      -1.296   2.495   0.555  0.00  0.00     0.162 A 
HETATM   24  F   UNK N   1       0.443   4.013  -0.049  0.00  0.00    -0.203 F 
HETATM   25  F   UNK N   1      -0.358   1.671   1.089  0.00  0.00    -0.202 F 
ENDBRANCH  17  18
ENDBRANCH   3  17
TORSDOF 5
