REMARK  6 active torsions:
REMARK  status: ('A' for Active; 'I' for Inactive)
REMARK    1  A    between atoms: C_6  and  C_7 
REMARK    2  A    between atoms: C_8  and  C_9 
REMARK    3  A    between atoms: C_13  and  C_14 
REMARK    4  A    between atoms: C_14  and  S_16 
REMARK    5  A    between atoms: S_16  and  C_17 
REMARK    6  A    between atoms: C_19  and  C_20 
ROOT
HETATM    1  C   UNK N   1       0.167  -2.268   0.704  0.00  0.00     0.250 C 
HETATM    2  O   UNK N   1      -0.175  -3.084   1.547  0.00  0.00    -0.277 OA
ENDROOT
BRANCH   1   3
HETATM    3  C   UNK N   1      -0.768  -1.725  -0.281  0.00  0.00     0.134 C 
HETATM    4  O   UNK N   1      -0.430  -0.558  -0.687  0.00  0.00    -0.297 OA
HETATM    5  C   UNK N   1      -1.466   0.170  -0.801  0.00  0.00     0.129 C 
HETATM    6  C   UNK N   1      -2.615  -0.579  -0.647  0.00  0.00     0.049 C 
HETATM    7  C   UNK N   1      -2.156  -1.847  -0.284  0.00  0.00     0.045 C 
BRANCH   5   8
HETATM    8  C   UNK N   1      -1.306   1.483  -0.291  0.00  0.00    -0.036 C 
HETATM    9  C   UNK N   1      -0.962   2.552   0.124  0.00  0.00    -0.059 C 
BRANCH   9  10
HETATM   10  C   UNK N   1      -0.515   3.804   0.609  0.00  0.00     0.018 C 
HETATM   11  C   UNK N   1      -1.496   4.778   0.719  0.00  0.00     0.020 C 
HETATM   12  C   UNK N   1      -1.173   6.102   0.447  0.00  0.00     0.001 C 
HETATM   13  C   UNK N   1       0.133   6.441   0.079  0.00  0.00     0.000 C 
HETATM   14  C   UNK N   1       1.147   5.476   0.122  0.00  0.00     0.001 C 
HETATM   15  C   UNK N   1       0.822   4.144   0.379  0.00  0.00     0.020 C 
ENDBRANCH   9  10
ENDBRANCH   5   8
ENDBRANCH   1   3
BRANCH   1  16
HETATM   16  S   UNK N   1       1.664  -1.233   0.955  0.00  0.00    -0.008 SA
BRANCH  16  17
HETATM   17  C   UNK N   1       2.764  -2.284   0.047  0.00  0.00     0.168 A 
HETATM   18  N   UNK N   1       4.062  -2.430   0.372  0.00  0.00    -0.317 N 
HETATM   19  C   UNK N   1       4.381  -3.598  -0.215  0.00  0.00     0.207 A 
HETATM   20  H   UNK N   1       4.634  -1.832   0.906  0.00  0.00     0.169 HD
HETATM   21  N   UNK N   1       3.333  -4.130  -0.863  0.00  0.00    -0.280 N 
HETATM   22  N   UNK N   1       2.322  -3.304  -0.703  0.00  0.00    -0.278 N 
ATOM     23  HN  UNK N   1       3.323  -5.008  -1.382  1.00  0.00     0.188 HD
ATOM     24  HN  UNK N   1       1.380  -3.419  -1.078  1.00  0.00     0.189 HD
BRANCH  19  25
HETATM   25  C   UNK N   1       5.620  -4.373   0.060  0.00  0.00     0.450 C 
HETATM   26  F   UNK N   1       6.102  -4.911  -1.118  0.00  0.00    -0.163 F 
HETATM   27  F   UNK N   1       5.281  -5.405   0.917  0.00  0.00    -0.163 F 
HETATM   28  F   UNK N   1       6.582  -3.590   0.671  0.00  0.00    -0.163 F 
ENDBRANCH  19  25
ENDBRANCH  16  17
ENDBRANCH   1  16
TORSDOF 6
