REMARK  8 active torsions:
REMARK  status: ('A' for Active; 'I' for Inactive)
REMARK    1  A    between atoms: C_1  and  O_7 
REMARK    2  A    between atoms: C_4  and  C_12 
REMARK    3  A    between atoms: O_7  and  C_8 
REMARK       I    between atoms: C_12  and  N_13 
REMARK    4  A    between atoms: N_13  and  C_15 
REMARK    5  A    between atoms: C_15  and  C_16 
REMARK    6  A    between atoms: C_16  and  O_17 
REMARK    7  A    between atoms: O_17  and  P_18 
REMARK    8  A    between atoms: P_18  and  O_21 
ROOT
HETATM    1  P   UNK N   1       5.287  -0.288   0.188  0.00  0.00     0.390 P 
HETATM    2  O   UNK N   1       5.193  -0.347  -1.545  0.00  0.00    -0.307 OA
HETATM    3  O   UNK N   1       6.267  -1.411   0.616  0.00  0.00    -0.632 OA
HETATM    4  H   UNK N   1       5.138  -0.318  -2.513  0.00  0.00     0.222 HD
ENDROOT
BRANCH   1   5
HETATM    5  O   UNK N   1       3.763  -0.656   0.938  0.00  0.00    -0.295 OA
BRANCH   5   6
HETATM    6  C   UNK N   1       2.863   0.306   0.470  0.00  0.00     0.200 C 
BRANCH   6   7
HETATM    7  C   UNK N   1       2.171  -0.164  -0.804  0.00  0.00     0.149 C 
BRANCH   7   8
HETATM    8  N   UNK N   1       1.815  -1.560  -0.705  0.00  0.00    -0.355 N 
HETATM    9  C   UNK N   1       0.556  -2.037  -0.520  0.00  0.00     0.251 C 
HETATM   10  O   UNK N   1       0.394  -3.249  -0.527  0.00  0.00    -0.268 OA
HETATM   11  H   UNK N   1       2.543  -2.219  -0.778  0.00  0.00     0.162 HD
BRANCH   9  12
HETATM   12  C   UNK N   1      -0.638  -1.161  -0.315  0.00  0.00     0.032 A 
HETATM   13  C   UNK N   1      -0.531   0.231  -0.163  0.00  0.00     0.020 A 
HETATM   14  C   UNK N   1      -1.668   1.021   0.014  0.00  0.00     0.038 A 
HETATM   15  C   UNK N   1      -2.935   0.437   0.027  0.00  0.00     0.078 A 
HETATM   16  C   UNK N   1      -3.050  -0.956  -0.110  0.00  0.00     0.038 A 
HETATM   17  C   UNK N   1      -1.911  -1.746  -0.269  0.00  0.00     0.020 A 
BRANCH  15  18
HETATM   18  O   UNK N   1      -4.024   1.234   0.155  0.00  0.00    -0.255 OA
BRANCH  18  19
HETATM   19  C   UNK N   1      -5.321   0.833  -0.102  0.00  0.00     0.530 C 
HETATM   20  F   UNK N   1      -5.440   0.474  -1.434  0.00  0.00    -0.144 F 
HETATM   21  F   UNK N   1      -5.674  -0.237   0.703  0.00  0.00    -0.144 F 
HETATM   22  F   UNK N   1      -6.177   1.886   0.154  0.00  0.00    -0.144 F 
ENDBRANCH  18  19
ENDBRANCH  15  18
ENDBRANCH   9  12
ENDBRANCH   7   8
ENDBRANCH   6   7
ENDBRANCH   5   6
ENDBRANCH   1   5
BRANCH   1  23
HETATM   23  O   UNK N   1       5.953   1.209   0.760  0.00  0.00    -0.307 OA
HETATM   24  H   UNK N   1       6.863   1.305   1.081  0.00  0.00     0.222 HD
ENDBRANCH   1  23
TORSDOF 8
