REMARK  10 active torsions:
REMARK  status: ('A' for Active; 'I' for Inactive)
REMARK    1  A    between atoms: C_1  and  O_7 
REMARK    2  A    between atoms: C_4  and  S_12 
REMARK    3  A    between atoms: O_7  and  C_8 
REMARK    4  A    between atoms: S_12  and  N_13 
REMARK    5  A    between atoms: N_13  and  C_14 
REMARK    6  A    between atoms: C_14  and  C_15 
REMARK    7  A    between atoms: C_15  and  O_16 
REMARK    8  A    between atoms: O_16  and  P_17 
REMARK    9  A    between atoms: P_17  and  O_18 
REMARK   10  A    between atoms: P_17  and  O_20 
ROOT
HETATM    1  S   UNK N   1      -0.363   1.908   0.257  0.00  0.00     0.258 S 
HETATM    2  O   UNK N   1      -0.773   2.956   1.302  0.00  0.00    -0.201 OA
HETATM    3  O   UNK N   1      -0.185   2.781  -0.996  0.00  0.00    -0.201 OA
ENDROOT
BRANCH   1   4
HETATM    4  C   UNK N   1      -1.633   0.650   0.137  0.00  0.00     0.079 A 
HETATM    5  C   UNK N   1      -2.969   1.003   0.336  0.00  0.00     0.028 A 
HETATM    6  C   UNK N   1      -3.965   0.025   0.312  0.00  0.00     0.038 A 
HETATM    7  C   UNK N   1      -3.641  -1.316   0.087  0.00  0.00     0.078 A 
HETATM    8  C   UNK N   1      -2.293  -1.666  -0.124  0.00  0.00     0.038 A 
HETATM    9  C   UNK N   1      -1.294  -0.686  -0.098  0.00  0.00     0.028 A 
BRANCH   7  10
HETATM   10  O   UNK N   1      -4.642  -2.235   0.128  0.00  0.00    -0.255 OA
BRANCH  10  11
HETATM   11  C   UNK N   1      -4.585  -3.590  -0.167  0.00  0.00     0.530 C 
HETATM   12  F   UNK N   1      -4.711  -4.310   1.005  0.00  0.00    -0.144 F 
HETATM   13  F   UNK N   1      -3.412  -3.959  -0.802  0.00  0.00    -0.144 F 
HETATM   14  F   UNK N   1      -5.645  -3.906  -0.995  0.00  0.00    -0.144 F 
ENDBRANCH  10  11
ENDBRANCH   7  10
ENDBRANCH   1   4
BRANCH   1  15
HETATM   15  N   UNK N   1       1.251   1.423   0.800  0.00  0.00    -0.313 N 
HETATM   16  H   UNK N   1       1.561   1.389   1.771  0.00  0.00     0.172 HD
BRANCH  15  17
HETATM   17  C   UNK N   1       2.065   1.081  -0.354  0.00  0.00     0.159 C 
BRANCH  17  18
HETATM   18  C   UNK N   1       3.137   0.099   0.080  0.00  0.00     0.200 C 
BRANCH  18  19
HETATM   19  O   UNK N   1       4.303   0.293  -0.667  0.00  0.00    -0.295 OA
BRANCH  19  20
HETATM   20  P   UNK N   1       5.550   0.539   0.522  0.00  0.00     0.390 P 
HETATM   21  O   UNK N   1       6.092  -0.686  -0.263  0.00  0.00    -0.632 OA
BRANCH  20  22
HETATM   22  O   UNK N   1       7.137   1.062   0.056  0.00  0.00    -0.307 OA
HETATM   23  H   UNK N   1       7.835   0.440  -0.205  0.00  0.00     0.222 HD
ENDBRANCH  20  22
BRANCH  20  24
HETATM   24  O   UNK N   1       5.466   1.915  -0.534  0.00  0.00    -0.307 OA
HETATM   25  H   UNK N   1       6.108   2.340  -1.123  0.00  0.00     0.222 HD
ENDBRANCH  20  24
ENDBRANCH  19  20
ENDBRANCH  18  19
ENDBRANCH  17  18
ENDBRANCH  15  17
ENDBRANCH   1  15
TORSDOF 10
