REMARK  9 active torsions:
REMARK  status: ('A' for Active; 'I' for Inactive)
REMARK    1  A    between atoms: C_1  and  O_22 
REMARK    2  A    between atoms: C_1  and  C_27 
REMARK       I    between atoms: C_5  and  N_24 
REMARK    3  A    between atoms: C_6  and  N_23 
REMARK    4  A    between atoms: C_13  and  N_23 
REMARK    5  A    between atoms: C_18  and  N_24 
REMARK    6  A    between atoms: C_19  and  O_22 
REMARK    7  A    between atoms: C_27  and  C_28 
REMARK    8  A    between atoms: C_27  and  O_32 
REMARK    9  A    between atoms: C_28  and  N_29 
ROOT
HETATM    1  N   UNK N   1      -5.161   0.626   0.168  0.00  0.00    -0.202 N 
ATOM      2  HN  UNK N   1      -6.069   0.202   0.358  1.00  0.00     0.183 HD
HETATM    3  C   UNK N   1      -5.084   1.947  -0.154  0.00  0.00     0.110 A 
HETATM    4  C   UNK N   1      -4.037  -0.129   0.237  0.00  0.00     0.684 A 
HETATM    5  C   UNK N   1      -2.695   1.740  -0.328  0.00  0.00     0.122 A 
HETATM    6  C   UNK N   1      -3.842   2.535  -0.401  0.00  0.00     0.066 A 
HETATM    7  N   UNK N   1      -2.826   0.429  -0.029  0.00  0.00    -0.176 N 
ATOM      8  HN  UNK N   1      -1.993  -0.159  -0.002  1.00  0.00     0.186 HD
HETATM    9  N   UNK N   1      -4.123  -1.523   0.499  0.00  0.00    -0.192 N 
HETATM   10  H   UNK N   1      -4.997  -1.933   0.693  0.00  0.00     0.184 HD
ENDROOT
BRANCH   9  11
HETATM   11  C   UNK N   1      -2.955  -2.324   0.483  0.00  0.00     0.049 A 
HETATM   12  C   UNK N   1      -2.926  -3.456  -0.332  0.00  0.00     0.033 A 
HETATM   13  C   UNK N   1      -1.723  -4.130  -0.553  0.00  0.00     0.039 A 
HETATM   14  C   UNK N   1      -0.541  -3.680   0.046  0.00  0.00     0.069 A 
HETATM   15  C   UNK N   1      -0.581  -2.570   0.906  0.00  0.00     0.039 A 
HETATM   16  C   UNK N   1      -1.777  -1.889   1.111  0.00  0.00     0.033 A 
BRANCH  14  17
HETATM   17  O   UNK N   1       0.622  -4.310  -0.233  0.00  0.00    -0.349 OA
BRANCH  17  18
HETATM   18  C   UNK N   1       1.795  -4.030   0.434  0.00  0.00     0.209 C 
BRANCH  18  19
HETATM   19  C   UNK N   1       2.650  -3.003  -0.293  0.00  0.00     0.170 C 
BRANCH  19  20
HETATM   20  C   UNK N   1       3.877  -2.783   0.581  0.00  0.00     0.305 C 
BRANCH  20  21
HETATM   21  N   UNK N   1       4.919  -2.051  -0.116  0.00  0.00     0.082 N 
HETATM   22  C   UNK N   1       5.214  -0.867   0.669  0.00  0.00     0.309 C 
HETATM   23  C   UNK N   1       6.101  -2.892  -0.063  0.00  0.00     0.309 C 
ENDBRANCH  20  21
ENDBRANCH  19  20
BRANCH  19  24
HETATM   24  O   UNK N   1       3.025  -3.498  -1.544  0.00  0.00    -0.392 OA
HETATM   25  H   UNK N   1       2.857  -3.896  -2.413  0.00  0.00     0.210 HD
ENDBRANCH  19  24
ENDBRANCH  18  19
ENDBRANCH  17  18
ENDBRANCH  14  17
ENDBRANCH   9  11
BRANCH   5  26
HETATM   26  N   UNK N   1      -1.382   2.261  -0.495  0.00  0.00    -0.341 N 
HETATM   27  H   UNK N   1      -0.681   1.631  -0.779  0.00  0.00     0.167 HD
BRANCH  26  28
HETATM   28  C   UNK N   1      -0.992   3.613  -0.287  0.00  0.00     0.057 A 
HETATM   29  C   UNK N   1       0.368   3.963  -0.359  0.00  0.00     0.060 A 
HETATM   30  C   UNK N   1       0.766   5.276  -0.083  0.00  0.00     0.028 A 
HETATM   31 Cl   UNK N   1       1.592   2.766  -0.756  0.00  0.00    -0.082 Cl
HETATM   32  C   UNK N   1      -0.183   6.241   0.265  0.00  0.00     0.026 A 
HETATM   33  C   UNK N   1      -1.534   5.895   0.336  0.00  0.00     0.036 A 
HETATM   34  C   UNK N   1      -1.931   4.590   0.067  0.00  0.00     0.055 A 
HETATM   35 Cl   UNK N   1      -2.734   7.087   0.780  0.00  0.00    -0.084 Cl
ENDBRANCH  26  28
ENDBRANCH   5  26
TORSDOF 9
