REMARK  14 active torsions:
REMARK  status: ('A' for Active; 'I' for Inactive)
REMARK    1  A    between atoms: P_1  and  O_3 
REMARK    2  A    between atoms: P_1  and  O_4 
REMARK    3  A    between atoms: P_1  and  O_5 
REMARK    4  A    between atoms: P_2  and  O_4 
REMARK    5  A    between atoms: P_2  and  O_7 
REMARK    6  A    between atoms: P_2  and  O_8 
REMARK    7  A    between atoms: O_3  and  C_22 
REMARK    8  A    between atoms: C_10  and  C_11 
REMARK    9  A    between atoms: C_10  and  C_14 
REMARK   10  A    between atoms: C_11  and  C_16 
REMARK   11  A    between atoms: C_12  and  C_13 
REMARK   12  A    between atoms: C_12  and  C_15 
REMARK   13  A    between atoms: C_15  and  C_18 
REMARK   14  A    between atoms: C_19  and  C_22 
ROOT
HETATM    1  C   UNK N   1       7.887  -0.481   0.155  0.00  0.00    -0.085 C 
HETATM    2  C   UNK N   1       8.659  -0.934  -0.842  0.00  0.00     0.002 C 
HETATM    3  C   UNK N   1       8.015   0.918   0.667  0.00  0.00     0.043 C 
ENDROOT
BRANCH   2   4
HETATM    4  C   UNK N   1       9.703  -0.093  -1.501  0.00  0.00     0.208 C 
BRANCH   4   5
HETATM    5  O   UNK N   1      10.896  -0.811  -1.574  0.00  0.00    -0.293 OA
BRANCH   5   6
HETATM    6  P   UNK N   1      11.940  -0.162  -0.341  0.00  0.00     0.402 P 
HETATM    7  O   UNK N   1      11.737  -1.036   0.930  0.00  0.00    -0.631 OA
BRANCH   6   8
HETATM    8  O   UNK N   1      13.592  -0.330  -0.871  0.00  0.00    -0.195 OA
BRANCH   8   9
HETATM    9  P   UNK N   1      14.601  -0.185   0.537  0.00  0.00     0.399 P 
HETATM   10  O   UNK N   1      14.975  -1.573  -0.044  0.00  0.00    -0.631 OA
BRANCH   9  11
HETATM   11  O   UNK N   1      16.320  -0.079   0.310  0.00  0.00    -0.307 OA
HETATM   12  H   UNK N   1      16.691   0.075   1.215  0.00  0.00     0.222 HD
ENDBRANCH   9  11
BRANCH   9  13
HETATM   13  O   UNK N   1      14.960   1.107  -0.568  0.00  0.00    -0.307 OA
HETATM   14  H   UNK N   1      14.633   1.927  -0.116  0.00  0.00     0.222 HD
ENDBRANCH   9  13
ENDBRANCH   8   9
ENDBRANCH   6   8
BRANCH   6  15
HETATM   15  O   UNK N   1      11.570   1.493   0.050  0.00  0.00    -0.307 OA
HETATM   16  H   UNK N   1      10.935   1.447   0.808  0.00  0.00     0.222 HD
ENDBRANCH   6  15
ENDBRANCH   5   6
ENDBRANCH   4   5
ENDBRANCH   2   4
BRANCH   1  17
HETATM   17  C   UNK N   1       6.863  -1.383   0.766  0.00  0.00     0.037 C 
BRANCH  17  18
HETATM   18  C   UNK N   1       5.889  -1.870  -0.296  0.00  0.00     0.031 C 
BRANCH  18  19
HETATM   19  C   UNK N   1       4.471  -1.751   0.165  0.00  0.00    -0.024 C 
HETATM   20  C   UNK N   1       3.837  -0.578   0.297  0.00  0.00    -0.087 C 
HETATM   21  C   UNK N   1       4.514   0.724  -0.006  0.00  0.00     0.043 C 
BRANCH  20  22
HETATM   22  C   UNK N   1       2.411  -0.586   0.730  0.00  0.00     0.037 C 
BRANCH  22  23
HETATM   23  C   UNK N   1       1.532  -0.040  -0.380  0.00  0.00     0.031 C 
BRANCH  23  24
HETATM   24  C   UNK N   1       0.144  -0.569  -0.221  0.00  0.00    -0.024 C 
HETATM   25  C   UNK N   1      -0.916   0.225  -0.036  0.00  0.00    -0.091 C 
HETATM   26  C   UNK N   1      -2.264  -0.390   0.106  0.00  0.00     0.042 C 
HETATM   27  C   UNK N   1      -0.781   1.712   0.033  0.00  0.00     0.042 C 
ENDBRANCH  23  24
ENDBRANCH  22  23
ENDBRANCH  20  22
ENDBRANCH  18  19
ENDBRANCH  17  18
ENDBRANCH   1  17
TORSDOF 14
