REMARK  4 active torsions:
REMARK  status: ('A' for Active; 'I' for Inactive)
REMARK    1  A    between atoms: C_1  and  C_17 
REMARK    2  A    between atoms: C_12  and  O_13 
REMARK    3  A    between atoms: C_17  and  C_18 
REMARK    4  A    between atoms: C_18  and  C_19 
ROOT
HETATM    1  C   UNK N   1       3.551  -0.485   0.492  0.00  0.00    -0.007 C 
HETATM    2  C   UNK N   1       4.646  -0.730   1.523  0.00  0.00     0.022 C 
HETATM    3  C   UNK N   1       5.810  -1.517   0.881  0.00  0.00     0.085 C 
HETATM    4  C   UNK N   1       5.331  -2.681   0.035  0.00  0.00     0.167 C 
HETATM    5  O   UNK N   1       6.133  -3.532  -0.313  0.00  0.00    -0.292 OA
HETATM    6  C   UNK N   1       3.887  -2.842  -0.287  0.00  0.00     0.064 C 
HETATM    7 Br   UNK N   1       3.272  -4.537  -0.959  0.00  0.00    -0.046 Br
HETATM    8  C   UNK N   1       3.048  -1.820  -0.003  0.00  0.00    -0.017 C 
HETATM    9  C   UNK N   1       1.603  -1.791  -0.065  0.00  0.00    -0.021 A 
HETATM   10  C   UNK N   1       0.708  -2.730  -0.586  0.00  0.00     0.015 A 
HETATM   11  C   UNK N   1      -0.667  -2.464  -0.508  0.00  0.00     0.037 A 
HETATM   12  C   UNK N   1      -1.124  -1.278   0.096  0.00  0.00     0.066 A 
HETATM   13  C   UNK N   1      -0.206  -0.361   0.631  0.00  0.00     0.044 A 
HETATM   14  C   UNK N   1       1.157  -0.642   0.532  0.00  0.00    -0.044 A 
HETATM   15  C   UNK N   1       2.275   0.193   1.080  0.00  0.00     0.054 C 
ENDROOT
BRANCH   1  16
HETATM   16  C   UNK N   1       4.155   0.327  -0.685  0.00  0.00     0.015 C 
BRANCH  16  17
HETATM   17  C   UNK N   1       3.260   1.413  -1.272  0.00  0.00     0.001 C 
BRANCH  17  18
HETATM   18  C   UNK N   1       3.452   2.686  -0.465  0.00  0.00    -0.005 C 
HETATM   19  C   UNK N   1       2.150   3.453  -0.386  0.00  0.00     0.005 C 
ENDBRANCH  17  18
ENDBRANCH  16  17
ENDBRANCH   1  16
BRANCH  12  20
HETATM   20  O   UNK N   1      -2.441  -1.027   0.166  0.00  0.00    -0.361 OA
HETATM   21  H   UNK N   1      -2.748  -0.143   0.214  0.00  0.00     0.217 HD
ENDBRANCH  12  20
TORSDOF 4
