REMARK  4 active torsions:
REMARK  status: ('A' for Active; 'I' for Inactive)
REMARK    1  A    between atoms: C_2  and  C_3 
REMARK    2  A    between atoms: C_3  and  O_4 
REMARK    3  A    between atoms: C_7  and  C_9 
REMARK    4  A    between atoms: C_10  and  C_15 
ROOT
HETATM    1  C   UNK N   1       0.362   0.622  -0.002  0.00  0.00     0.013 A 
HETATM    2  C   UNK N   1      -0.796   1.449   0.135  0.00  0.00     0.060 A 
HETATM    3  C   UNK N   1      -0.625   2.839   0.259  0.00  0.00     0.017 A 
HETATM    4  C   UNK N   1       0.643   3.415   0.243  0.00  0.00     0.001 A 
HETATM    5  C   UNK N   1       1.770   2.609   0.120  0.00  0.00     0.001 A 
HETATM    6  C   UNK N   1       1.629   1.227   0.006  0.00  0.00     0.015 A 
ENDROOT
BRANCH   1   7
HETATM    7  C   UNK N   1       0.335  -0.860  -0.121  0.00  0.00     0.087 A 
HETATM    8  O   UNK N   1       1.404  -1.603   0.043  0.00  0.00    -0.303 OA
HETATM    9  C   UNK N   1       1.073  -2.862  -0.090  0.00  0.00     0.149 A 
HETATM   10  C   UNK N   1      -0.274  -2.972  -0.374  0.00  0.00     0.047 A 
HETATM   11  C   UNK N   1      -0.754  -1.675  -0.388  0.00  0.00     0.041 A 
BRANCH   9  12
HETATM   12  C   UNK N   1       2.002  -3.983   0.089  0.00  0.00     0.201 C 
HETATM   13  O   UNK N   1       3.159  -3.770   0.417  0.00  0.00    -0.645 OA
BRANCH  12  14
HETATM   14  O   UNK N   1       1.579  -5.250  -0.080  0.00  0.00    -0.771 OA
HETATM   15  H   UNK N   1       0.668  -5.435  -0.197  0.00  0.00     0.167 HD
ENDBRANCH  12  14
ENDBRANCH   9  12
ENDBRANCH   1   7
BRANCH   2  16
HETATM   16  C   UNK N   1      -2.206   0.904   0.204  0.00  0.00     0.418 C 
HETATM   17  F   UNK N   1      -3.120   1.918   0.440  0.00  0.00    -0.166 F 
HETATM   18  F   UNK N   1      -2.547   0.296  -0.989  0.00  0.00    -0.166 F 
HETATM   19  F   UNK N   1      -2.306  -0.002   1.246  0.00  0.00    -0.166 F 
ENDBRANCH   2  16
TORSDOF 4
