REMARK  9 active torsions:
REMARK  status: ('A' for Active; 'I' for Inactive)
REMARK    1  A    between atoms: C_2  and  O_1 
REMARK    2  A    between atoms: C_4  and  C_2 
REMARK    3  A    between atoms: C_8  and  C_10 
REMARK    4  A    between atoms: N_11  and  O_13 
REMARK    5  A    between atoms: C_14  and  O_13 
REMARK    6  A    between atoms: C_14  and  C_15 
REMARK    7  A    between atoms: C_15  and  O_16 
REMARK    8  A    between atoms: O_16  and  N_17 
REMARK    9  A    between atoms: C_19  and  C_20 
ROOT
HETATM    1  C   UNK N   1       0.049  -2.138   0.484  0.00  0.00     0.230 C 
ENDROOT
BRANCH   1   2
HETATM    2  O   UNK N   1      -1.251  -2.531   0.224  0.00  0.00    -0.279 OA
BRANCH   2   3
HETATM    3  N   UNK N   1      -2.268  -1.684   0.153  0.00  0.00    -0.277 N 
HETATM    4  C   UNK N   1      -2.102  -0.410   0.225  0.00  0.00     0.125 C 
ATOM      5  HN  UNK N   1      -3.212  -2.054   0.038  1.00  0.00     0.193 HD
BRANCH   4   6
HETATM    6  C   UNK N   1      -3.228   0.521   0.148  0.00  0.00    -0.018 A 
HETATM    7  C   UNK N   1      -2.962   1.891   0.109  0.00  0.00     0.031 A 
HETATM    8  C   UNK N   1      -4.009   2.816   0.016  0.00  0.00     0.038 A 
HETATM    9  C   UNK N   1      -5.332   2.355  -0.030  0.00  0.00     0.018 A 
HETATM   10  C   UNK N   1      -5.603   0.984   0.014  0.00  0.00     0.002 A 
HETATM   11  C   UNK N   1      -4.553   0.066   0.098  0.00  0.00     0.013 A 
BRANCH   8  12
HETATM   12  C   UNK N   1      -3.719   4.261  -0.046  0.00  0.00     0.176 C 
HETATM   13  O   UNK N   1      -2.565   4.660  -0.011  0.00  0.00    -0.646 OA
BRANCH  12  14
HETATM   14  O   UNK N   1      -4.725   5.150  -0.151  0.00  0.00    -0.773 OA
HETATM   15  H   UNK N   1      -4.539   6.066  -0.224  0.00  0.00     0.167 HD
ENDBRANCH  12  14
ENDBRANCH   8  12
ENDBRANCH   4   6
ENDBRANCH   2   3
ENDBRANCH   1   2
BRANCH   1  16
HETATM   16  C   UNK N   1       0.735  -1.678  -0.794  0.00  0.00     0.230 C 
BRANCH  16  17
HETATM   17  O   UNK N   1       0.638  -0.315  -0.967  0.00  0.00    -0.279 OA
BRANCH  17  18
HETATM   18  N   UNK N   1       1.141   0.605  -0.151  0.00  0.00    -0.276 N 
HETATM   19  C   UNK N   1       2.362   0.669   0.292  0.00  0.00     0.143 C 
ATOM     20  HN  UNK N   1       0.503   1.338   0.161  1.00  0.00     0.193 HD
BRANCH  19  21
HETATM   21  C   UNK N   1       3.453  -0.324   0.152  0.00  0.00     0.059 A 
HETATM   22  C   UNK N   1       4.773   0.132   0.139  0.00  0.00     0.105 A 
HETATM   23  C   UNK N   1       5.811  -0.797   0.064  0.00  0.00     0.251 A 
HETATM   24  O   UNK N   1       6.967  -0.417   0.031  0.00  0.00    -0.268 OA
HETATM   25  N   UNK N   1       5.530  -2.136   0.033  0.00  0.00    -0.275 N 
HETATM   26  C   UNK N   1       4.233  -2.569   0.073  0.00  0.00     0.327 A 
HETATM   27  H   UNK N   1       6.264  -2.790  -0.019  0.00  0.00     0.173 HD
HETATM   28  N   UNK N   1       3.213  -1.659   0.135  0.00  0.00    -0.307 N 
HETATM   29  O   UNK N   1       3.986  -3.760   0.060  0.00  0.00    -0.247 OA
HETATM   30  H   UNK N   1       2.283  -1.981   0.168  0.00  0.00     0.170 HD
ENDBRANCH  19  21
ENDBRANCH  17  18
ENDBRANCH  16  17
ENDBRANCH   1  16
TORSDOF 9
