REMARK  7 active torsions:
REMARK  status: ('A' for Active; 'I' for Inactive)
REMARK    1  A    between atoms: C_2  and  N_18 
REMARK    2  A    between atoms: C_3  and  N_10 
REMARK    3  A    between atoms: C_5  and  C_7 
REMARK    4  A    between atoms: C_7  and  O_8 
REMARK       I    between atoms: N_10  and  C_11 
REMARK    5  A    between atoms: C_11  and  C_12 
REMARK    6  A    between atoms: C_12  and  C_14 
REMARK    7  A    between atoms: C_12  and  C_16 
REMARK       I    between atoms: N_18  and  C_19 
ROOT
HETATM    1  C   UNK N   1      -2.218   2.459  -0.021  0.00  0.00     0.033 A 
HETATM    2  C   UNK N   1      -0.989   1.790   0.085  0.00  0.00     0.061 A 
HETATM    3  C   UNK N   1      -0.973   0.385   0.142  0.00  0.00     0.062 A 
HETATM    4  C   UNK N   1      -2.181  -0.330   0.096  0.00  0.00     0.050 A 
HETATM    5  C   UNK N   1      -3.406   0.347  -0.002  0.00  0.00     0.040 A 
HETATM    6  C   UNK N   1      -3.416   1.744  -0.060  0.00  0.00     0.021 A 
ENDROOT
BRANCH   3   7
HETATM    7  N   UNK N   1       0.286  -0.270   0.256  0.00  0.00    -0.325 N 
HETATM    8  C   UNK N   1       0.559  -1.575  -0.007  0.00  0.00     0.226 C 
HETATM    9  O   UNK N   1      -0.308  -2.325  -0.433  0.00  0.00    -0.273 OA
HETATM   10  H   UNK N   1       1.042   0.283   0.559  0.00  0.00     0.169 HD
BRANCH   8  11
HETATM   11  C   UNK N   1       1.979  -2.061   0.184  0.00  0.00     0.077 C 
BRANCH  11  12
HETATM   12  C   UNK N   1       2.226  -3.471  -0.357  0.00  0.00     0.009 C 
HETATM   13  C   UNK N   1       1.537  -4.527   0.485  0.00  0.00     0.006 C 
ENDBRANCH  11  12
BRANCH  11  14
HETATM   14  C   UNK N   1       2.943  -1.096  -0.493  0.00  0.00     0.009 C 
HETATM   15  C   UNK N   1       4.327  -1.215   0.117  0.00  0.00     0.006 C 
ENDBRANCH  11  14
ENDBRANCH   8  11
ENDBRANCH   3   7
BRANCH   2  16
HETATM   16  N   UNK N   1       0.258   2.485   0.112  0.00  0.00    -0.326 N 
HETATM   17  C   UNK N   1       0.478   3.827   0.041  0.00  0.00     0.218 C 
HETATM   18  C   UNK N   1      -0.631   4.822  -0.070  0.00  0.00     0.117 C 
HETATM   19  O   UNK N   1       1.626   4.238   0.065  0.00  0.00    -0.274 OA
HETATM   20  H   UNK N   1       1.062   1.923   0.193  0.00  0.00     0.169 HD
ENDBRANCH   2  16
BRANCH   5  21
HETATM   21  C   UNK N   1      -4.679  -0.400  -0.036  0.00  0.00     0.176 C 
HETATM   22  O   UNK N   1      -4.681  -1.620   0.018  0.00  0.00    -0.646 OA
BRANCH  21  23
HETATM   23  O   UNK N   1      -5.851   0.261  -0.122  0.00  0.00    -0.773 OA
HETATM   24  H   UNK N   1      -5.860   1.196  -0.182  0.00  0.00     0.167 HD
ENDBRANCH  21  23
ENDBRANCH   5  21
TORSDOF 7
