REMARK  3 active torsions:
REMARK  status: ('A' for Active; 'I' for Inactive)
REMARK    1  A    between atoms: C_9  and  C_8 
REMARK    2  A    between atoms: N_14  and  N_17 
REMARK    3  A    between atoms: N_17  and  C_18 
ROOT
HETATM    1  C   UNK N   1       1.543   0.375   0.798  0.00  0.00     0.181 A 
HETATM    2  C   UNK N   1       0.927   0.922   2.077  0.00  0.00     0.063 C 
HETATM    3  O   UNK N   1       2.256  -0.801   1.089  0.00  0.00    -0.276 OA
HETATM    4  C   UNK N   1       1.667  -1.860   0.493  0.00  0.00     0.390 A 
HETATM    5  O   UNK N   1       2.050  -3.012   0.620  0.00  0.00    -0.236 OA
HETATM    6  N   UNK N   1       0.584  -1.512  -0.189  0.00  0.00    -0.162 N 
HETATM    7  C   UNK N   1       0.451  -0.186  -0.093  0.00  0.00     0.287 A 
HETATM    8  O   UNK N   1      -0.452   0.450  -0.618  0.00  0.00    -0.267 OA
ENDROOT
BRANCH   1   9
HETATM    9  C   UNK N   1       2.436   1.428   0.169  0.00  0.00     0.025 A 
HETATM   10  C   UNK N   1       1.921   2.675  -0.249  0.00  0.00     0.129 A 
HETATM   11  F   UNK N   1       0.598   2.952  -0.145  0.00  0.00    -0.205 F 
HETATM   12  C   UNK N   1       2.782   3.657  -0.749  0.00  0.00     0.085 A 
HETATM   13  C   UNK N   1       4.154   3.411  -0.840  0.00  0.00     0.119 A 
HETATM   14  F   UNK N   1       4.985   4.375  -1.304  0.00  0.00    -0.206 F 
HETATM   15  C   UNK N   1       4.670   2.178  -0.441  0.00  0.00     0.043 A 
HETATM   16  C   UNK N   1       3.817   1.192   0.060  0.00  0.00     0.017 A 
ENDBRANCH   1   9
BRANCH   6  17
HETATM   17  N   UNK N   1      -0.283  -2.396  -0.798  0.00  0.00    -0.287 N 
HETATM   18  H   UNK N   1       0.069  -3.031  -1.463  0.00  0.00     0.188 HD
BRANCH  17  19
HETATM   19  C   UNK N   1      -1.672  -2.413  -0.491  0.00  0.00     0.049 A 
HETATM   20  C   UNK N   1      -2.505  -3.352  -1.109  0.00  0.00     0.031 A 
HETATM   21  C   UNK N   1      -3.858  -3.430  -0.759  0.00  0.00     0.002 A 
HETATM   22  C   UNK N   1      -4.383  -2.573   0.213  0.00  0.00     0.000 A 
HETATM   23  C   UNK N   1      -3.556  -1.640   0.840  0.00  0.00     0.002 A 
HETATM   24  C   UNK N   1      -2.205  -1.567   0.496  0.00  0.00     0.031 A 
ENDBRANCH  17  19
ENDBRANCH   6  17
TORSDOF 3
