REMARK  8 active torsions:
REMARK  status: ('A' for Active; 'I' for Inactive)
REMARK    1  A    between atoms: C_7  and  O_8 
REMARK    2  A    between atoms: O_8  and  C_9 
REMARK    3  A    between atoms: C_9  and  C_10 
REMARK    4  A    between atoms: C_10  and  O_11 
REMARK    5  A    between atoms: C_10  and  C_13 
REMARK       I    between atoms: C_13  and  N_15 
REMARK    6  A    between atoms: N_15  and  C_16 
REMARK    7  A    between atoms: C_20  and  N_21 
REMARK    8  A    between atoms: C_24  and  C_25 
ROOT
HETATM    1  C   UNK N   1       0.288   0.756   0.072  0.00  0.00     0.258 C 
HETATM    2  O   UNK N   1       0.393   1.852  -0.464  0.00  0.00    -0.270 OA
HETATM    3  N   UNK N   1       1.391  -0.006   0.326  0.00  0.00    -0.325 N 
HETATM    4  H   UNK N   1       1.254  -0.933   0.631  0.00  0.00     0.169 HD
ENDROOT
BRANCH   1   5
HETATM    5  C   UNK N   1      -1.077   0.271   0.457  0.00  0.00     0.156 C 
HETATM    6  C   UNK N   1      -1.705   1.274   1.408  0.00  0.00     0.059 C 
BRANCH   5   7
HETATM    7  C   UNK N   1      -1.954   0.172  -0.794  0.00  0.00     0.223 C 
BRANCH   7   8
HETATM    8  O   UNK N   1      -2.253  -1.142  -1.080  0.00  0.00    -0.348 OA
BRANCH   8   9
HETATM    9  C   UNK N   1      -3.410  -1.712  -0.674  0.00  0.00     0.069 A 
HETATM   10  C   UNK N   1      -3.542  -3.102  -0.737  0.00  0.00     0.040 A 
HETATM   11  C   UNK N   1      -4.708  -3.717  -0.273  0.00  0.00     0.045 A 
HETATM   12  C   UNK N   1      -5.750  -2.943   0.248  0.00  0.00     0.116 A 
HETATM   13  F   UNK N   1      -6.874  -3.542   0.705  0.00  0.00    -0.206 F 
HETATM   14  C   UNK N   1      -5.631  -1.553   0.300  0.00  0.00     0.045 A 
HETATM   15  C   UNK N   1      -4.464  -0.938  -0.155  0.00  0.00     0.040 A 
ENDBRANCH   8   9
ENDBRANCH   7   8
ENDBRANCH   5   7
BRANCH   5  16
HETATM   16  O   UNK N   1      -0.990  -0.961   1.119  0.00  0.00    -0.378 OA
HETATM   17  H   UNK N   1      -1.699  -1.439   1.577  0.00  0.00     0.211 HD
ENDBRANCH   5  16
ENDBRANCH   1   5
BRANCH   3  18
HETATM   18  C   UNK N   1       2.728   0.458   0.176  0.00  0.00     0.035 A 
HETATM   19  C   UNK N   1       2.998   1.820   0.105  0.00  0.00     0.048 A 
HETATM   20  C   UNK N   1       4.287   2.347   0.030  0.00  0.00     0.083 A 
HETATM   21  C   UNK N   1       5.393   1.415   0.028  0.00  0.00     0.118 A 
HETATM   22  C   UNK N   1       5.097   0.036   0.103  0.00  0.00     0.039 A 
HETATM   23  C   UNK N   1       3.787  -0.439   0.187  0.00  0.00     0.032 A 
BRANCH  20  24
HETATM   24  C   UNK N   1       4.281   3.871  -0.027  0.00  0.00     0.419 C 
HETATM   25  F   UNK N   1       3.549   4.261  -1.136  0.00  0.00    -0.166 F 
HETATM   26  F   UNK N   1       5.488   4.517  -0.094  0.00  0.00    -0.166 F 
HETATM   27  F   UNK N   1       3.631   4.343   1.101  0.00  0.00    -0.166 F 
ENDBRANCH  20  24
BRANCH  21  28
HETATM   28  N   UNK N   1       6.783   1.769  -0.036  0.00  0.00    -0.115 N 
HETATM   29  O   UNK N   1       7.147   2.898  -0.067  0.00  0.00    -0.532 OA
HETATM   30  O   UNK N   1       7.692   0.815  -0.039  0.00  0.00    -0.532 OA
ENDBRANCH  21  28
ENDBRANCH   3  18
TORSDOF 8
