REMARK  13 active torsions:
REMARK  status: ('A' for Active; 'I' for Inactive)
REMARK    1  A    between atoms: C_4  and  C_5 
REMARK    2  A    between atoms: C_5  and  C_6 
REMARK    3  A    between atoms: C_6  and  C_7 
REMARK    4  A    between atoms: C_9  and  C_10 
REMARK    5  A    between atoms: C_10  and  C_11 
REMARK    6  A    between atoms: C_11  and  C_12 
REMARK    7  A    between atoms: C_14  and  C_15 
REMARK    8  A    between atoms: C_15  and  O_16 
REMARK    9  A    between atoms: O_16  and  N_17 
REMARK       I    between atoms: N_17  and  C_18 
REMARK   10  A    between atoms: C_18  and  C_20 
REMARK   11  A    between atoms: C_20  and  P_21 
REMARK   12  A    between atoms: P_21  and  O_23 
REMARK   13  A    between atoms: P_21  and  O_24 
ROOT
HETATM    1  C   UNK N   1      -0.896  -2.842   0.245  0.00  0.00    -0.085 C 
HETATM    2  C   UNK N   1       0.086  -1.967   0.973  0.00  0.00     0.043 C 
HETATM    3  C   UNK N   1      -0.546  -4.089  -0.099  0.00  0.00     0.004 C 
ENDROOT
BRANCH   3   4
HETATM    4  C   UNK N   1       0.826  -4.635   0.158  0.00  0.00     0.229 C 
BRANCH   4   5
HETATM    5  O   UNK N   1       1.701  -3.984  -0.714  0.00  0.00    -0.274 OA
BRANCH   5   6
HETATM    6  N   UNK N   1       2.932  -4.176  -0.229  0.00  0.00    -0.234 N 
HETATM    7  C   UNK N   1       3.811  -3.151  -0.154  0.00  0.00     0.252 C 
HETATM    8  O   UNK N   1       3.453  -2.016  -0.449  0.00  0.00    -0.271 OA
HETATM    9  H   UNK N   1       3.201  -5.072   0.077  0.00  0.00     0.197 HD
BRANCH   7  10
HETATM   10  C   UNK N   1       5.247  -3.451   0.208  0.00  0.00     0.229 C 
BRANCH  10  11
HETATM   11  P   UNK N   1       6.589  -2.108   0.163  0.00  0.00     0.244 P 
HETATM   12  O   UNK N   1       5.936  -1.789  -1.208  0.00  0.00    -0.653 OA
BRANCH  11  13
HETATM   13  O   UNK N   1       7.244  -3.715   0.135  0.00  0.00    -0.329 OA
HETATM   14  H   UNK N   1       6.649  -4.481   0.119  0.00  0.00     0.220 HD
ENDBRANCH  11  13
BRANCH  11  15
HETATM   15  O   UNK N   1       5.533  -1.682   1.474  0.00  0.00    -0.329 OA
HETATM   16  H   UNK N   1       5.444  -1.053   2.207  0.00  0.00     0.220 HD
ENDBRANCH  11  15
ENDBRANCH  10  11
ENDBRANCH   7  10
ENDBRANCH   5   6
ENDBRANCH   4   5
ENDBRANCH   3   4
BRANCH   1  17
HETATM   17  C   UNK N   1      -2.266  -2.343  -0.175  0.00  0.00     0.037 C 
BRANCH  17  18
HETATM   18  C   UNK N   1      -2.642  -0.891   0.172  0.00  0.00     0.031 C 
BRANCH  18  19
HETATM   19  C   UNK N   1      -1.543   0.062  -0.184  0.00  0.00    -0.024 C 
HETATM   20  C   UNK N   1      -1.627   1.393  -0.172  0.00  0.00    -0.087 C 
HETATM   21  C   UNK N   1      -0.372   2.149  -0.479  0.00  0.00     0.043 C 
BRANCH  20  22
HETATM   22  C   UNK N   1      -2.918   2.118   0.137  0.00  0.00     0.037 C 
BRANCH  22  23
HETATM   23  C   UNK N   1      -2.708   3.628   0.104  0.00  0.00     0.031 C 
BRANCH  23  24
HETATM   24  C   UNK N   1      -3.988   4.399   0.078  0.00  0.00    -0.024 C 
HETATM   25  C   UNK N   1      -3.988   5.738   0.025  0.00  0.00    -0.091 C 
HETATM   26  C   UNK N   1      -5.282   6.472  -0.002  0.00  0.00     0.042 C 
HETATM   27  C   UNK N   1      -2.712   6.522  -0.009  0.00  0.00     0.042 C 
ENDBRANCH  23  24
ENDBRANCH  22  23
ENDBRANCH  20  22
ENDBRANCH  18  19
ENDBRANCH  17  18
ENDBRANCH   1  17
TORSDOF 13
