REMARK  8 active torsions:
REMARK  status: ('A' for Active; 'I' for Inactive)
REMARK    1  A    between atoms: C_2  and  C_3 
REMARK       I    between atoms: C_2  and  N_14 
REMARK    2  A    between atoms: C_3  and  C_4 
REMARK    3  A    between atoms: C_4  and  N_5 
REMARK    4  A    between atoms: C_4  and  C_6 
REMARK    5  A    between atoms: C_6  and  C_7 
REMARK    6  A    between atoms: C_15  and  C_19 
REMARK    7  A    between atoms: C_19  and  N_20 
REMARK       I    between atoms: N_20  and  C_21 
REMARK    8  A    between atoms: C_21  and  C_23 
ROOT
HETATM    1  O   UNK N   1       0.418   1.285   1.796  0.00  0.00    -0.273 OA
HETATM    2  C   UNK N   1      -0.049   1.040   0.689  0.00  0.00     0.222 C 
HETATM    3  N   UNK N   1      -1.193   1.675   0.289  0.00  0.00    -0.346 N 
HETATM    4  C   UNK N   1      -1.832   1.472  -0.995  0.00  0.00     0.105 C 
HETATM    5  C   UNK N   1      -2.850   2.595  -1.096  0.00  0.00     0.028 C 
HETATM    6  C   UNK N   1      -2.949   3.240   0.284  0.00  0.00     0.022 C 
HETATM    7  C   UNK N   1      -1.808   2.679   1.109  0.00  0.00     0.126 C 
ENDROOT
BRANCH   2   8
HETATM    8  C   UNK N   1       0.651   0.044  -0.210  0.00  0.00     0.127 C 
BRANCH   8   9
HETATM    9  C   UNK N   1       2.151  -0.204  -0.016  0.00  0.00     0.087 C 
BRANCH   9  10
HETATM   10  N   UNK N   1       2.494  -0.352   1.391  0.00  0.00    -0.425 N 
HETATM   11  H   UNK N   1       2.524  -0.613   2.376  0.00  0.00     0.150 HD
HETATM   12  H   UNK N   1       3.313   0.256   1.391  0.00  0.00     0.150 HD
ENDBRANCH   9  10
BRANCH   9  13
HETATM   13  C   UNK N   1       3.007   0.880  -0.677  0.00  0.00     0.066 C 
BRANCH  13  14
HETATM   14  C   UNK N   1       4.472   0.564  -0.550  0.00  0.00    -0.018 A 
HETATM   15  C   UNK N   1       5.340   1.468   0.081  0.00  0.00     0.122 A 
HETATM   16  F   UNK N   1       4.876   2.652   0.551  0.00  0.00    -0.206 F 
HETATM   17  C   UNK N   1       6.693   1.147   0.235  0.00  0.00     0.043 A 
HETATM   18  C   UNK N   1       7.185  -0.072  -0.240  0.00  0.00     0.003 A 
HETATM   19  C   UNK N   1       6.328  -0.970  -0.882  0.00  0.00     0.001 A 
HETATM   20  C   UNK N   1       4.977  -0.652  -1.039  0.00  0.00     0.010 A 
ENDBRANCH  13  14
ENDBRANCH   9  13
ENDBRANCH   8   9
ENDBRANCH   2   8
BRANCH   4  21
HETATM   21  C   UNK N   1      -2.615   0.156  -1.073  0.00  0.00     0.148 C 
BRANCH  21  22
HETATM   22  N   UNK N   1      -1.792  -1.010  -0.877  0.00  0.00    -0.355 N 
HETATM   23  C   UNK N   1      -2.231  -2.206  -0.397  0.00  0.00     0.251 C 
HETATM   24  O   UNK N   1      -1.416  -3.107  -0.265  0.00  0.00    -0.268 OA
HETATM   25  H   UNK N   1      -0.837  -0.936  -1.108  0.00  0.00     0.162 HD
BRANCH  23  26
HETATM   26  C   UNK N   1      -3.657  -2.475  -0.030  0.00  0.00     0.032 A 
HETATM   27  C   UNK N   1      -4.026  -3.767   0.379  0.00  0.00     0.017 A 
HETATM   28  C   UNK N   1      -5.352  -4.059   0.711  0.00  0.00     0.001 A 
HETATM   29  C   UNK N   1      -6.325  -3.060   0.643  0.00  0.00     0.000 A 
HETATM   30  C   UNK N   1      -5.972  -1.770   0.246  0.00  0.00     0.001 A 
HETATM   31  C   UNK N   1      -4.648  -1.482  -0.090  0.00  0.00     0.017 A 
ENDBRANCH  23  26
ENDBRANCH  21  22
ENDBRANCH   4  21
TORSDOF 8
