REMARK  10 active torsions:
REMARK  status: ('A' for Active; 'I' for Inactive)
REMARK    1  A    between atoms: C_3  and  C_4 
REMARK    2  A    between atoms: C_7  and  N_8 
REMARK    3  A    between atoms: C_9  and  C_11 
REMARK    4  A    between atoms: C_11  and  O_14 
REMARK    5  A    between atoms: P_13  and  O_12 
REMARK    6  A    between atoms: P_13  and  O_14 
REMARK    7  A    between atoms: P_13  and  O_16 
REMARK    8  A    between atoms: O_16  and  P_17 
REMARK    9  A    between atoms: P_17  and  O_19 
REMARK   10  A    between atoms: P_17  and  O_20 
ROOT
HETATM    1  N   UNK N   1      -1.908  -1.765  -0.318  0.00  0.00    -0.348 N 
ATOM      2  HN  UNK N   1      -1.713  -2.758  -0.446  1.00  0.00     0.166 HD
HETATM    3  C   UNK N   1      -3.183  -1.359  -0.064  0.00  0.00     0.192 A 
HETATM    4  N   UNK N   1      -3.449  -0.039   0.121  0.00  0.00    -0.325 N 
ATOM      5  HN  UNK N   1      -4.405   0.257   0.321  1.00  0.00     0.169 HD
HETATM    6  C   UNK N   1      -2.462   0.895   0.045  0.00  0.00     0.110 A 
HETATM    7  C   UNK N   1      -1.148   0.495  -0.229  0.00  0.00     0.025 A 
HETATM    8  C   UNK N   1      -0.893  -0.865  -0.403  0.00  0.00     0.103 A 
ENDROOT
BRANCH   7   9
HETATM    9  C   UNK N   1      -0.044   1.499  -0.368  0.00  0.00     0.224 C 
BRANCH   9  10
HETATM   10  O   UNK N   1       0.969   1.258   0.566  0.00  0.00    -0.292 OA
BRANCH  10  11
HETATM   11  P   UNK N   1       2.419   1.025  -0.371  0.00  0.00     0.402 P 
HETATM   12  O   UNK N   1       2.156  -0.373   0.251  0.00  0.00    -0.631 OA
BRANCH  11  13
HETATM   13  O   UNK N   1       2.686   2.227   0.854  0.00  0.00    -0.307 OA
HETATM   14  H   UNK N   1       3.342   2.434   1.538  0.00  0.00     0.222 HD
ENDBRANCH  11  13
BRANCH  11  15
HETATM   15  O   UNK N   1       3.914   0.690   0.469  0.00  0.00    -0.195 OA
BRANCH  15  16
HETATM   16  P   UNK N   1       5.079   0.287  -0.766  0.00  0.00     0.399 P 
HETATM   17  O   UNK N   1       6.462  -0.028  -0.137  0.00  0.00    -0.631 OA
BRANCH  16  18
HETATM   18  O   UNK N   1       5.553   1.783  -0.023  0.00  0.00    -0.307 OA
HETATM   19  H   UNK N   1       6.409   1.972   0.392  0.00  0.00     0.222 HD
ENDBRANCH  16  18
BRANCH  16  20
HETATM   20  O   UNK N   1       4.797  -1.114   0.221  0.00  0.00    -0.307 OA
HETATM   21  H   UNK N   1       4.041  -1.369   0.773  0.00  0.00     0.222 HD
ENDBRANCH  16  20
ENDBRANCH  15  16
ENDBRANCH  11  15
ENDBRANCH  10  11
ENDBRANCH   9  10
ENDBRANCH   7   9
BRANCH   6  22
HETATM   22  N   UNK N   1      -2.778   2.258   0.221  0.00  0.00    -0.385 N 
HETATM   23  H   UNK N   1      -2.064   2.924   0.343  0.00  0.00     0.157 HD
HETATM   24  H   UNK N   1      -3.720   2.545   0.221  0.00  0.00     0.157 HD
ENDBRANCH   6  22
BRANCH   3  25
HETATM   25  C   UNK N   1      -4.301  -2.356  -0.024  0.00  0.00     0.449 C 
HETATM   26  F   UNK N   1      -4.902  -2.336   1.221  0.00  0.00    -0.163 F 
HETATM   27  F   UNK N   1      -5.237  -2.026  -0.986  0.00  0.00    -0.163 F 
HETATM   28  F   UNK N   1      -3.829  -3.632  -0.278  0.00  0.00    -0.163 F 
ENDBRANCH   3  25
TORSDOF 10
