REMARK  11 active torsions:
REMARK  status: ('A' for Active; 'I' for Inactive)
REMARK    1  A    between atoms: C_10  and  N_2 
REMARK    2  A    between atoms: C_6  and  C_7 
REMARK       I    between atoms: C_7  and  N_9 
REMARK    3  A    between atoms: C_10  and  C_11 
REMARK    4  A    between atoms: C_10  and  C_13 
REMARK    5  A    between atoms: C_11  and  O_12 
REMARK    6  A    between atoms: C_13  and  C_14 
REMARK    7  A    between atoms: C_14  and  N_15 
REMARK    8  A    between atoms: C_22  and  N_24 
REMARK       I    between atoms: N_24  and  C_25 
REMARK    9  A    between atoms: C_25  and  C_27 
REMARK   10  A    between atoms: C_27  and  C_28 
REMARK   11  A    between atoms: C_28  and  C_30 
ROOT
HETATM    1  N   UNK N   1      -1.392  -2.609  -0.749  0.00  0.00    -0.356 N 
HETATM    2  C   UNK N   1      -2.009  -3.808  -0.850  0.00  0.00     0.092 A 
HETATM    3  C   UNK N   1      -1.186  -4.815  -0.340  0.00  0.00     0.031 A 
HETATM    4  C   UNK N   1      -0.043  -4.170   0.073  0.00  0.00    -0.008 A 
HETATM    5  C   UNK N   1      -0.192  -2.836  -0.181  0.00  0.00     0.046 A 
HETATM    6  C   UNK N   1       1.108  -4.686   0.660  0.00  0.00     0.016 A 
HETATM    7  C   UNK N   1       2.118  -3.778   1.021  0.00  0.00     0.030 A 
HETATM    8  C   UNK N   1       1.971  -2.396   0.764  0.00  0.00     0.036 A 
HETATM    9  C   UNK N   1       0.794  -1.920   0.150  0.00  0.00     0.060 A 
ENDROOT
BRANCH   1  10
HETATM   10  C   UNK N   1      -2.010  -1.365  -1.217  0.00  0.00     0.131 C 
BRANCH  10  11
HETATM   11  C   UNK N   1      -1.242  -0.067  -0.947  0.00  0.00     0.048 C 
BRANCH  11  12
HETATM   12  C   UNK N   1      -1.833   0.776   0.201  0.00  0.00     0.115 C 
BRANCH  12  13
HETATM   13  N   UNK N   1      -3.285   1.013   0.045  0.00  0.00    -0.344 N 
HETATM   14  C   UNK N   1      -3.948   2.188   0.038  0.00  0.00     0.127 A 
HETATM   15  C   UNK N   1      -5.297   1.885  -0.055  0.00  0.00     0.117 A 
HETATM   16  N   UNK N   1      -5.459   0.554  -0.107  0.00  0.00    -0.347 N 
HETATM   17  C   UNK N   1      -4.218   0.040  -0.034  0.00  0.00     0.183 A 
ATOM     18  HN  UNK N   1      -6.337   0.041  -0.187  1.00  0.00     0.167 HD
BRANCH  15  19
HETATM   19  C   UNK N   1      -6.422   2.834  -0.045  0.00  0.00     0.267 C 
HETATM   20  O   UNK N   1      -7.568   2.415  -0.126  0.00  0.00    -0.266 OA
HETATM   21  N   UNK N   1      -6.203   4.156   0.083  0.00  0.00    -0.365 N 
HETATM   22  H   UNK N   1      -5.286   4.501   0.176  0.00  0.00     0.159 HD
HETATM   23  H   UNK N   1      -6.964   4.780   0.083  0.00  0.00     0.159 HD
ENDBRANCH  15  19
ENDBRANCH  12  13
BRANCH  12  24
HETATM   24  C   UNK N   1      -1.038   2.082   0.317  0.00  0.00     0.189 C 
BRANCH  24  25
HETATM   25  O   UNK N   1      -1.038   2.786  -0.891  0.00  0.00    -0.399 OA
HETATM   26  H   UNK N   1      -0.616   3.031  -1.729  0.00  0.00     0.209 HD
ENDBRANCH  24  25
ENDBRANCH  12  24
ENDBRANCH  11  12
ENDBRANCH  10  11
ENDBRANCH   1  10
BRANCH   8  27
HETATM   27  N   UNK N   1       2.929  -1.501   1.301  0.00  0.00    -0.327 N 
HETATM   28  C   UNK N   1       3.067  -0.186   1.000  0.00  0.00     0.222 C 
HETATM   29  O   UNK N   1       3.793   0.497   1.704  0.00  0.00    -0.273 OA
HETATM   30  H   UNK N   1       3.560  -1.873   1.959  0.00  0.00     0.169 HD
BRANCH  28  31
HETATM   31  C   UNK N   1       2.378   0.458  -0.185  0.00  0.00     0.108 C 
BRANCH  31  32
HETATM   32  C   UNK N   1       3.386   0.888  -1.261  0.00  0.00     0.047 C 
BRANCH  32  33
HETATM   33  C   UNK N   1       4.452   1.757  -0.677  0.00  0.00    -0.058 A 
HETATM   34  C   UNK N   1       5.736   1.232  -0.490  0.00  0.00     0.007 A 
HETATM   35  C   UNK N   1       6.705   1.978   0.185  0.00  0.00     0.001 A 
HETATM   36  C   UNK N   1       6.391   3.249   0.675  0.00  0.00     0.000 A 
HETATM   37  C   UNK N   1       5.111   3.779   0.481  0.00  0.00     0.001 A 
HETATM   38  C   UNK N   1       4.138   3.030  -0.186  0.00  0.00     0.007 A 
ENDBRANCH  32  33
ENDBRANCH  31  32
ENDBRANCH  28  31
ENDBRANCH   8  27
TORSDOF 11
