REMARK  8 active torsions:
REMARK  status: ('A' for Active; 'I' for Inactive)
REMARK    1  A    between atoms: C_10  and  N_2 
REMARK    2  A    between atoms: C_6  and  C_7 
REMARK       I    between atoms: C_7  and  N_9 
REMARK    3  A    between atoms: C_10  and  C_11 
REMARK    4  A    between atoms: C_10  and  C_13 
REMARK    5  A    between atoms: C_11  and  O_12 
REMARK    6  A    between atoms: C_13  and  C_14 
REMARK    7  A    between atoms: C_14  and  O_16 
REMARK    8  A    between atoms: O_16  and  C_25 
ROOT
HETATM    1  C   UNK N   1      -1.349   0.799   0.831  0.00  0.00     0.120 C 
ENDROOT
BRANCH   1   2
HETATM    2  N   UNK N   1      -2.074   1.902   0.177  0.00  0.00    -0.343 N 
HETATM    3  C   UNK N   1      -1.610   3.160   0.087  0.00  0.00     0.127 A 
HETATM    4  C   UNK N   1      -2.646   3.949  -0.340  0.00  0.00     0.117 A 
HETATM    5  N   UNK N   1      -3.756   3.204  -0.486  0.00  0.00    -0.347 N 
HETATM    6  C   UNK N   1      -3.387   1.952  -0.139  0.00  0.00     0.183 A 
ATOM      7  HN  UNK N   1      -4.678   3.517  -0.793  1.00  0.00     0.167 HD
BRANCH   4   8
HETATM    8  C   UNK N   1      -2.573   5.404  -0.535  0.00  0.00     0.267 C 
HETATM    9  O   UNK N   1      -3.580   6.034  -0.818  0.00  0.00    -0.266 OA
HETATM   10  N   UNK N   1      -1.403   6.051  -0.375  0.00  0.00    -0.365 N 
HETATM   11  H   UNK N   1      -0.566   5.547  -0.257  0.00  0.00     0.159 HD
HETATM   12  H   UNK N   1      -1.385   7.036  -0.375  0.00  0.00     0.159 HD
ENDBRANCH   4   8
ENDBRANCH   1   2
BRANCH   1  13
HETATM   13  C   UNK N   1      -1.818  -0.620   0.425  0.00  0.00     0.137 C 
HETATM   14  C   UNK N   1      -3.262  -0.878   0.826  0.00  0.00     0.041 C 
BRANCH  13  15
HETATM   15  O   UNK N   1      -1.673  -0.832  -0.946  0.00  0.00    -0.394 OA
HETATM   16  H   UNK N   1      -1.750  -0.993  -1.900  0.00  0.00     0.210 HD
ENDBRANCH  13  15
ENDBRANCH   1  13
BRANCH   1  17
HETATM   17  C   UNK N   1       0.170   0.975   0.674  0.00  0.00     0.055 C 
BRANCH  17  18
HETATM   18  C   UNK N   1       0.648   1.136  -0.771  0.00  0.00     0.178 C 
BRANCH  18  19
HETATM   19  O   UNK N   1       1.989   0.818  -0.847  0.00  0.00    -0.351 OA
BRANCH  19  20
HETATM   20  C   UNK N   1       2.438  -0.447  -0.661  0.00  0.00     0.069 A 
HETATM   21  C   UNK N   1       3.814  -0.693  -0.570  0.00  0.00     0.037 A 
HETATM   22  C   UNK N   1       4.282  -1.993  -0.337  0.00  0.00     0.015 A 
HETATM   23  C   UNK N   1       3.373  -3.049  -0.197  0.00  0.00    -0.026 A 
HETATM   24  C   UNK N   1       3.824  -4.348   0.047  0.00  0.00     0.012 A 
HETATM   25  C   UNK N   1       1.988  -2.801  -0.301  0.00  0.00    -0.023 A 
HETATM   26  C   UNK N   1       2.901  -5.393   0.186  0.00  0.00     0.001 A 
HETATM   27  C   UNK N   1       1.529  -5.141   0.079  0.00  0.00     0.001 A 
HETATM   28  C   UNK N   1       1.072  -3.845  -0.164  0.00  0.00     0.012 A 
HETATM   29  C   UNK N   1       1.534  -1.512  -0.531  0.00  0.00     0.049 A 
ENDBRANCH  19  20
ENDBRANCH  18  19
ENDBRANCH  17  18
ENDBRANCH   1  17
TORSDOF 8
