REMARK  8 active torsions:
REMARK  status: ('A' for Active; 'I' for Inactive)
REMARK    1  A    between atoms: C_3  and  C_8 
REMARK    2  A    between atoms: C_17  and  C_18 
REMARK    3  A    between atoms: C_18  and  C_19 
REMARK    4  A    between atoms: C_19  and  C_20 
REMARK    5  A    between atoms: C_20  and  C_21 
REMARK    6  A    between atoms: C_20  and  N_23 
REMARK    7  A    between atoms: C_21  and  O_22 
REMARK    8  A    between atoms: C_28  and  C_30 
REMARK       I    between atoms: C_30  and  N_32 
ROOT
HETATM    1  C   UNK N   1       3.211  -0.338   0.580  0.00  0.00     0.043 C 
ENDROOT
BRANCH   1   2
HETATM    2  C   UNK N   1       2.968  -1.806   0.324  0.00  0.00    -0.022 A 
HETATM    3  C   UNK N   1       1.697  -2.376   0.180  0.00  0.00     0.111 A 
HETATM    4  C   UNK N   1       1.517  -3.711  -0.027  0.00  0.00     0.069 A 
HETATM    5  O   UNK N   1       0.528  -1.803   0.214  0.00  0.00    -0.290 OA
HETATM    6  N   UNK N   1       0.200  -3.977  -0.118  0.00  0.00    -0.334 N 
HETATM    7  C   UNK N   1       2.583  -4.599  -0.117  0.00  0.00     0.032 A 
HETATM    8  C   UNK N   1      -0.372  -2.755   0.036  0.00  0.00     0.159 A 
ATOM      9  HN  UNK N   1      -0.256  -4.877  -0.266  1.00  0.00     0.168 HD
HETATM   10  C   UNK N   1       3.881  -4.066   0.012  0.00  0.00     0.003 A 
HETATM   11  C   UNK N   1       4.071  -2.679   0.231  0.00  0.00     0.010 A 
BRANCH   8  12
HETATM   12  C   UNK N   1      -1.816  -2.491   0.013  0.00  0.00     0.015 A 
HETATM   13  C   UNK N   1      -2.263  -1.172   0.129  0.00  0.00     0.017 A 
HETATM   14  C   UNK N   1      -3.624  -0.877   0.110  0.00  0.00     0.025 A 
HETATM   15  C   UNK N   1      -4.554  -1.907  -0.019  0.00  0.00     0.034 A 
HETATM   16  C   UNK N   1      -4.120  -3.234  -0.132  0.00  0.00     0.025 A 
HETATM   17 Cl   UNK N   1      -6.262  -1.530  -0.034  0.00  0.00    -0.084 Cl
HETATM   18  C   UNK N   1      -2.749  -3.527  -0.119  0.00  0.00     0.017 A 
ENDBRANCH   8  12
ENDBRANCH   1   2
BRANCH   1  19
HETATM   19  C   UNK N   1       1.967   0.527   0.827  0.00  0.00     0.033 C 
BRANCH  19  20
HETATM   20  C   UNK N   1       1.716   1.581  -0.270  0.00  0.00     0.118 C 
BRANCH  20  21
HETATM   21  C   UNK N   1       2.797   2.694  -0.282  0.00  0.00     0.137 C 
HETATM   22  C   UNK N   1       4.181   2.175  -0.632  0.00  0.00     0.041 C 
BRANCH  21  23
HETATM   23  O   UNK N   1       2.849   3.336   0.958  0.00  0.00    -0.394 OA
HETATM   24  H   UNK N   1       3.253   3.528   1.819  0.00  0.00     0.210 HD
ENDBRANCH  21  23
ENDBRANCH  20  21
BRANCH  20  25
HETATM   25  N   UNK N   1       0.370   2.159  -0.098  0.00  0.00    -0.343 N 
HETATM   26  C   UNK N   1      -0.782   1.460  -0.069  0.00  0.00     0.183 A 
HETATM   27  N   UNK N   1      -1.850   2.275   0.046  0.00  0.00    -0.347 N 
HETATM   28  C   UNK N   1      -1.341   3.521   0.078  0.00  0.00     0.117 A 
ATOM     29  HN  UNK N   1      -2.833   2.006   0.096  1.00  0.00     0.167 HD
HETATM   30  C   UNK N   1       0.032   3.462  -0.006  0.00  0.00     0.127 A 
BRANCH  28  31
HETATM   31  C   UNK N   1      -2.157   4.745   0.153  0.00  0.00     0.267 C 
HETATM   32  O   UNK N   1      -3.374   4.666   0.207  0.00  0.00    -0.266 OA
HETATM   33  N   UNK N   1      -1.566   5.957   0.140  0.00  0.00    -0.365 N 
HETATM   34  H   UNK N   1      -0.584   6.026   0.130  0.00  0.00     0.159 HD
HETATM   35  H   UNK N   1      -2.117   6.772   0.140  0.00  0.00     0.159 HD
ENDBRANCH  28  31
ENDBRANCH  20  25
ENDBRANCH  19  20
ENDBRANCH   1  19
TORSDOF 8
