REMARK  6 active torsions:
REMARK  status: ('A' for Active; 'I' for Inactive)
REMARK    1  A    between atoms: N_7  and  C_13 
REMARK    2  A    between atoms: C_13  and  C_14 
REMARK    3  A    between atoms: C_14  and  C_15 
REMARK    4  A    between atoms: C_15  and  C_16 
REMARK    5  A    between atoms: C_16  and  N_17 
REMARK    6  A    between atoms: C_20  and  C_23 
ROOT
HETATM    1  C   UNK N   1      -0.278   2.084   0.406  0.00  0.00     0.134 C 
ENDROOT
BRANCH   1   2
HETATM    2  N   UNK N   1      -0.595   3.509   0.248  0.00  0.00    -0.299 N 
HETATM    3  C   UNK N   1      -1.901   3.904   0.117  0.00  0.00     0.057 A 
HETATM    4  C   UNK N   1      -2.941   2.955   0.100  0.00  0.00     0.031 A 
HETATM    5  C   UNK N   1      -2.222   5.281   0.014  0.00  0.00     0.098 A 
HETATM    6  C   UNK N   1      -4.272   3.357  -0.013  0.00  0.00     0.005 A 
HETATM    7  C   UNK N   1      -4.587   4.711  -0.106  0.00  0.00     0.043 A 
HETATM    8  C   UNK N   1      -3.576   5.674  -0.095  0.00  0.00     0.134 A 
HETATM    9  F   UNK N   1      -3.923   6.983  -0.178  0.00  0.00    -0.205 F 
HETATM   10  C   UNK N   1      -1.171   6.214   0.035  0.00  0.00     0.265 A 
HETATM   11  N   UNK N   1       0.115   5.782   0.161  0.00  0.00    -0.274 N 
HETATM   12  O   UNK N   1      -1.390   7.410  -0.052  0.00  0.00    -0.267 OA
HETATM   13  C   UNK N   1       0.415   4.455   0.276  0.00  0.00     0.329 A 
HETATM   14  H   UNK N   1       0.846   6.443   0.169  0.00  0.00     0.173 HD
HETATM   15  O   UNK N   1       1.579   4.122   0.409  0.00  0.00    -0.246 OA
ENDBRANCH   1   2
BRANCH   1  16
HETATM   16  C   UNK N   1       0.694   1.598  -0.649  0.00  0.00     0.022 C 
BRANCH  16  17
HETATM   17  C   UNK N   1       2.006   1.272   0.046  0.00  0.00     0.032 C 
BRANCH  17  18
HETATM   18  C   UNK N   1       2.779   0.251  -0.776  0.00  0.00     0.273 C 
BRANCH  18  19
HETATM   19  N   UNK N   1       2.353  -1.143  -0.586  0.00  0.00     0.092 N 
HETATM   20  C   UNK N   1       3.255  -1.806   0.344  0.00  0.00     0.277 C 
HETATM   21  C   UNK N   1       3.042  -3.318   0.249  0.00  0.00     0.069 C 
HETATM   22  C   UNK N   1       1.579  -3.710   0.104  0.00  0.00    -0.048 C 
HETATM   23  C   UNK N   1       0.629  -2.767  -0.044  0.00  0.00     0.011 C 
HETATM   24  C   UNK N   1       0.981  -1.312  -0.092  0.00  0.00     0.300 C 
BRANCH  22  25
HETATM   25  C   UNK N   1       1.209  -5.144   0.069  0.00  0.00    -0.030 A 
HETATM   26  C   UNK N   1       2.209  -6.126   0.106  0.00  0.00     0.012 A 
HETATM   27  C   UNK N   1       1.873  -7.481   0.049  0.00  0.00     0.001 A 
HETATM   28  C   UNK N   1       0.534  -7.865  -0.041  0.00  0.00     0.000 A 
HETATM   29  C   UNK N   1      -0.472  -6.896  -0.075  0.00  0.00     0.001 A 
HETATM   30  C   UNK N   1      -0.137  -5.540  -0.025  0.00  0.00     0.012 A 
ENDBRANCH  22  25
ENDBRANCH  18  19
ENDBRANCH  17  18
ENDBRANCH  16  17
ENDBRANCH   1  16
TORSDOF 6
