REMARK  7 active torsions:
REMARK  status: ('A' for Active; 'I' for Inactive)
REMARK    1  A    between atoms: C_2  and  C_7 
REMARK       I    between atoms: C_2  and  N_3 
REMARK    2  A    between atoms: N_3  and  C_4 
REMARK    3  A    between atoms: C_4  and  C_5 
REMARK    4  A    between atoms: C_5  and  O_6 
REMARK    5  A    between atoms: C_7  and  N_8 
REMARK    6  A    between atoms: C_18  and  N_19 
REMARK       I    between atoms: N_19  and  C_20 
REMARK    7  A    between atoms: C_20  and  C_22 
ROOT
HETATM    1  N   UNK N   1       1.206  -2.252  -0.553  0.00  0.00    -0.307 N 
HETATM    2  C   UNK N   1       0.179  -3.141  -0.383  0.00  0.00     0.248 C 
HETATM    3  O   UNK N   1       0.377  -4.341  -0.510  0.00  0.00    -0.271 OA
HETATM    4  C   UNK N   1       1.007  -0.867  -0.213  0.00  0.00     0.044 A 
HETATM    5  C   UNK N   1       1.953   0.112  -0.555  0.00  0.00     0.030 A 
HETATM    6  C   UNK N   1       1.742   1.451  -0.209  0.00  0.00     0.002 A 
HETATM    7  C   UNK N   1       0.585   1.826   0.480  0.00  0.00     0.001 A 
HETATM    8  C   UNK N   1      -0.154  -0.479   0.500  0.00  0.00    -0.029 A 
HETATM    9  C   UNK N   1      -0.361   0.862   0.836  0.00  0.00     0.009 A 
HETATM   10  C   UNK N   1      -1.159  -1.515   0.919  0.00  0.00     0.075 C 
HETATM   11  C   UNK N   1      -1.223  -2.602  -0.142  0.00  0.00     0.181 C 
ENDROOT
BRANCH  11  12
HETATM   12  N   UNK N   1      -2.247  -3.576   0.199  0.00  0.00    -0.342 N 
HETATM   13  C   UNK N   1      -2.580  -4.663  -0.550  0.00  0.00     0.269 C 
HETATM   14  O   UNK N   1      -1.911  -4.988  -1.519  0.00  0.00    -0.266 OA
HETATM   15  H   UNK N   1      -2.741  -3.437   1.039  0.00  0.00     0.163 HD
BRANCH  13  16
HETATM   16  C   UNK N   1      -3.809  -5.408  -0.238  0.00  0.00     0.102 A 
HETATM   17  C   UNK N   1      -4.226  -6.587  -0.885  0.00  0.00     0.049 A 
HETATM   18  C   UNK N   1      -5.470  -6.830  -0.353  0.00  0.00     0.002 A 
HETATM   19  C   UNK N   1      -5.737  -5.848   0.528  0.00  0.00     0.086 A 
HETATM   20  C   UNK N   1      -6.503  -7.788  -0.521  0.00  0.00     0.045 A 
HETATM   21  N   UNK N   1      -4.749  -4.957   0.637  0.00  0.00    -0.345 N 
HETATM   22  S   UNK N   1      -7.241  -6.063   1.151  0.00  0.00    -0.059 SA
HETATM   23  H   UNK N   1      -4.710  -4.161   1.214  0.00  0.00     0.167 HD
HETATM   24  C   UNK N   1      -7.609  -7.466   0.302  0.00  0.00     0.077 A 
HETATM   25 Cl   UNK N   1      -9.117  -8.349   0.396  0.00  0.00    -0.076 Cl
ENDBRANCH  13  16
ENDBRANCH  11  12
BRANCH   1  26
HETATM   26  C   UNK N   1       2.418  -2.706  -1.216  0.00  0.00     0.235 C 
BRANCH  26  27
HETATM   27  C   UNK N   1       3.643  -2.824  -0.368  0.00  0.00     0.235 C 
HETATM   28  O   UNK N   1       4.148  -1.828   0.128  0.00  0.00    -0.272 OA
HETATM   29  N   UNK N   1       4.255  -4.033  -0.290  0.00  0.00    -0.358 N 
HETATM   30  H   UNK N   1       3.768  -4.817  -0.635  0.00  0.00     0.162 HD
BRANCH  29  31
HETATM   31  C   UNK N   1       5.575  -4.251   0.265  0.00  0.00     0.148 C 
BRANCH  31  32
HETATM   32  C   UNK N   1       5.705  -3.742   1.686  0.00  0.00     0.183 C 
BRANCH  32  33
HETATM   33  O   UNK N   1       6.554  -2.636   1.688  0.00  0.00    -0.399 OA
HETATM   34  H   UNK N   1       7.516  -2.762   1.689  0.00  0.00     0.209 HD
ENDBRANCH  32  33
ENDBRANCH  31  32
ENDBRANCH  29  31
ENDBRANCH  26  27
ENDBRANCH   1  26
TORSDOF 7
