REMARK  3 active torsions:
REMARK  status: ('A' for Active; 'I' for Inactive)
REMARK    1  A    between atoms: C_9  and  C_12 
REMARK    2  A    between atoms: C_10  and  C_11 
REMARK    3  A    between atoms: C_25  and  N_29 
ROOT
HETATM    1  C   UNK N   1       4.974   1.574   0.006  0.00  0.00     0.019 A 
HETATM    2  C   UNK N   1       4.517   0.248   0.004  0.00  0.00     0.116 A 
HETATM    3  N   UNK N   1       3.181   0.031  -0.000  0.00  0.00    -0.266 N 
HETATM    4  C   UNK N   1       2.266   1.009  -0.002  0.00  0.00     0.070 A 
HETATM    5  C   UNK N   1       2.661   2.350   0.001  0.00  0.00     0.032 A 
HETATM    6  C   UNK N   1       4.039   2.626   0.005  0.00  0.00     0.004 A 
HETATM    7  N   UNK N   1       2.590  -1.151  -0.002  0.00  0.00    -0.292 N 
ATOM      8  HN  UNK N   1       3.064  -2.054  -0.000  1.00  0.00     0.187 HD
HETATM    9  C   UNK N   1       1.248  -0.959  -0.006  0.00  0.00     0.073 A 
HETATM   10  C   UNK N   1       0.996   0.448  -0.006  0.00  0.00     0.050 A 
ENDROOT
BRANCH  10  11
HETATM   11  C   UNK N   1      -0.277   1.234  -0.003  0.00  0.00     0.064 A 
HETATM   12  C   UNK N   1      -1.514   0.586   0.000  0.00  0.00     0.051 A 
HETATM   13  C   UNK N   1      -2.649   1.355   0.004  0.00  0.00     0.058 A 
HETATM   14  C   UNK N   1      -2.577   2.696   0.006  0.00  0.00     0.148 A 
HETATM   15  C   UNK N   1      -3.981   1.065   0.007  0.00  0.00     0.127 A 
HETATM   16  N   UNK N   1      -1.387   3.343   0.004  0.00  0.00    -0.283 N 
HETATM   17  N   UNK N   1      -3.812   3.232   0.010  0.00  0.00    -0.282 N 
HETATM   18  N   UNK N   1      -0.256   2.615  -0.001  0.00  0.00    -0.298 N 
ATOM     19  HN  UNK N   1      -1.349   4.362   0.005  1.00  0.00     0.188 HD
ATOM     20  HN  UNK N   1       0.643   3.096  -0.003  1.00  0.00     0.187 HD
HETATM   21  N   UNK N   1      -4.683   2.221   0.010  0.00  0.00    -0.283 N 
HETATM   22  H   UNK N   1      -4.031   4.192   0.012  0.00  0.00     0.188 HD
ATOM     23  HN  UNK N   1      -5.699   2.306   0.013  1.00  0.00     0.188 HD
BRANCH  15  24
HETATM   24  N   UNK N   1      -4.556  -0.223   0.005  0.00  0.00    -0.384 N 
HETATM   25  H   UNK N   1      -5.536  -0.325   0.004  0.00  0.00     0.157 HD
HETATM   26  H   UNK N   1      -3.979  -1.020   0.005  0.00  0.00     0.157 HD
ENDBRANCH  15  24
ENDBRANCH  10  11
BRANCH   9  27
HETATM   27  C   UNK N   1       0.332  -2.148  -0.009  0.00  0.00    -0.007 A 
HETATM   28  C   UNK N   1       0.897  -3.434   0.022  0.00  0.00     0.014 A 
HETATM   29  C   UNK N   1       0.085  -4.575   0.023  0.00  0.00     0.001 A 
HETATM   30  C   UNK N   1      -1.305  -4.446  -0.010  0.00  0.00     0.000 A 
HETATM   31  C   UNK N   1      -1.880  -3.178  -0.044  0.00  0.00     0.001 A 
HETATM   32  C   UNK N   1      -1.062  -2.048  -0.043  0.00  0.00     0.014 A 
ENDBRANCH   9  27
TORSDOF 3
