REMARK  5 active torsions:
REMARK  status: ('A' for Active; 'I' for Inactive)
REMARK    1  A    between atoms: C_6  and  O_21 
REMARK    2  A    between atoms: C_8  and  O_20 
REMARK    3  A    between atoms: C_9  and  C_10 
REMARK    4  A    between atoms: C_13  and  O_19 
REMARK    5  A    between atoms: C_14  and  O_18 
ROOT
HETATM    1  C   UNK N   1      -4.664  -1.110   0.000  0.00  0.00     0.037 A 
HETATM    2  C   UNK N   1      -3.539  -1.941   0.000  0.00  0.00     0.021 A 
HETATM    3  C   UNK N   1      -2.254  -1.381  -0.000  0.00  0.00     0.051 A 
HETATM    4  C   UNK N   1      -2.106   0.021  -0.000  0.00  0.00     0.093 A 
HETATM    5  C   UNK N   1      -3.234   0.843  -0.000  0.00  0.00     0.074 A 
HETATM    6  C   UNK N   1      -4.510   0.280   0.000  0.00  0.00     0.068 A 
HETATM    7  C   UNK N   1      -1.102  -2.175  -0.000  0.00  0.00     0.220 A 
HETATM    8  C   UNK N   1       0.153  -1.559  -0.000  0.00  0.00     0.152 A 
HETATM    9  C   UNK N   1       0.224  -0.143  -0.000  0.00  0.00     0.123 A 
HETATM   10  O   UNK N   1      -0.901   0.570  -0.000  0.00  0.00    -0.306 OA
HETATM   11  O   UNK N   1      -1.187  -3.393   0.000  0.00  0.00    -0.284 OA
ENDROOT
BRANCH   9  12
HETATM   12  C   UNK N   1       1.505   0.602  -0.000  0.00  0.00     0.004 A 
HETATM   13  C   UNK N   1       1.477   2.005  -0.000  0.00  0.00     0.017 A 
HETATM   14  C   UNK N   1       2.665   2.738   0.000  0.00  0.00     0.040 A 
HETATM   15  C   UNK N   1       3.894   2.075   0.000  0.00  0.00     0.098 A 
HETATM   16  C   UNK N   1       3.932   0.675   0.000  0.00  0.00     0.099 A 
HETATM   17  C   UNK N   1       2.743  -0.053  -0.000  0.00  0.00     0.053 A 
BRANCH  15  18
HETATM   18  O   UNK N   1       5.034   2.784   0.000  0.00  0.00    -0.358 OA
HETATM   19  H   UNK N   1       5.861   2.343   0.000  0.00  0.00     0.217 HD
ENDBRANCH  15  18
BRANCH  16  20
HETATM   20  O   UNK N   1       5.107   0.024   0.000  0.00  0.00    -0.358 OA
HETATM   21  H   UNK N   1       5.125  -0.912   0.000  0.00  0.00     0.217 HD
ENDBRANCH  16  20
ENDBRANCH   9  12
BRANCH   8  22
HETATM   22  O   UNK N   1       1.264  -2.320  -0.000  0.00  0.00    -0.355 OA
HETATM   23  H   UNK N   1       1.193  -3.254  -0.000  0.00  0.00     0.218 HD
ENDBRANCH   8  22
BRANCH   6  24
HETATM   24  O   UNK N   1      -5.590   1.077   0.000  0.00  0.00    -0.361 OA
HETATM   25  H   UNK N   1      -5.486   2.008   0.000  0.00  0.00     0.217 HD
ENDBRANCH   6  24
TORSDOF 5
