REMARK  5 active torsions:
REMARK  status: ('A' for Active; 'I' for Inactive)
REMARK    1  A    between atoms: N_3  and  C_4 
REMARK    2  A    between atoms: C_4  and  C_5 
REMARK    3  A    between atoms: C_20  and  C_21 
REMARK    4  A    between atoms: C_24  and  C_27 
REMARK    5  A    between atoms: C_27  and  N_29 
ROOT
HETATM    1  O   UNK N   1      -2.200   0.568  -1.144  0.00  0.00    -0.272 OA
HETATM    2  C   UNK N   1      -1.449  -0.193  -0.552  0.00  0.00     0.234 C 
HETATM    3  N   UNK N   1      -1.880  -1.207   0.227  0.00  0.00    -0.283 N 
HETATM    4  C   UNK N   1      -0.814  -1.875   0.717  0.00  0.00     0.234 C 
HETATM    5  O   UNK N   1      -0.900  -2.815   1.493  0.00  0.00    -0.272 OA
HETATM    6  C   UNK N   1       0.428  -1.105   0.455  0.00  0.00     0.127 C 
HETATM    7  C   UNK N   1       1.872  -1.410   0.150  0.00  0.00     0.237 C 
HETATM    8  N   UNK N   1       2.383  -0.076  -0.228  0.00  0.00     0.103 N 
HETATM    9  C   UNK N   1       3.450  -0.316  -1.203  0.00  0.00     0.274 C 
HETATM   10  C   UNK N   1       3.412  -1.784  -1.610  0.00  0.00     0.032 C 
HETATM   11  C   UNK N   1       2.121  -2.322  -1.040  0.00  0.00     0.038 C 
HETATM   12  C   UNK N   1       1.233   0.674  -0.840  0.00  0.00     0.270 C 
HETATM   13  C   UNK N   1       0.035  -0.289  -0.765  0.00  0.00     0.131 C 
ENDROOT
BRANCH  12  14
HETATM   14  C   UNK N   1       1.052   2.051  -0.241  0.00  0.00    -0.024 A 
HETATM   15  C   UNK N   1      -0.211   2.510   0.162  0.00  0.00     0.010 A 
HETATM   16  C   UNK N   1      -0.416   3.864   0.440  0.00  0.00     0.016 A 
HETATM   17  C   UNK N   1       0.642   4.778   0.326  0.00  0.00     0.007 A 
HETATM   18  C   UNK N   1       1.919   4.309  -0.009  0.00  0.00     0.016 A 
HETATM   19  C   UNK N   1       2.118   2.958  -0.304  0.00  0.00     0.010 A 
BRANCH  17  20
HETATM   20  C   UNK N   1       0.405   6.230   0.479  0.00  0.00     0.102 C 
HETATM   21  N   UNK N   1      -0.787   6.678   0.638  0.00  0.00    -0.385 N 
HETATM   22  H   UNK N   1      -0.947   7.641   0.759  0.00  0.00     0.157 HD
HETATM   23  H   UNK N   1      -1.548   6.052   0.638  0.00  0.00     0.157 HD
BRANCH  20  24
HETATM   24  N   UNK N   1       1.467   7.145   0.296  0.00  0.00    -0.385 N 
HETATM   25  H   UNK N   1       2.389   6.823   0.168  0.00  0.00     0.157 HD
HETATM   26  H   UNK N   1       1.284   8.113   0.296  0.00  0.00     0.157 HD
ENDBRANCH  20  24
ENDBRANCH  17  20
ENDBRANCH  12  14
BRANCH   3  27
HETATM   27  C   UNK N   1      -3.269  -1.491   0.536  0.00  0.00     0.173 C 
BRANCH  27  28
HETATM   28  C   UNK N   1      -3.594  -2.927   0.301  0.00  0.00    -0.040 A 
HETATM   29  C   UNK N   1      -3.792  -3.768   1.402  0.00  0.00     0.012 A 
HETATM   30  C   UNK N   1      -4.024  -5.131   1.209  0.00  0.00     0.043 A 
HETATM   31  C   UNK N   1      -4.067  -5.654  -0.086  0.00  0.00     0.116 A 
HETATM   32  F   UNK N   1      -4.277  -6.979  -0.271  0.00  0.00    -0.206 F 
HETATM   33  C   UNK N   1      -3.885  -4.812  -1.189  0.00  0.00     0.043 A 
HETATM   34  C   UNK N   1      -3.642  -3.448  -0.996  0.00  0.00     0.012 A 
ENDBRANCH  27  28
ENDBRANCH   3  27
TORSDOF 5
