REMARK  6 active torsions:
REMARK  status: ('A' for Active; 'I' for Inactive)
REMARK    1  A    between atoms: C_5  and  C_6 
REMARK    2  A    between atoms: C_12  and  S_13 
REMARK    3  A    between atoms: S_13  and  N_16 
REMARK    4  A    between atoms: N_16  and  C_17 
REMARK    5  A    between atoms: C_17  and  C_18 
REMARK    6  A    between atoms: C_18  and  C_19 
ROOT
HETATM    1  C   UNK N   1      -1.211  -0.871  -0.150  0.00  0.00     0.034 A 
HETATM    2  C   UNK N   1      -2.409  -0.163   0.016  0.00  0.00    -0.033 A 
HETATM    3  C   UNK N   1      -3.713  -0.888   0.004  0.00  0.00     0.153 C 
HETATM    4  N   UNK N   1      -4.745  -0.051  -0.612  0.00  0.00    -0.411 N 
HETATM    5  C   UNK N   1      -4.932   1.157   0.197  0.00  0.00     0.109 C 
HETATM    6  C   UNK N   1      -3.664   2.028   0.194  0.00  0.00     0.066 C 
HETATM    7  C   UNK N   1      -2.383   1.237   0.139  0.00  0.00    -0.048 A 
HETATM    8  C   UNK N   1      -1.165   1.915   0.129  0.00  0.00     0.009 A 
HETATM    9  C   UNK N   1       0.030   1.205  -0.029  0.00  0.00     0.026 A 
HETATM   10  C   UNK N   1       0.006  -0.185  -0.175  0.00  0.00     0.080 A 
HETATM   11  H   UNK N   1      -5.252  -0.273  -1.468  0.00  0.00     0.154 HD
ENDROOT
BRANCH  10  12
HETATM   12  S   UNK N   1       1.518  -1.055  -0.566  0.00  0.00     0.258 S 
HETATM   13  O   UNK N   1       1.306  -1.957  -1.791  0.00  0.00    -0.201 OA
HETATM   14  O   UNK N   1       2.579  -0.089  -1.119  0.00  0.00    -0.201 OA
BRANCH  12  15
HETATM   15  N   UNK N   1       2.321  -2.111   0.622  0.00  0.00    -0.315 N 
HETATM   16  H   UNK N   1       1.946  -2.998   0.958  0.00  0.00     0.172 HD
BRANCH  15  17
HETATM   17  C   UNK N   1       3.589  -1.530   1.049  0.00  0.00     0.141 C 
BRANCH  17  18
HETATM   18  C   UNK N   1       4.639  -1.684  -0.047  0.00  0.00     0.137 C 
BRANCH  18  19
HETATM   19  C   UNK N   1       5.825  -0.760   0.188  0.00  0.00     0.389 C 
HETATM   20  F   UNK N   1       6.616  -0.746  -0.944  0.00  0.00    -0.171 F 
HETATM   21  F   UNK N   1       6.570  -1.216   1.259  0.00  0.00    -0.171 F 
HETATM   22  F   UNK N   1       5.388   0.529   0.443  0.00  0.00    -0.171 F 
ENDBRANCH  18  19
ENDBRANCH  17  18
ENDBRANCH  15  17
ENDBRANCH  12  15
ENDBRANCH  10  12
BRANCH   5  23
HETATM   23  C   UNK N   1      -6.084   1.955  -0.391  0.00  0.00     0.247 C 
HETATM   24  F   UNK N   1      -6.316   3.106   0.341  0.00  0.00    -0.253 F 
ENDBRANCH   5  23
TORSDOF 6
