REMARK  12 active torsions:
REMARK  status: ('A' for Active; 'I' for Inactive)
REMARK    1  A    between atoms: C_2  and  C_3 
REMARK       I    between atoms: N_21  and  C_2 
REMARK    2  A    between atoms: C_3  and  C_4 
REMARK    3  A    between atoms: C_5  and  C_4 
REMARK    4  A    between atoms: C_6  and  C_5 
REMARK    5  A    between atoms: C_7  and  C_6 
REMARK    6  A    between atoms: N_8  and  C_7 
REMARK    7  A    between atoms: C_9  and  N_8 
REMARK    8  A    between atoms: C_22  and  N_21 
REMARK    9  A    between atoms: C_28  and  C_26 
REMARK       I    between atoms: N_30  and  C_28 
REMARK   10  A    between atoms: C_31  and  N_30 
REMARK   11  A    between atoms: C_32  and  C_31 
REMARK   12  A    between atoms: C_32  and  C_33 
ROOT
HETATM    1  C   UNK N   1      -1.401   0.471   0.426  0.00  0.00     0.103 C 
ENDROOT
BRANCH   1   2
HETATM    2  C   UNK N   1      -0.424  -0.650   0.534  0.00  0.00     0.222 C 
HETATM    3  O   UNK N   1      -0.554  -1.502   1.401  0.00  0.00    -0.273 OA
HETATM    4  N   UNK N   1       0.655  -0.633  -0.270  0.00  0.00    -0.327 N 
HETATM    5  H   UNK N   1       0.699   0.073  -0.955  0.00  0.00     0.169 HD
BRANCH   4   6
HETATM    6  C   UNK N   1       1.729  -1.545  -0.209  0.00  0.00     0.035 A 
HETATM    7  C   UNK N   1       1.586  -2.922   0.030  0.00  0.00     0.029 A 
HETATM    8  C   UNK N   1       2.739  -3.723   0.145  0.00  0.00     0.003 A 
HETATM    9  C   UNK N   1       4.020  -3.138   0.078  0.00  0.00     0.017 A 
HETATM   10  C   UNK N   1       4.131  -1.755  -0.137  0.00  0.00     0.034 A 
HETATM   11  C   UNK N   1       2.981  -1.000  -0.294  0.00  0.00     0.046 A 
BRANCH  10  12
HETATM   12  C   UNK N   1       5.393  -0.996  -0.102  0.00  0.00     0.251 C 
HETATM   13  O   UNK N   1       6.471  -1.544   0.070  0.00  0.00    -0.268 OA
HETATM   14  N   UNK N   1       5.292   0.353  -0.192  0.00  0.00    -0.357 N 
HETATM   15  H   UNK N   1       4.389   0.709  -0.351  0.00  0.00     0.162 HD
BRANCH  14  16
HETATM   16  C   UNK N   1       6.339   1.322  -0.083  0.00  0.00     0.123 C 
BRANCH  16  17
HETATM   17  C   UNK N   1       5.626   2.664  -0.121  0.00  0.00     0.019 C 
BRANCH  17  18
HETATM   18  C   UNK N   1       6.556   3.836   0.067  0.00  0.00    -0.003 C 
HETATM   19  C   UNK N   1       5.727   5.106   0.035  0.00  0.00     0.005 C 
ENDBRANCH  17  18
ENDBRANCH  16  17
ENDBRANCH  14  16
ENDBRANCH  10  12
ENDBRANCH   4   6
ENDBRANCH   1   2
BRANCH   1  20
HETATM   20  C   UNK N   1      -2.511   0.083  -0.517  0.00  0.00     0.009 C 
BRANCH  20  21
HETATM   21  C   UNK N   1      -3.284  -1.017   0.159  0.00  0.00     0.002 C 
BRANCH  21  22
HETATM   22  C   UNK N   1      -4.291  -1.638  -0.763  0.00  0.00     0.020 C 
BRANCH  22  23
HETATM   23  C   UNK N   1      -5.203  -2.400   0.160  0.00  0.00     0.121 C 
BRANCH  23  24
HETATM   24  N   UNK N   1      -6.577  -2.338  -0.261  0.00  0.00    -0.374 N 
HETATM   25  H   UNK N   1      -6.969  -3.158  -0.639  0.00  0.00     0.161 HD
BRANCH  24  26
HETATM   26  C   UNK N   1      -7.420  -1.193  -0.176  0.00  0.00     0.133 A 
HETATM   27  N   UNK N   1      -8.771  -1.375  -0.251  0.00  0.00    -0.337 N 
HETATM   28  C   UNK N   1      -9.646  -0.323  -0.165  0.00  0.00     0.183 A 
ATOM     29  HN  UNK N   1      -9.139  -2.318  -0.374  1.00  0.00     0.168 HD
HETATM   30  N   UNK N   1      -9.183   0.953  -0.016  0.00  0.00    -0.337 N 
HETATM   31  C   UNK N   1      -7.846   1.143   0.048  0.00  0.00     0.138 A 
ATOM     32  HN  UNK N   1      -9.828   1.741   0.045  1.00  0.00     0.168 HD
HETATM   33  C   UNK N   1      -6.962   0.126  -0.020  0.00  0.00     0.122 A 
HETATM   34  N   UNK N   1      -7.210   2.312   0.175  0.00  0.00    -0.337 N 
HETATM   35  N   UNK N   1      -5.720   0.626   0.067  0.00  0.00    -0.346 N 
HETATM   36  C   UNK N   1      -5.896   1.969   0.184  0.00  0.00     0.182 A 
ATOM     37  HN  UNK N   1      -4.839   0.112   0.049  1.00  0.00     0.167 HD
HETATM   38  H   UNK N   1      -7.602   3.212   0.247  0.00  0.00     0.168 HD
ENDBRANCH  24  26
ENDBRANCH  23  24
ENDBRANCH  22  23
ENDBRANCH  21  22
ENDBRANCH  20  21
ENDBRANCH   1  20
TORSDOF 12
