REMARK  6 active torsions:
REMARK  status: ('A' for Active; 'I' for Inactive)
REMARK       I    between atoms: C_2  and  N_3 
REMARK    1  A    between atoms: C_2  and  C_9 
REMARK    2  A    between atoms: C_9  and  N_11 
REMARK    3  A    between atoms: C_16  and  N_17 
REMARK    4  A    between atoms: N_17  and  S_18 
REMARK    5  A    between atoms: S_18  and  C_21 
REMARK    6  A    between atoms: C_27  and  C_28 
ROOT
HETATM    1  N   UNK N   1       0.214  -0.591  -0.845  0.00  0.00    -0.299 N 
HETATM    2  H   UNK N   1       0.753  -0.580  -1.712  0.00  0.00     0.173 HD
ENDROOT
BRANCH   1   3
HETATM    3  C   UNK N   1       0.022  -1.718   0.044  0.00  0.00     0.186 C 
HETATM    4  C   UNK N   1      -1.136  -2.600  -0.429  0.00  0.00     0.055 C 
HETATM    5  C   UNK N   1      -0.639  -4.044  -0.302  0.00  0.00     0.129 C 
HETATM    6  N   UNK N   1       0.778  -3.922  -0.064  0.00  0.00    -0.337 N 
HETATM    7  C   UNK N   1       1.157  -2.644   0.038  0.00  0.00     0.244 C 
HETATM    8  O   UNK N   1       2.307  -2.302   0.278  0.00  0.00    -0.271 OA
BRANCH   6   9
HETATM    9  C   UNK N   1       1.665  -5.051   0.207  0.00  0.00     0.175 C 
HETATM   10  C   UNK N   1       2.331  -4.861   1.566  0.00  0.00     0.042 C 
BRANCH   9  11
HETATM   11  C   UNK N   1       0.895  -6.359   0.299  0.00  0.00     0.242 C 
HETATM   12  O   UNK N   1      -0.080  -6.411   1.040  0.00  0.00    -0.271 OA
HETATM   13  N   UNK N   1       1.289  -7.483  -0.361  0.00  0.00    -0.346 N 
HETATM   14  C   UNK N   1       2.527  -7.543  -1.102  0.00  0.00     0.152 C 
HETATM   15  C   UNK N   1       0.575  -8.725  -0.168  0.00  0.00     0.152 C 
HETATM   16  C   UNK N   1       3.379  -8.632  -0.443  0.00  0.00     0.187 C 
HETATM   17  O   UNK N   1       2.673  -9.856  -0.447  0.00  0.00    -0.388 OA
HETATM   18  C   UNK N   1       1.571  -9.721   0.424  0.00  0.00     0.187 C 
ENDBRANCH   9  11
ENDBRANCH   6   9
ENDBRANCH   1   3
BRANCH   1  19
HETATM   19  S   UNK N   1      -0.668   0.757  -0.131  0.00  0.00     0.293 S 
HETATM   20  O   UNK N   1      -0.240   1.974  -0.962  0.00  0.00    -0.197 OA
HETATM   21  O   UNK N   1       0.031   1.070   1.202  0.00  0.00    -0.197 OA
BRANCH  19  22
HETATM   22  C   UNK N   1      -2.432   0.767   0.037  0.00  0.00     0.240 A 
HETATM   23  N   UNK N   1      -3.303   0.151  -0.790  0.00  0.00    -0.273 N 
HETATM   24  N   UNK N   1      -4.456   0.794  -0.674  0.00  0.00    -0.282 N 
ATOM     25  HN  UNK N   1      -3.111  -0.653  -1.387  1.00  0.00     0.189 HD
HETATM   26  C   UNK N   1      -4.251   1.791   0.211  0.00  0.00     0.139 A 
HETATM   27  H   UNK N   1      -5.296   0.585  -1.143  0.00  0.00     0.188 HD
HETATM   28  N   UNK N   1      -3.001   1.784   0.670  0.00  0.00    -0.314 N 
ATOM     29  HN  UNK N   1      -2.579   2.415   1.352  1.00  0.00     0.170 HD
BRANCH  26  30
HETATM   30  C   UNK N   1      -4.995   3.035   0.257  0.00  0.00     0.052 A 
HETATM   31  C   UNK N   1      -6.031   3.431  -0.592  0.00  0.00     0.025 A 
HETATM   32  C   UNK N   1      -6.192   4.852  -0.624  0.00  0.00     0.033 A 
HETATM   33  C   UNK N   1      -5.264   5.527   0.181  0.00  0.00     0.075 A 
HETATM   34  S   UNK N   1      -4.321   4.401   0.901  0.00  0.00    -0.074 SA
HETATM   35 Cl   UNK N   1      -4.984   7.250   0.270  0.00  0.00    -0.076 Cl
ENDBRANCH  26  30
ENDBRANCH  19  22
ENDBRANCH   1  19
TORSDOF 6
