REMARK  4 active torsions:
REMARK  status: ('A' for Active; 'I' for Inactive)
REMARK    1  A    between atoms: C_2  and  C_5 
REMARK    2  A    between atoms: C_10  and  N_11 
REMARK       I    between atoms: N_11  and  C_12 
REMARK    3  A    between atoms: C_12  and  C_14 
REMARK    4  A    between atoms: C_14  and  C_17 
ROOT
HETATM    1  C   UNK N   1      -1.209  -0.986  -0.076  0.00  0.00     0.048 A 
HETATM    2  C   UNK N   1      -0.379  -2.101   0.111  0.00  0.00     0.018 A 
HETATM    3  C   UNK N   1       1.012  -1.955   0.094  0.00  0.00     0.030 A 
HETATM    4  C   UNK N   1      -0.634   0.267  -0.312  0.00  0.00     0.018 A 
HETATM    5  C   UNK N   1       0.753   0.413  -0.317  0.00  0.00     0.030 A 
HETATM    6  C   UNK N   1       1.589  -0.695  -0.100  0.00  0.00     0.034 A 
ENDROOT
BRANCH   6   7
HETATM    7  N   UNK N   1       3.005  -0.560   0.014  0.00  0.00    -0.327 N 
HETATM    8  C   UNK N   1       3.674   0.616   0.184  0.00  0.00     0.231 C 
HETATM    9  O   UNK N   1       3.063   1.678   0.230  0.00  0.00    -0.272 OA
HETATM   10  H   UNK N   1       3.543  -1.383  -0.034  0.00  0.00     0.169 HD
BRANCH   8  11
HETATM   11  C   UNK N   1       5.173   0.605   0.390  0.00  0.00     0.046 C 
HETATM   12  C   UNK N   1       5.494  -0.278   1.587  0.00  0.00     0.026 C 
HETATM   13  C   UNK N   1       5.695   2.009   0.682  0.00  0.00     0.026 C 
BRANCH  11  14
HETATM   14  C   UNK N   1       5.859   0.057  -0.862  0.00  0.00     0.133 C 
HETATM   15 Cl   UNK N   1       7.645   0.024  -0.720  0.00  0.00    -0.129 Cl
ENDBRANCH  11  14
ENDBRANCH   8  11
ENDBRANCH   6   7
BRANCH   1  16
HETATM   16  C   UNK N   1      -2.703  -1.108   0.014  0.00  0.00     0.417 C 
HETATM   17  F   UNK N   1      -3.278  -0.731  -1.185  0.00  0.00    -0.166 F 
HETATM   18  F   UNK N   1      -3.082  -2.407   0.307  0.00  0.00    -0.166 F 
HETATM   19  F   UNK N   1      -3.165  -0.276   1.018  0.00  0.00    -0.166 F 
ENDBRANCH   1  16
TORSDOF 4
