REMARK  9 active torsions:
REMARK  status: ('A' for Active; 'I' for Inactive)
REMARK    1  A    between atoms: C_1  and  C_7 
REMARK    2  A    between atoms: C_2  and  C_3 
REMARK    3  A    between atoms: C_3  and  C_4 
REMARK    4  A    between atoms: C_3  and  N_25 
REMARK       I    between atoms: C_4  and  N_26 
REMARK    5  A    between atoms: C_7  and  O_30 
REMARK    6  A    between atoms: C_9  and  C_22 
REMARK    7  A    between atoms: C_9  and  N_26 
REMARK    8  A    between atoms: C_10  and  C_11 
REMARK       I    between atoms: C_10  and  N_25 
REMARK    9  A    between atoms: C_11  and  C_13 
ROOT
HETATM    1  C   UNK N   1      -0.420   1.117   0.333  0.00  0.00     0.209 C 
ENDROOT
BRANCH   1   2
HETATM    2  C   UNK N   1      -0.173  -0.147  -0.562  0.00  0.00     0.172 C 
HETATM    3  N   UNK N   1       0.762  -1.017   0.166  0.00  0.00    -0.392 N 
HETATM    4  C   UNK N   1       0.605  -2.361  -0.353  0.00  0.00     0.194 C 
HETATM    5  H   UNK N   1       1.405  -0.727   0.903  0.00  0.00     0.155 HD
HETATM    6  C   UNK N   1      -0.888  -2.661  -0.294  0.00  0.00     0.033 C 
HETATM    7  C   UNK N   1      -1.243  -3.878  -1.129  0.00  0.00     0.029 C 
HETATM    8  C   UNK N   1      -1.420  -2.824   1.125  0.00  0.00     0.029 C 
HETATM    9  S   UNK N   1      -1.634  -1.182  -0.992  0.00  0.00    -0.130 SA
BRANCH   4  10
HETATM   10  C   UNK N   1       1.498  -3.319   0.398  0.00  0.00     0.164 C 
HETATM   11  O   UNK N   1       2.702  -3.122   0.426  0.00  0.00    -0.648 OA
BRANCH  10  12
HETATM   12  O   UNK N   1       0.990  -4.395   1.031  0.00  0.00    -0.775 OA
HETATM   13  H   UNK N   1       0.166  -4.463   1.471  0.00  0.00     0.167 HD
ENDBRANCH  10  12
ENDBRANCH   4  10
ENDBRANCH   1   2
BRANCH   1  14
HETATM   14  C   UNK N   1      -1.164   2.368  -0.208  0.00  0.00     0.243 C 
HETATM   15  N   UNK N   1      -2.427   2.375  -0.720  0.00  0.00    -0.355 N 
HETATM   16  H   UNK N   1      -2.861   3.251  -0.838  0.00  0.00     0.162 HD
HETATM   17  O   UNK N   1      -0.606   3.454  -0.090  0.00  0.00    -0.271 OA
BRANCH  15  18
HETATM   18  C   UNK N   1      -3.181   1.212  -1.102  0.00  0.00     0.161 C 
BRANCH  18  19
HETATM   19  C   UNK N   1      -4.416   0.943  -0.307  0.00  0.00    -0.041 A 
HETATM   20  C   UNK N   1      -5.520   1.803  -0.365  0.00  0.00     0.009 A 
HETATM   21  C   UNK N   1      -6.712   1.452   0.282  0.00  0.00     0.001 A 
HETATM   22  C   UNK N   1      -6.807   0.237   0.971  0.00  0.00     0.000 A 
HETATM   23  C   UNK N   1      -5.709  -0.624   1.023  0.00  0.00     0.001 A 
HETATM   24  C   UNK N   1      -4.520  -0.273   0.378  0.00  0.00     0.009 A 
ENDBRANCH  18  19
ENDBRANCH  15  18
ENDBRANCH   1  14
BRANCH   1  25
HETATM   25  N   UNK N   1       0.882   1.530   0.869  0.00  0.00    -0.345 N 
HETATM   26  C   UNK N   1       1.974   1.886   0.123  0.00  0.00     0.222 C 
HETATM   27  O   UNK N   1       1.920   1.914  -1.098  0.00  0.00    -0.273 OA
HETATM   28  H   UNK N   1       0.980   1.553   1.849  0.00  0.00     0.163 HD
BRANCH  26  29
HETATM   29  C   UNK N   1       3.256   2.242   0.821  0.00  0.00     0.141 C 
BRANCH  29  30
HETATM   30  C   UNK N   1       4.429   1.375   0.451  0.00  0.00    -0.050 A 
HETATM   31  C   UNK N   1       4.368  -0.019   0.592  0.00  0.00     0.007 A 
HETATM   32  C   UNK N   1       5.490  -0.806   0.300  0.00  0.00     0.001 A 
HETATM   33  C   UNK N   1       6.680  -0.203  -0.117  0.00  0.00     0.000 A 
HETATM   34  C   UNK N   1       6.748   1.187  -0.252  0.00  0.00     0.001 A 
HETATM   35  C   UNK N   1       5.625   1.973   0.031  0.00  0.00     0.007 A 
ENDBRANCH  29  30
ENDBRANCH  26  29
ENDBRANCH   1  25
TORSDOF 9
