REMARK  8 active torsions:
REMARK  status: ('A' for Active; 'I' for Inactive)
REMARK    1  A    between atoms: C_6  and  C_7 
REMARK    2  A    between atoms: C_7  and  C_8 
REMARK    3  A    between atoms: C_8  and  C_9 
REMARK    4  A    between atoms: C_9  and  N_10 
REMARK    5  A    between atoms: C_13  and  O_14 
REMARK    6  A    between atoms: C_15  and  O_16 
REMARK    7  A    between atoms: C_17  and  C_18 
REMARK    8  A    between atoms: C_18  and  O_19 
ROOT
HETATM    1  N   UNK N   1      -0.955   1.148  -0.390  0.00  0.00     0.091 N 
HETATM    2  C   UNK N   1      -0.830  -0.046   0.452  0.00  0.00     0.281 C 
HETATM    3  C   UNK N   1      -2.317   1.714  -0.394  0.00  0.00     0.306 C 
HETATM    4  C   UNK N   1      -3.373   0.825   0.278  0.00  0.00     0.175 C 
HETATM    5  C   UNK N   1      -3.227  -0.620  -0.224  0.00  0.00     0.156 C 
HETATM    6  C   UNK N   1      -1.769  -1.154  -0.038  0.00  0.00     0.069 C 
ENDROOT
BRANCH   1   7
HETATM    7  C   UNK N   1      -0.067   2.164   0.149  0.00  0.00     0.273 C 
BRANCH   7   8
HETATM    8  C   UNK N   1       1.267   2.121  -0.572  0.00  0.00     0.035 C 
BRANCH   8   9
HETATM    9  C   UNK N   1       2.388   2.020   0.447  0.00  0.00     0.040 C 
BRANCH   9  10
HETATM   10  C   UNK N   1       3.185   0.778   0.234  0.00  0.00    -0.058 A 
HETATM   11  C   UNK N   1       4.554   0.869  -0.047  0.00  0.00     0.007 A 
HETATM   12  C   UNK N   1       5.310  -0.291  -0.233  0.00  0.00     0.001 A 
HETATM   13  C   UNK N   1       4.701  -1.547  -0.140  0.00  0.00     0.000 A 
HETATM   14  C   UNK N   1       3.335  -1.642   0.143  0.00  0.00     0.001 A 
HETATM   15  C   UNK N   1       2.580  -0.483   0.333  0.00  0.00     0.007 A 
ENDBRANCH   9  10
ENDBRANCH   8   9
ENDBRANCH   7   8
ENDBRANCH   1   7
BRANCH   6  16
HETATM   16  C   UNK N   1      -1.652  -2.336   0.922  0.00  0.00     0.173 C 
BRANCH  16  17
HETATM   17  O   UNK N   1      -2.270  -3.466   0.381  0.00  0.00    -0.400 OA
HETATM   18  H   UNK N   1      -3.164  -3.487   0.005  0.00  0.00     0.209 HD
ENDBRANCH  16  17
ENDBRANCH   6  16
BRANCH   4  19
HETATM   19  O   UNK N   1      -4.646   1.315  -0.018  0.00  0.00    -0.391 OA
HETATM   20  H   UNK N   1      -4.793   2.252  -0.224  0.00  0.00     0.210 HD
ENDBRANCH   4  19
BRANCH   5  21
HETATM   21  O   UNK N   1      -4.171  -1.434   0.410  0.00  0.00    -0.392 OA
HETATM   22  H   UNK N   1      -4.988  -1.150   0.849  0.00  0.00     0.210 HD
ENDBRANCH   5  21
TORSDOF 8
