REMARK  4 active torsions:
REMARK  status: ('A' for Active; 'I' for Inactive)
REMARK    1  A    between atoms: C_8  and  N_9 
REMARK       I    between atoms: N_9  and  C_10 
REMARK    2  A    between atoms: C_12  and  C_10 
REMARK    3  A    between atoms: C_13  and  C_15 
REMARK    4  A    between atoms: O_16  and  C_15 
ROOT
HETATM    1  N   UNK N   1       1.053   0.335  -0.322  0.00  0.00    -0.324 N 
HETATM    2  C   UNK N   1       0.091  -0.496   0.159  0.00  0.00     0.227 C 
HETATM    3  O   UNK N   1      -0.757  -0.089   0.938  0.00  0.00    -0.273 OA
HETATM    4  H   UNK N   1       1.780  -0.075  -0.844  0.00  0.00     0.169 HD
ENDROOT
BRANCH   1   5
HETATM    5  C   UNK N   1       1.102   1.749  -0.140  0.00  0.00     0.076 A 
HETATM    6  C   UNK N   1      -0.062   2.558  -0.099  0.00  0.00     0.143 A 
HETATM    7  C   UNK N   1       0.056   3.943   0.040  0.00  0.00     0.047 A 
HETATM    8  F   UNK N   1      -1.302   2.031  -0.246  0.00  0.00    -0.204 F 
HETATM    9  C   UNK N   1       1.314   4.539   0.134  0.00  0.00     0.045 A 
HETATM   10  C   UNK N   1       2.464   3.751   0.075  0.00  0.00     0.118 A 
HETATM   11  F   UNK N   1       3.685   4.333   0.151  0.00  0.00    -0.206 F 
HETATM   12  C   UNK N   1       2.357   2.365  -0.068  0.00  0.00     0.074 A 
ENDBRANCH   1   5
BRANCH   2  13
HETATM   13  C   UNK N   1       0.059  -1.924  -0.313  0.00  0.00     0.093 A 
HETATM   14  C   UNK N   1       0.795  -2.946   0.525  0.00  0.00     0.031 A 
HETATM   15  C   UNK N   1      -0.725  -2.889   0.585  0.00  0.00     0.097 A 
BRANCH  15  16
HETATM   16  C   UNK N   1      -1.541  -3.802  -0.276  0.00  0.00     0.144 C 
HETATM   17  O   UNK N   1      -2.439  -3.344  -0.966  0.00  0.00    -0.650 OA
BRANCH  16  18
HETATM   18  O   UNK N   1      -1.310  -5.127  -0.272  0.00  0.00    -0.776 OA
HETATM   19  H   UNK N   1      -2.029  -5.728  -0.270  0.00  0.00     0.167 HD
ENDBRANCH  16  18
ENDBRANCH  15  16
ENDBRANCH   2  13
TORSDOF 4
