REMARK  7 active torsions:
REMARK  status: ('A' for Active; 'I' for Inactive)
REMARK    1  A    between atoms: C_6  and  C_8 
REMARK    2  A    between atoms: C_8  and  C_10 
REMARK    3  A    between atoms: C_15  and  N_16 
REMARK    4  A    between atoms: N_16  and  C_17 
REMARK    5  A    between atoms: C_17  and  C_18 
REMARK    6  A    between atoms: C_21  and  C_24 
REMARK    7  A    between atoms: C_24  and  N_25 
ROOT
HETATM    1  C   UNK N   1      -1.880   1.416  -0.010  0.00  0.00     0.020 A 
HETATM    2  C   UNK N   1      -1.874   2.818  -0.019  0.00  0.00     0.032 A 
HETATM    3  C   UNK N   1      -0.645   3.503  -0.016  0.00  0.00     0.090 A 
HETATM    4  N   UNK N   1       0.535   2.812  -0.002  0.00  0.00    -0.353 N 
ATOM      5  HN  UNK N   1       1.418   3.323   0.000  1.00  0.00     0.166 HD
HETATM    6  C   UNK N   1       0.546   1.451   0.009  0.00  0.00     0.101 A 
HETATM    7  C   UNK N   1      -0.661   0.756   0.004  0.00  0.00     0.063 A 
ENDROOT
BRANCH   6   8
HETATM    8  N   UNK N   1       1.765   0.718   0.027  0.00  0.00    -0.372 N 
HETATM    9  H   UNK N   1       2.638   1.172   0.016  0.00  0.00     0.161 HD
BRANCH   8  10
HETATM   10  C   UNK N   1       1.667  -0.726   0.063  0.00  0.00     0.159 C 
BRANCH  10  11
HETATM   11  C   UNK N   1       2.931  -1.507   0.040  0.00  0.00    -0.041 A 
HETATM   12  C   UNK N   1       4.206  -0.928   0.001  0.00  0.00     0.010 A 
HETATM   13  C   UNK N   1       5.341  -1.755  -0.020  0.00  0.00     0.016 A 
HETATM   14  C   UNK N   1       5.200  -3.156  -0.004  0.00  0.00     0.007 A 
HETATM   15  C   UNK N   1       3.920  -3.715   0.034  0.00  0.00     0.016 A 
HETATM   16  C   UNK N   1       2.798  -2.895   0.056  0.00  0.00     0.010 A 
BRANCH  14  17
HETATM   17  C   UNK N   1       6.384  -4.040  -0.026  0.00  0.00     0.102 C 
HETATM   18  N   UNK N   1       6.240  -5.316  -0.014  0.00  0.00    -0.385 N 
HETATM   19  H   UNK N   1       5.338  -5.709  -0.005  0.00  0.00     0.157 HD
ATOM     20  HN  UNK N   1       7.060  -5.922  -0.014  1.00  0.00     0.157 HD
BRANCH  17  21
HETATM   21  N   UNK N   1       7.685  -3.491  -0.061  0.00  0.00    -0.385 N 
HETATM   22  H   UNK N   1       8.470  -4.084  -0.086  0.00  0.00     0.157 HD
HETATM   23  H   UNK N   1       7.806  -2.514  -0.061  0.00  0.00     0.157 HD
ENDBRANCH  17  21
ENDBRANCH  14  17
ENDBRANCH  10  11
ENDBRANCH   8  10
ENDBRANCH   6   8
BRANCH   1  24
HETATM   24  C   UNK N   1      -3.109   0.566  -0.013  0.00  0.00     0.192 C 
HETATM   25  O   UNK N   1      -2.957  -0.649  -0.013  0.00  0.00    -0.287 OA
BRANCH  24  26
HETATM   26  C   UNK N   1      -4.502   1.083  -0.012  0.00  0.00     0.015 A 
HETATM   27  C   UNK N   1      -5.560   0.157  -0.013  0.00  0.00     0.015 A 
HETATM   28  C   UNK N   1      -6.886   0.588  -0.008  0.00  0.00     0.002 A 
HETATM   29  C   UNK N   1      -7.171   1.953  -0.002  0.00  0.00     0.007 A 
HETATM   30  C   UNK N   1      -6.130   2.885  -0.001  0.00  0.00    -0.061 A 
HETATM   31  C   UNK N   1      -6.439   4.337   0.006  0.00  0.00     0.048 C 
HETATM   32  C   UNK N   1      -4.798   2.453  -0.006  0.00  0.00     0.022 A 
ENDBRANCH  24  26
ENDBRANCH   1  24
TORSDOF 7
