REMARK  4 active torsions:
REMARK  status: ('A' for Active; 'I' for Inactive)
REMARK    1  A    between atoms: C_4  and  N_24 
REMARK    2  A    between atoms: C_11  and  C_12 
REMARK    3  A    between atoms: C_18  and  C_19 
REMARK    4  A    between atoms: C_21  and  C_22 
REMARK       I    between atoms: C_22  and  N_24 
ROOT
HETATM    1  C   UNK N   1      -3.249   0.963   0.019  0.00  0.00     0.017 A 
HETATM    2  C   UNK N   1      -1.954   1.450   0.026  0.00  0.00     0.017 A 
HETATM    3  C   UNK N   1      -0.883   0.571   0.032  0.00  0.00     0.014 A 
HETATM    4  C   UNK N   1      -3.461  -0.414   0.019  0.00  0.00     0.023 A 
HETATM    5  C   UNK N   1      -2.390  -1.323   0.026  0.00  0.00    -0.050 A 
HETATM    6  C   UNK N   1      -2.797  -2.743   0.005  0.00  0.00     0.049 C 
HETATM    7  C   UNK N   1      -1.033  -0.837   0.034  0.00  0.00    -0.019 A 
ENDROOT
BRANCH   7   8
HETATM    8  C   UNK N   1       0.295  -1.614   0.030  0.00  0.00    -0.018 A 
HETATM    9  C   UNK N   1       1.444  -0.794  -0.058  0.00  0.00     0.030 A 
HETATM   10  C   UNK N   1       2.746  -1.285  -0.084  0.00  0.00     0.032 A 
HETATM   11  C   UNK N   1       2.950  -2.658  -0.015  0.00  0.00     0.017 A 
HETATM   12  C   UNK N   1       1.858  -3.515   0.077  0.00  0.00     0.009 A 
HETATM   13  C   UNK N   1       0.541  -3.031   0.095  0.00  0.00    -0.051 A 
HETATM   14  C   UNK N   1      -0.491  -4.083   0.197  0.00  0.00     0.049 C 
BRANCH  10  15
HETATM   15  C   UNK N   1       3.880  -0.348  -0.234  0.00  0.00     0.252 C 
HETATM   16  O   UNK N   1       5.023  -0.778  -0.298  0.00  0.00    -0.268 OA
HETATM   17  N   UNK N   1       3.641   0.987  -0.343  0.00  0.00    -0.352 N 
HETATM   18  H   UNK N   1       2.712   1.303  -0.260  0.00  0.00     0.163 HD
BRANCH  17  19
HETATM   19  C   UNK N   1       4.679   1.968  -0.575  0.00  0.00     0.084 A 
HETATM   20  C   UNK N   1       4.588   3.045   0.489  0.00  0.00     0.027 A 
HETATM   21  C   UNK N   1       5.673   1.997   0.574  0.00  0.00     0.027 A 
ENDBRANCH  17  19
ENDBRANCH  10  15
ENDBRANCH   7   8
BRANCH   1  22
HETATM   22  C   UNK N   1      -4.372   1.908   0.008  0.00  0.00     0.174 A 
HETATM   23  O   UNK N   1      -4.241   3.214   0.006  0.00  0.00    -0.278 OA
HETATM   24  C   UNK N   1      -5.458   3.695  -0.005  0.00  0.00     0.136 A 
HETATM   25  C   UNK N   1      -5.797   5.143  -0.010  0.00  0.00     0.099 C 
HETATM   26  N   UNK N   1      -6.362   2.698  -0.011  0.00  0.00    -0.281 N 
HETATM   27  N   UNK N   1      -5.674   1.565  -0.003  0.00  0.00    -0.277 N 
ATOM     28  HN  UNK N   1      -7.377   2.795  -0.020  1.00  0.00     0.189 HD
ATOM     29  HN  UNK N   1      -6.056   0.619  -0.005  1.00  0.00     0.189 HD
ENDBRANCH   1  22
TORSDOF 4
