REMARK  6 active torsions:
REMARK  status: ('A' for Active; 'I' for Inactive)
REMARK    1  A    between atoms: C_1  and  C_2 
REMARK    2  A    between atoms: C_1  and  N_13 
REMARK    3  A    between atoms: C_2  and  C_17 
REMARK    4  A    between atoms: C_2  and  N_18 
REMARK    5  A    between atoms: C_3  and  C_4 
REMARK       I    between atoms: C_3  and  N_18 
REMARK    6  A    between atoms: C_8  and  C_9 
ROOT
HETATM    1  C   UNK N   1       0.380  -0.293   0.186  0.00  0.00     0.073 A 
HETATM    2  C   UNK N   1       1.334  -0.456  -0.826  0.00  0.00     0.026 A 
HETATM    3  C   UNK N   1       1.464  -2.541   0.267  0.00  0.00     0.017 A 
HETATM    4  C   UNK N   1       1.941  -1.751  -0.790  0.00  0.00     0.021 A 
HETATM    5  S   UNK N   1       0.385  -1.633   1.100  0.00  0.00    -0.084 SA
ENDROOT
BRANCH   1   6
HETATM    6  C   UNK N   1      -0.603   0.755   0.397  0.00  0.00     0.259 C 
HETATM    7  O   UNK N   1      -1.356   0.663   1.359  0.00  0.00    -0.267 OA
HETATM    8  N   UNK N   1      -0.698   1.805  -0.446  0.00  0.00    -0.346 N 
HETATM    9  H   UNK N   1      -0.239   1.774  -1.317  0.00  0.00     0.163 HD
BRANCH   8  10
HETATM   10  C   UNK N   1      -1.467   2.976  -0.084  0.00  0.00     0.135 C 
BRANCH  10  11
HETATM   11  C   UNK N   1      -2.651   3.154  -1.033  0.00  0.00     0.141 C 
BRANCH  11  12
HETATM   12  N   UNK N   1      -3.616   4.085  -0.469  0.00  0.00    -0.428 N 
HETATM   13  H   UNK N   1      -3.388   4.998  -0.073  0.00  0.00     0.150 HD
HETATM   14  H   UNK N   1      -4.596   3.804  -0.469  0.00  0.00     0.150 HD
ENDBRANCH  11  12
ENDBRANCH  10  11
BRANCH  10  15
HETATM   15  C   UNK N   1      -0.491   4.116  -0.027  0.00  0.00    -0.034 A 
HETATM   16  C   UNK N   1      -0.720   5.335  -0.677  0.00  0.00     0.009 A 
HETATM   17  C   UNK N   1       0.235   6.353  -0.606  0.00  0.00     0.001 A 
HETATM   18  C   UNK N   1       1.432   6.149   0.088  0.00  0.00     0.000 A 
HETATM   19  C   UNK N   1       1.672   4.933   0.728  0.00  0.00     0.001 A 
HETATM   20  C   UNK N   1       0.709   3.928   0.682  0.00  0.00     0.009 A 
ENDBRANCH  10  15
ENDBRANCH   8  10
ENDBRANCH   1   6
BRANCH   3  21
HETATM   21  C   UNK N   1       1.259  -3.982   0.124  0.00  0.00    -0.004 A 
HETATM   22  C   UNK N   1       2.304  -4.888  -0.110  0.00  0.00     0.031 A 
HETATM   23  C   UNK N   1       1.997  -6.253  -0.324  0.00  0.00     0.090 A 
HETATM   24  N   UNK N   1       0.693  -6.681  -0.353  0.00  0.00    -0.352 N 
HETATM   25  C   UNK N   1      -0.296  -5.785  -0.160  0.00  0.00     0.116 A 
ATOM     26  HN  UNK N   1       0.475  -7.664  -0.517  1.00  0.00     0.166 HD
HETATM   27  C   UNK N   1      -0.059  -4.478   0.078  0.00  0.00     0.021 A 
HETATM   28  N   UNK N   1      -1.618  -6.035  -0.214  0.00  0.00    -0.352 N 
HETATM   29  C   UNK N   1      -1.284  -3.848   0.174  0.00  0.00     0.033 A 
HETATM   30  C   UNK N   1      -2.231  -4.847  -0.007  0.00  0.00     0.090 A 
HETATM   31  H   UNK N   1      -2.051  -6.906  -0.372  0.00  0.00     0.166 HD
ENDBRANCH   3  21
TORSDOF 6
