REMARK  6 active torsions:
REMARK  status: ('A' for Active; 'I' for Inactive)
REMARK    1  A    between atoms: N_1  and  C_2 
REMARK    2  A    between atoms: C_2  and  C_3 
REMARK       I    between atoms: C_3  and  N_5 
REMARK    3  A    between atoms: N_5  and  C_6 
REMARK    4  A    between atoms: C_6  and  C_8 
REMARK       I    between atoms: C_8  and  N_10 
REMARK    5  A    between atoms: C_12  and  C_15 
REMARK       I    between atoms: C_15  and  N_17 
REMARK    6  A    between atoms: N_17  and  C_18 
ROOT
HETATM    1  C   UNK N   1      -0.368   1.518  -0.002  0.00  0.00     0.243 C 
HETATM    2  O   UNK N   1      -0.434   0.313   0.127  0.00  0.00    -0.271 OA
HETATM    3  N   UNK N   1       0.850   2.168   0.071  0.00  0.00    -0.337 N 
HETATM    4  C   UNK N   1       0.943   3.593  -0.093  0.00  0.00     0.127 C 
HETATM    5  C   UNK N   1       2.127   1.562   0.457  0.00  0.00     0.179 C 
HETATM    6  C   UNK N   1       3.148   2.627   0.093  0.00  0.00     0.037 C 
HETATM    7  C   UNK N   1       2.389   3.940   0.227  0.00  0.00     0.022 C 
ENDROOT
BRANCH   5   8
HETATM    8  C   UNK N   1       2.461   0.186  -0.099  0.00  0.00     0.245 C 
HETATM    9  O   UNK N   1       3.413   0.008  -0.847  0.00  0.00    -0.271 OA
HETATM   10  N   UNK N   1       1.707  -0.851   0.331  0.00  0.00    -0.325 N 
HETATM   11  H   UNK N   1       0.995  -0.598   0.961  0.00  0.00     0.169 HD
BRANCH  10  12
HETATM   12  C   UNK N   1       1.757  -2.231   0.038  0.00  0.00     0.035 A 
HETATM   13  C   UNK N   1       0.656  -2.990   0.432  0.00  0.00     0.042 A 
HETATM   14  C   UNK N   1       0.609  -4.354   0.194  0.00  0.00    -0.024 A 
HETATM   15  C   UNK N   1       1.695  -4.990  -0.442  0.00  0.00    -0.026 A 
HETATM   16  C   UNK N   1      -0.512  -5.089   0.586  0.00  0.00     0.012 A 
HETATM   17  C   UNK N   1       1.644  -6.369  -0.671  0.00  0.00     0.012 A 
HETATM   18  C   UNK N   1       2.809  -4.235  -0.840  0.00  0.00     0.014 A 
HETATM   19  C   UNK N   1       0.519  -7.104  -0.273  0.00  0.00     0.001 A 
HETATM   20  C   UNK N   1      -0.558  -6.464   0.350  0.00  0.00     0.001 A 
HETATM   21  C   UNK N   1       2.841  -2.849  -0.605  0.00  0.00     0.030 A 
ENDBRANCH  10  12
ENDBRANCH   5   8
BRANCH   1  22
HETATM   22  C   UNK N   1      -1.674   2.268  -0.217  0.00  0.00     0.172 C 
HETATM   23  C   UNK N   1      -1.666   3.041  -1.522  0.00  0.00     0.042 C 
BRANCH  22  24
HETATM   24  N   UNK N   1      -2.768   1.308  -0.258  0.00  0.00    -0.347 N 
HETATM   25  C   UNK N   1      -3.911   1.409   0.467  0.00  0.00     0.235 C 
HETATM   26  O   UNK N   1      -4.150   2.409   1.126  0.00  0.00    -0.272 OA
HETATM   27  H   UNK N   1      -2.672   0.530  -0.853  0.00  0.00     0.163 HD
BRANCH  25  28
HETATM   28  C   UNK N   1      -4.886   0.275   0.469  0.00  0.00     0.214 C 
BRANCH  28  29
HETATM   29  N   UNK N   1      -5.302  -0.043  -0.885  0.00  0.00    -0.422 N 
HETATM   30  H   UNK N   1      -5.642   0.098  -1.836  0.00  0.00     0.150 HD
HETATM   31  H   UNK N   1      -5.169  -1.055  -0.885  0.00  0.00     0.150 HD
ENDBRANCH  28  29
ENDBRANCH  25  28
ENDBRANCH  22  24
ENDBRANCH   1  22
TORSDOF 6
