REMARK  7 active torsions:
REMARK  status: ('A' for Active; 'I' for Inactive)
REMARK    1  A    between atoms: C_6  and  C_7 
REMARK    2  A    between atoms: C_7  and  N_8 
REMARK    3  A    between atoms: C_7  and  C_9 
REMARK       I    between atoms: N_8  and  C_15 
REMARK       I    between atoms: C_15  and  N_22 
REMARK    4  A    between atoms: N_16  and  C_18 
REMARK    5  A    between atoms: C_18  and  C_19 
REMARK    6  A    between atoms: C_19  and  O_21 
REMARK    7  A    between atoms: N_22  and  C_23 
ROOT
HETATM    1  C   UNK N   1       0.284   2.980   0.115  0.00  0.00     0.049 A 
HETATM    2  C   UNK N   1       0.414   4.306   0.537  0.00  0.00     0.031 A 
HETATM    3  C   UNK N   1       1.653   4.934   0.469  0.00  0.00     0.025 A 
HETATM    4  C   UNK N   1       2.751   4.223  -0.017  0.00  0.00     0.044 A 
HETATM    5  C   UNK N   1       4.070   4.729   0.100  0.00  0.00     0.099 C 
HETATM    6  N   UNK N   1       5.190   5.005   0.129  0.00  0.00    -0.191 NA
HETATM    7  C   UNK N   1       2.611   2.929  -0.512  0.00  0.00     0.025 A 
HETATM    8  C   UNK N   1       1.379   2.317  -0.465  0.00  0.00     0.031 A 
ENDROOT
BRANCH   1   9
HETATM    9  N   UNK N   1      -0.970   2.340   0.191  0.00  0.00    -0.192 N 
HETATM   10  C   UNK N   1      -1.105   0.965  -0.151  0.00  0.00     0.675 C 
HETATM   11  N   UNK N   1      -0.050   0.046   0.170  0.00  0.00    -0.214 N 
HETATM   12  N   UNK N   1      -2.151   0.565  -0.779  0.00  0.00    -0.216 N 
HETATM   13  H   UNK N   1       0.602   0.330   0.851  0.00  0.00     0.178 HD
ATOM     14  HN  UNK N   1      -2.203  -0.413  -1.066  1.00  0.00     0.178 HD
HETATM   15  H   UNK N   1      -1.760   2.849   0.485  0.00  0.00     0.184 HD
BRANCH  11  16
HETATM   16  C   UNK N   1       0.139  -1.271  -0.423  0.00  0.00     0.166 C 
BRANCH  16  17
HETATM   17  C   UNK N   1       1.588  -1.710  -0.372  0.00  0.00    -0.030 A 
HETATM   18  C   UNK N   1       2.548  -0.989  -1.096  0.00  0.00     0.009 A 
HETATM   19  C   UNK N   1       3.879  -1.418  -1.125  0.00  0.00     0.001 A 
HETATM   20  C   UNK N   1       4.259  -2.574  -0.436  0.00  0.00     0.000 A 
HETATM   21  C   UNK N   1       3.315  -3.287   0.305  0.00  0.00     0.001 A 
HETATM   22  C   UNK N   1       1.988  -2.855   0.340  0.00  0.00     0.009 A 
ENDBRANCH  16  17
BRANCH  16  23
HETATM   23  C   UNK N   1      -0.940  -2.326  -0.169  0.00  0.00    -0.030 A 
HETATM   24  C   UNK N   1      -0.661  -3.697  -0.317  0.00  0.00     0.009 A 
HETATM   25  C   UNK N   1      -1.675  -4.653  -0.203  0.00  0.00     0.001 A 
HETATM   26  C   UNK N   1      -2.990  -4.246   0.030  0.00  0.00     0.000 A 
HETATM   27  C   UNK N   1      -3.284  -2.890   0.163  0.00  0.00     0.001 A 
HETATM   28  C   UNK N   1      -2.264  -1.947   0.064  0.00  0.00     0.009 A 
ENDBRANCH  16  23
ENDBRANCH  11  16
BRANCH  12  29
HETATM   29  C   UNK N   1      -3.253   1.434  -1.097  0.00  0.00     0.247 C 
BRANCH  29  30
HETATM   30  C   UNK N   1      -4.258   1.336  -0.001  0.00  0.00     0.158 C 
HETATM   31  O   UNK N   1      -4.752   0.255   0.283  0.00  0.00    -0.649 OA
BRANCH  30  32
HETATM   32  O   UNK N   1      -4.593   2.436   0.699  0.00  0.00    -0.775 OA
HETATM   33  H   UNK N   1      -4.046   3.021   1.185  0.00  0.00     0.167 HD
ENDBRANCH  30  32
ENDBRANCH  29  30
ENDBRANCH  12  29
ENDBRANCH   1   9
TORSDOF 7
