REMARK  5 active torsions:
REMARK  status: ('A' for Active; 'I' for Inactive)
REMARK    1  A    between atoms: N_3  and  C_4 
REMARK       I    between atoms: C_15  and  N_3 
REMARK       I    between atoms: N_5  and  C_15 
REMARK    2  A    between atoms: C_16  and  N_5 
REMARK    3  A    between atoms: C_8  and  S_22 
REMARK    4  A    between atoms: N_9  and  S_22 
REMARK    5  A    between atoms: C_28  and  N_25 
ROOT
HETATM    1  C   UNK N   1      -2.428   2.901   0.060  0.00  0.00     0.037 A 
HETATM    2  C   UNK N   1      -2.051   0.505   0.146  0.00  0.00     0.076 A 
HETATM    3  C   UNK N   1      -3.421   0.300   0.332  0.00  0.00     0.025 A 
HETATM    4  C   UNK N   1      -4.293   1.384   0.378  0.00  0.00     0.004 A 
HETATM    5  C   UNK N   1      -1.548   1.805   0.016  0.00  0.00     0.054 A 
HETATM    6  C   UNK N   1      -3.794   2.679   0.255  0.00  0.00     0.029 A 
ENDROOT
BRANCH   2   7
HETATM    7  S   UNK N   1      -0.943  -0.881   0.313  0.00  0.00     0.243 S 
HETATM    8  O   UNK N   1      -1.721  -2.022   0.992  0.00  0.00    -0.206 OA
HETATM    9  O   UNK N   1       0.101  -0.595   1.403  0.00  0.00    -0.206 OA
BRANCH   7  10
HETATM   10  N   UNK N   1      -0.081  -1.636  -1.067  0.00  0.00    -0.203 NA
HETATM   11  C   UNK N   1       1.364  -1.337  -1.063  0.00  0.00     0.127 C 
HETATM   12  C   UNK N   1       2.107  -2.048   0.082  0.00  0.00     0.140 C 
HETATM   13  N   UNK N   1       1.733  -3.443   0.112  0.00  0.00    -0.365 N 
HETATM   14  C   UNK N   1       0.331  -3.778   0.092  0.00  0.00     0.140 C 
HETATM   15  C   UNK N   1      -0.310  -3.088  -1.113  0.00  0.00     0.127 C 
BRANCH  13  16
HETATM   16  C   UNK N   1       2.718  -4.467   0.069  0.00  0.00     0.102 A 
HETATM   17  N   UNK N   1       4.041  -4.145  -0.003  0.00  0.00    -0.352 N 
HETATM   18  C   UNK N   1       5.005  -5.103  -0.071  0.00  0.00     0.089 A 
ATOM     19  HN  UNK N   1       4.314  -3.162  -0.006  1.00  0.00     0.166 HD
HETATM   20  C   UNK N   1       4.654  -6.454  -0.066  0.00  0.00     0.017 A 
HETATM   21  C   UNK N   1       3.309  -6.811   0.017  0.00  0.00     0.005 A 
HETATM   22  C   UNK N   1       2.336  -5.818   0.084  0.00  0.00     0.048 A 
ENDBRANCH  13  16
ENDBRANCH   7  10
ENDBRANCH   2   7
BRANCH   1  23
HETATM   23  N   UNK N   1      -1.981   4.242  -0.041  0.00  0.00    -0.309 N 
HETATM   24  C   UNK N   1      -0.745   4.685  -0.382  0.00  0.00     0.326 C 
HETATM   25  N   UNK N   1      -0.470   6.015  -0.395  0.00  0.00    -0.288 N 
HETATM   26  O   UNK N   1       0.136   3.894  -0.695  0.00  0.00    -0.247 OA
HETATM   27  H   UNK N   1       0.441   6.288  -0.650  0.00  0.00     0.172 HD
HETATM   28  H   UNK N   1      -2.648   4.937   0.159  0.00  0.00     0.170 HD
BRANCH  25  29
HETATM   29  C   UNK N   1      -1.400   7.050  -0.069  0.00  0.00     0.152 A 
HETATM   30  N   UNK N   1      -1.067   8.360  -0.065  0.00  0.00    -0.346 N 
HETATM   31  C   UNK N   1      -2.133   9.171   0.277  0.00  0.00     0.097 A 
ATOM     32  HN  UNK N   1      -0.136   8.711  -0.288  1.00  0.00     0.167 HD
HETATM   33  C   UNK N   1      -3.341   8.500   0.549  0.00  0.00     0.070 A 
HETATM   34  S   UNK N   1      -2.995   6.895   0.342  0.00  0.00    -0.064 SA
ENDBRANCH  25  29
ENDBRANCH   1  23
TORSDOF 5
