REMARK  3 active torsions:
REMARK  status: ('A' for Active; 'I' for Inactive)
REMARK    1  A    between atoms: C_2  and  C_5 
REMARK       I    between atoms: C_2  and  N_3 
REMARK    2  A    between atoms: N_3  and  O_4 
REMARK    3  A    between atoms: C_6  and  C_7 
ROOT
HETATM    1  C   UNK N   1      -0.769  -0.675   0.000  0.00  0.00    -0.014 A 
HETATM    2  C   UNK N   1      -0.487  -2.067   0.000  0.00  0.00     0.045 A 
HETATM    3 Cl   UNK N   1       1.146  -2.725  -0.000  0.00  0.00    -0.083 Cl
HETATM    4  C   UNK N   1      -1.547  -2.981  -0.000  0.00  0.00     0.048 A 
HETATM    5  C   UNK N   1      -2.101  -0.250   0.000  0.00  0.00     0.015 A 
HETATM    6  C   UNK N   1      -3.146  -1.169   0.000  0.00  0.00     0.024 A 
HETATM    7  C   UNK N   1      -2.870  -2.534  -0.000  0.00  0.00     0.035 A 
HETATM    8 Cl   UNK N   1      -4.187  -3.683  -0.000  0.00  0.00    -0.084 Cl
ENDROOT
BRANCH   1   9
HETATM    9  C   UNK N   1       0.242   0.396   0.000  0.00  0.00     0.018 C 
HETATM   10  C   UNK N   1       1.565   0.241  -0.000  0.00  0.00     0.077 C 
BRANCH  10  11
HETATM   11  C   UNK N   1       2.431   1.428  -0.000  0.00  0.00     0.264 C 
HETATM   12  O   UNK N   1       3.645   1.290  -0.000  0.00  0.00    -0.266 OA
HETATM   13  N   UNK N   1       1.884   2.667   0.000  0.00  0.00    -0.234 N 
HETATM   14  H   UNK N   1       0.904   2.762   0.000  0.00  0.00     0.197 HD
BRANCH  13  15
HETATM   15  O   UNK N   1       2.650   3.764   0.000  0.00  0.00    -0.287 OA
HETATM   16  H   UNK N   1       3.617   3.681   0.000  0.00  0.00     0.244 HD
ENDBRANCH  13  15
ENDBRANCH  10  11
ENDBRANCH   1   9
TORSDOF 3
