REMARK  3 active torsions:
REMARK  status: ('A' for Active; 'I' for Inactive)
REMARK    1  A    between atoms: C_2  and  C_5 
REMARK       I    between atoms: C_2  and  N_3 
REMARK    2  A    between atoms: N_3  and  O_4 
REMARK    3  A    between atoms: C_6  and  C_7 
ROOT
HETATM    1  C   UNK N   1       1.995   0.534  -0.012  0.00  0.00     0.077 C 
HETATM    2  C   UNK N   1       1.440  -0.658  -0.239  0.00  0.00     0.017 C 
ENDROOT
BRANCH   2   3
HETATM    3  C   UNK N   1       0.001  -0.941  -0.186  0.00  0.00    -0.036 A 
HETATM    4  C   UNK N   1      -0.404  -2.266  -0.366  0.00  0.00     0.013 A 
HETATM    5  C   UNK N   1      -1.750  -2.614  -0.256  0.00  0.00     0.024 A 
HETATM    6  C   UNK N   1      -2.702  -1.637   0.035  0.00  0.00     0.034 A 
HETATM    7  C   UNK N   1      -2.308  -0.304   0.206  0.00  0.00     0.024 A 
HETATM    8 Cl   UNK N   1      -4.382  -2.094   0.205  0.00  0.00    -0.084 Cl
HETATM    9  C   UNK N   1      -0.955   0.047   0.099  0.00  0.00     0.013 A 
ENDBRANCH   2   3
BRANCH   1  10
HETATM   10  C   UNK N   1       3.466   0.656  -0.001  0.00  0.00     0.264 C 
HETATM   11  O   UNK N   1       3.983   1.741   0.201  0.00  0.00    -0.266 OA
HETATM   12  N   UNK N   1       4.235  -0.446  -0.186  0.00  0.00    -0.234 N 
HETATM   13  H   UNK N   1       3.803  -1.316  -0.349  0.00  0.00     0.197 HD
BRANCH  12  14
HETATM   14  O   UNK N   1       5.573  -0.370  -0.151  0.00  0.00    -0.287 OA
HETATM   15  H   UNK N   1       6.104  -1.181  -0.126  0.00  0.00     0.244 HD
ENDBRANCH  12  14
ENDBRANCH   1  10
TORSDOF 3
