REMARK  3 active torsions:
REMARK  status: ('A' for Active; 'I' for Inactive)
REMARK    1  A    between atoms: C_5  and  C_6 
REMARK    2  A    between atoms: C_5  and  O_8 
REMARK    3  A    between atoms: O_8  and  P_9 
ROOT
HETATM    1  C   UNK N   1      -0.372  -1.466   0.699  0.00  0.00     0.040 C 
HETATM    2  C   UNK N   1      -0.323   0.014   0.323  0.00  0.00     0.132 C 
ENDROOT
BRANCH   2   3
HETATM    3  C   UNK N   1      -1.714   0.534  -0.111  0.00  0.00    -0.025 C 
HETATM    4  C   UNK N   1      -2.703   0.438   1.040  0.00  0.00     0.017 C 
HETATM    5  C   UNK N   1      -2.265  -0.253  -1.290  0.00  0.00     0.017 C 
HETATM    6  C   UNK N   1      -1.617   1.995  -0.519  0.00  0.00     0.017 C 
ENDBRANCH   2   3
BRANCH   2   7
HETATM    7  O   UNK N   1       0.606   0.194  -0.727  0.00  0.00    -0.330 OA
BRANCH   7   8
HETATM    8  P   UNK N   1       2.181   0.581  -0.057  0.00  0.00     0.185 P 
HETATM    9  C   UNK N   1       3.032   1.447  -1.462  0.00  0.00     0.114 C 
HETATM   10  O   UNK N   1       2.812  -0.830  -0.191  0.00  0.00    -0.295 OA
HETATM   11  H   UNK N   1       2.209   0.902   1.362  0.00  0.00     0.128 HD
ENDBRANCH   7   8
ENDBRANCH   2   7
TORSDOF 3
