REMARK  3 active torsions:
REMARK  status: ('A' for Active; 'I' for Inactive)
REMARK    1  A    between atoms: C_4  and  N_3 
REMARK    2  A    between atoms: C_4  and  C_5 
REMARK    3  A    between atoms: C_5  and  O_6 
ROOT
HETATM    1  O   UNK N   1      -1.067  -2.048  -0.353  0.00  0.00    -0.272 OA
HETATM    2  C   UNK N   1      -0.390  -1.032  -0.334  0.00  0.00     0.232 A 
HETATM    3  N   UNK N   1      -0.812   0.156   0.159  0.00  0.00    -0.273 N 
HETATM    4  C   UNK N   1       1.016  -0.967  -0.863  0.00  0.00     0.096 A 
HETATM    5  C   UNK N   1       1.408   0.502  -0.619  0.00  0.00     0.096 A 
HETATM    6  C   UNK N   1       0.186   1.058   0.057  0.00  0.00     0.232 A 
HETATM    7  O   UNK N   1       0.095   2.209   0.459  0.00  0.00    -0.272 OA
HETATM    8  C   UNK N   1       2.108  -1.738  -0.099  0.00  0.00    -0.000 C 
HETATM    9  C   UNK N   1       1.965  -1.548   1.412  0.00  0.00     0.006 C 
HETATM   10  C   UNK N   1       2.387  -0.100   1.625  0.00  0.00     0.006 C 
HETATM   11  C   UNK N   1       3.315  -0.866  -0.390  0.00  0.00     0.011 C 
HETATM   12  C   UNK N   1       2.698   0.383   0.210  0.00  0.00    -0.000 C 
ENDROOT
BRANCH   3  13
HETATM   13  C   UNK N   1      -2.132   0.474   0.734  0.00  0.00     0.189 C 
HETATM   14  C   UNK N   1      -3.082  -0.719   0.790  0.00  0.00     0.044 C 
BRANCH  13  15
HETATM   15  C   UNK N   1      -2.826   1.575  -0.040  0.00  0.00     0.163 C 
HETATM   16  O   UNK N   1      -2.327   2.043  -1.053  0.00  0.00    -0.648 OA
BRANCH  15  17
HETATM   17  O   UNK N   1      -4.012   2.049   0.389  0.00  0.00    -0.775 OA
HETATM   18  H   UNK N   1      -4.139   2.928   0.688  0.00  0.00     0.167 HD
ENDBRANCH  15  17
ENDBRANCH  13  15
ENDBRANCH   3  13
TORSDOF 3
