REMARK  7 active torsions:
REMARK  status: ('A' for Active; 'I' for Inactive)
REMARK    1  A    between atoms: C_2  and  N_19 
REMARK    2  A    between atoms: C_2  and  C_12 
REMARK    3  A    between atoms: C_5  and  C_6 
REMARK    4  A    between atoms: C_7  and  C_14 
REMARK    5  A    between atoms: C_11  and  C_27 
REMARK    6  A    between atoms: C_14  and  O_17 
REMARK    7  A    between atoms: C_15  and  C_27 
ROOT
HETATM    1  N   UNK N   1      -1.533  -3.231  -0.038  0.00  0.00    -0.303 N 
HETATM    2  C   UNK N   1      -1.474  -0.459  -0.062  0.00  0.00     0.264 A 
HETATM    3  C   UNK N   1       2.068  -2.542   0.520  0.00  0.00     0.023 A 
HETATM    4  C   UNK N   1       2.008  -1.139   0.456  0.00  0.00     0.018 A 
HETATM    5  C   UNK N   1      -0.331  -1.185   0.139  0.00  0.00     0.061 A 
HETATM    6  N   UNK N   1      -2.663  -1.095  -0.233  0.00  0.00    -0.261 N 
HETATM    7  O   UNK N   1      -1.419   0.766  -0.087  0.00  0.00    -0.267 OA
HETATM    8  C   UNK N   1      -0.350  -2.584   0.170  0.00  0.00     0.054 A 
HETATM    9  C   UNK N   1       0.868  -3.275   0.392  0.00  0.00     0.032 A 
HETATM   10  C   UNK N   1      -1.587  -4.694  -0.038  0.00  0.00     0.161 C 
HETATM   11  C   UNK N   1      -2.691  -2.501  -0.262  0.00  0.00     0.332 A 
HETATM   12  O   UNK N   1      -3.730  -3.099  -0.489  0.00  0.00    -0.246 OA
HETATM   13  C   UNK N   1       0.832  -0.500   0.287  0.00  0.00     0.040 A 
ENDROOT
BRANCH   6  14
HETATM   14  C   UNK N   1      -3.822  -0.184  -0.354  0.00  0.00     0.175 C 
BRANCH  14  15
HETATM   15  C   UNK N   1      -5.111  -0.828  -0.133  0.00  0.00    -0.040 A 
HETATM   16  C   UNK N   1      -6.008  -0.854  -1.188  0.00  0.00     0.010 A 
HETATM   17  C   UNK N   1      -7.115  -1.681  -1.118  0.00  0.00     0.019 A 
HETATM   18  C   UNK N   1      -7.305  -2.501  -0.002  0.00  0.00     0.037 A 
HETATM   19  C   UNK N   1      -6.439  -2.410   1.098  0.00  0.00     0.019 A 
HETATM   20  C   UNK N   1      -5.344  -1.555   1.040  0.00  0.00     0.010 A 
BRANCH  18  21
HETATM   21  C   UNK N   1      -8.351  -3.522  -0.047  0.00  0.00     0.176 C 
HETATM   22  O   UNK N   1      -8.431  -4.361   0.836  0.00  0.00    -0.646 OA
BRANCH  21  23
HETATM   23  O   UNK N   1      -9.170  -3.595  -1.113  0.00  0.00    -0.773 OA
HETATM   24  H   UNK N   1      -9.499  -3.126  -1.855  0.00  0.00     0.167 HD
ENDBRANCH  21  23
ENDBRANCH  18  21
ENDBRANCH  14  15
ENDBRANCH   6  14
BRANCH   4  25
HETATM   25  C   UNK N   1       3.098  -0.275   0.328  0.00  0.00    -0.067 C 
HETATM   26  C   UNK N   1       3.892   0.605   0.204  0.00  0.00    -0.097 C 
BRANCH  26  27
HETATM   27  C   UNK N   1       5.048   1.453   0.030  0.00  0.00     0.132 C 
BRANCH  27  28
HETATM   28  C   UNK N   1       6.110   0.446  -0.197  0.00  0.00    -0.047 A 
HETATM   29  C   UNK N   1       7.155   0.355   0.714  0.00  0.00     0.008 A 
HETATM   30  C   UNK N   1       8.044  -0.716   0.637  0.00  0.00     0.001 A 
HETATM   31  C   UNK N   1       7.864  -1.714  -0.327  0.00  0.00     0.000 A 
HETATM   32  C   UNK N   1       6.820  -1.625  -1.248  0.00  0.00     0.001 A 
HETATM   33  C   UNK N   1       5.948  -0.544  -1.191  0.00  0.00     0.008 A 
ENDBRANCH  27  28
ENDBRANCH  26  27
ENDBRANCH   4  25
TORSDOF 7
