REMARK  5 active torsions:
REMARK  status: ('A' for Active; 'I' for Inactive)
REMARK    1  A    between atoms: C_1  and  C_2 
REMARK    2  A    between atoms: C_1  and  N_15 
REMARK    3  A    between atoms: C_2  and  C_3 
REMARK    4  A    between atoms: C_24  and  C_7 
REMARK    5  A    between atoms: C_13  and  N_12 
ROOT
HETATM    1  C   UNK N   1       3.339   1.566  -0.508  0.00  0.00     0.101 C 
HETATM    2  C   UNK N   1       2.502   1.469   0.742  0.00  0.00     0.151 C 
HETATM    3  N   UNK N   1       1.269   0.761   0.452  0.00  0.00    -0.350 N 
HETATM    4  C   UNK N   1       1.285  -0.406  -0.241  0.00  0.00     0.220 C 
HETATM    5  O   UNK N   1       0.248  -1.058  -0.358  0.00  0.00    -0.273 OA
HETATM    6  C   UNK N   1       2.427  -0.769  -1.124  0.00  0.00     0.114 C 
HETATM    7  C   UNK N   1       3.658   0.154  -1.078  0.00  0.00     0.054 C 
ENDROOT
BRANCH   3   8
HETATM    8  C   UNK N   1       0.038   1.472   0.313  0.00  0.00     0.130 C 
BRANCH   8   9
HETATM    9  C   UNK N   1      -0.414   2.580   1.226  0.00  0.00     0.058 C 
BRANCH   9  10
HETATM   10  C   UNK N   1      -1.875   2.784   0.870  0.00  0.00    -0.054 A 
HETATM   11  C   UNK N   1      -2.591   1.782   0.153  0.00  0.00     0.047 A 
HETATM   12  C   UNK N   1      -3.920   1.987  -0.132  0.00  0.00     0.105 A 
HETATM   13  C   UNK N   1      -4.561   3.092   0.243  0.00  0.00     0.105 A 
HETATM   14  O   UNK N   1      -4.759   1.176  -0.771  0.00  0.00    -0.323 OA
HETATM   15  O   UNK N   1      -5.832   3.008  -0.145  0.00  0.00    -0.323 OA
HETATM   16  C   UNK N   1      -3.924   4.122   0.941  0.00  0.00     0.040 A 
HETATM   17  C   UNK N   1      -6.015   1.784  -0.803  0.00  0.00     0.352 A 
HETATM   18  C   UNK N   1      -2.556   3.959   1.259  0.00  0.00     0.010 A 
ENDBRANCH   9  10
ENDBRANCH   8   9
ENDBRANCH   3   8
BRANCH   1  19
HETATM   19  N   UNK N   1       2.582   2.337  -1.485  0.00  0.00    -0.424 N 
HETATM   20  H   UNK N   1       2.784   3.065  -2.170  0.00  0.00     0.150 HD
HETATM   21  H   UNK N   1       1.594   2.082  -1.485  0.00  0.00     0.150 HD
ENDBRANCH   1  19
BRANCH   7  22
HETATM   22  C   UNK N   1       4.803  -0.632  -0.458  0.00  0.00    -0.010 A 
HETATM   23  C   UNK N   1       6.100  -0.092  -0.366  0.00  0.00     0.126 A 
HETATM   24  C   UNK N   1       7.160  -0.895   0.068  0.00  0.00     0.088 A 
HETATM   25  F   UNK N   1       6.356   1.185  -0.740  0.00  0.00    -0.205 F 
HETATM   26  C   UNK N   1       6.946  -2.237   0.396  0.00  0.00     0.157 A 
HETATM   27  C   UNK N   1       5.666  -2.780   0.308  0.00  0.00     0.155 A 
HETATM   28  F   UNK N   1       7.985  -3.015   0.779  0.00  0.00    -0.203 F 
HETATM   29  C   UNK N   1       4.610  -1.984  -0.107  0.00  0.00     0.056 A 
HETATM   30  F   UNK N   1       5.446  -4.087   0.593  0.00  0.00    -0.203 F 
ENDBRANCH   7  22
TORSDOF 5
