REMARK  4 active torsions:
REMARK  status: ('A' for Active; 'I' for Inactive)
REMARK    1  A    between atoms: C_8  and  N_9 
REMARK       I    between atoms: N_9  and  C_10 
REMARK    2  A    between atoms: C_10  and  C_12 
REMARK    3  A    between atoms: C_16  and  C_18 
REMARK    4  A    between atoms: C_20  and  C_21 
ROOT
HETATM    1  N   UNK N   1       8.158   2.243  -0.891  0.00  0.00    -0.191 NA
HETATM    2  C   UNK N   1       7.274   2.928  -0.591  0.00  0.00     0.099 C 
HETATM    3  C   UNK N   1       6.159   3.753  -0.226  0.00  0.00     0.046 A 
HETATM    4  C   UNK N   1       6.281   5.141  -0.129  0.00  0.00     0.023 A 
HETATM    5  C   UNK N   1       5.160   5.918   0.196  0.00  0.00     0.004 A 
HETATM    6  C   UNK N   1       3.916   5.308   0.410  0.00  0.00     0.029 A 
HETATM    7  C   UNK N   1       4.929   3.155  -0.005  0.00  0.00     0.052 A 
HETATM    8  C   UNK N   1       3.799   3.918   0.325  0.00  0.00     0.036 A 
ENDROOT
BRANCH   8   9
HETATM    9  N   UNK N   1       2.521   3.303   0.438  0.00  0.00    -0.323 N 
HETATM   10  C   UNK N   1       2.352   1.958   0.551  0.00  0.00     0.256 C 
HETATM   11  O   UNK N   1       3.307   1.225   0.777  0.00  0.00    -0.267 OA
HETATM   12  H   UNK N   1       1.722   3.878   0.434  0.00  0.00     0.169 HD
BRANCH  10  13
HETATM   13  C   UNK N   1       1.036   1.351   0.339  0.00  0.00     0.032 A 
HETATM   14  C   UNK N   1       0.967  -0.036   0.295  0.00  0.00     0.018 A 
HETATM   15  C   UNK N   1      -0.235  -0.663   0.063  0.00  0.00     0.013 A 
HETATM   16  C   UNK N   1      -1.417   0.069  -0.130  0.00  0.00    -0.025 A 
HETATM   17  C   UNK N   1      -1.353   1.472  -0.105  0.00  0.00     0.013 A 
HETATM   18  C   UNK N   1      -0.123   2.114   0.116  0.00  0.00     0.018 A 
BRANCH  16  19
HETATM   19  C   UNK N   1      -2.680  -0.708  -0.250  0.00  0.00    -0.019 A 
HETATM   20  C   UNK N   1      -2.537  -2.092  -0.198  0.00  0.00     0.028 A 
HETATM   21  C   UNK N   1      -3.606  -2.958  -0.198  0.00  0.00     0.018 A 
HETATM   22  C   UNK N   1      -4.904  -2.443  -0.265  0.00  0.00     0.016 A 
HETATM   23  C   UNK N   1      -5.092  -1.052  -0.347  0.00  0.00     0.008 A 
HETATM   24  C   UNK N   1      -3.991  -0.174  -0.338  0.00  0.00    -0.051 A 
HETATM   25  C   UNK N   1      -4.256   1.293  -0.387  0.00  0.00     0.049 C 
BRANCH  21  26
HETATM   26  C   UNK N   1      -3.288  -4.382  -0.073  0.00  0.00     0.174 A 
HETATM   27  O   UNK N   1      -2.059  -4.843  -0.062  0.00  0.00    -0.278 OA
HETATM   28  C   UNK N   1      -2.159  -6.134   0.095  0.00  0.00     0.136 A 
HETATM   29  C   UNK N   1      -1.002  -7.067   0.156  0.00  0.00     0.099 C 
HETATM   30  N   UNK N   1      -3.452  -6.498   0.191  0.00  0.00    -0.281 N 
HETATM   31  N   UNK N   1      -4.168  -5.387   0.084  0.00  0.00    -0.277 N 
ATOM     32  HN  UNK N   1      -3.811  -7.444   0.320  1.00  0.00     0.189 HD
ATOM     33  HN  UNK N   1      -5.185  -5.310   0.114  1.00  0.00     0.189 HD
ENDBRANCH  21  26
ENDBRANCH  16  19
ENDBRANCH  10  13
ENDBRANCH   8   9
TORSDOF 4
