REMARK  5 active torsions:
REMARK  status: ('A' for Active; 'I' for Inactive)
REMARK    1  A    between atoms: C_8  and  C_21 
REMARK    2  A    between atoms: C_25  and  C_8 
REMARK    3  A    between atoms: C_10  and  C_11 
REMARK    4  A    between atoms: C_22  and  C_24 
REMARK    5  A    between atoms: C_25  and  O_29 
ROOT
HETATM    1  C   UNK N   1      -3.222   3.113  -0.424  0.00  0.00     0.103 A 
HETATM    2  C   UNK N   1       1.183   2.130  -0.439  0.00  0.00    -0.009 A 
HETATM    3  C   UNK N   1      -1.188   2.294  -0.541  0.00  0.00     0.021 A 
HETATM    4  C   UNK N   1      -1.122   3.635  -0.549  0.00  0.00     0.116 A 
HETATM    5  C   UNK N   1      -0.060   1.517  -0.487  0.00  0.00     0.029 A 
HETATM    6  C   UNK N   1       1.237   3.555  -0.469  0.00  0.00     0.102 A 
HETATM    7  C   UNK N   1      -2.492   1.922  -0.475  0.00  0.00     0.004 A 
HETATM    8  N   UNK N   1      -2.361   4.173  -0.497  0.00  0.00    -0.351 N 
HETATM    9  N   UNK N   1       0.068   4.292  -0.525  0.00  0.00    -0.351 N 
ATOM     10  HN  UNK N   1       0.099   5.311  -0.549  1.00  0.00     0.166 HD
HETATM   11  H   UNK N   1      -2.594   5.129  -0.509  0.00  0.00     0.166 HD
ENDROOT
BRANCH   7  12
HETATM   12  C   UNK N   1      -2.888   0.511  -0.298  0.00  0.00    -0.024 A 
HETATM   13  C   UNK N   1      -3.955   0.150   0.530  0.00  0.00     0.013 A 
HETATM   14  C   UNK N   1      -4.127  -1.198   0.886  0.00  0.00     0.008 A 
HETATM   15  C   UNK N   1      -3.239  -2.174   0.404  0.00  0.00    -0.048 A 
HETATM   16  C   UNK N   1      -2.211  -1.818  -0.458  0.00  0.00     0.008 A 
HETATM   17  C   UNK N   1      -2.032  -0.488  -0.792  0.00  0.00     0.013 A 
BRANCH  15  18
HETATM   18  C   UNK N   1      -3.372  -3.604   0.793  0.00  0.00     0.148 C 
BRANCH  18  19
HETATM   19  C   UNK N   1      -4.337  -4.339  -0.083  0.00  0.00     0.143 C 
HETATM   20  O   UNK N   1      -5.052  -3.740  -0.872  0.00  0.00    -0.650 OA
BRANCH  19  21
HETATM   21  O   UNK N   1      -4.404  -5.679  -0.008  0.00  0.00    -0.776 OA
HETATM   22  H   UNK N   1      -5.237  -6.106   0.044  0.00  0.00     0.167 HD
ENDBRANCH  19  21
ENDBRANCH  18  19
ENDBRANCH  15  18
ENDBRANCH   7  12
BRANCH   2  23
HETATM   23  C   UNK N   1       2.361   1.240  -0.309  0.00  0.00    -0.024 A 
HETATM   24  C   UNK N   1       2.151  -0.155  -0.246  0.00  0.00     0.013 A 
HETATM   25  C   UNK N   1       3.213  -1.041  -0.112  0.00  0.00     0.013 A 
HETATM   26  C   UNK N   1       4.510  -0.549  -0.037  0.00  0.00    -0.026 A 
HETATM   27  C   UNK N   1       4.742   0.847  -0.091  0.00  0.00    -0.025 A 
HETATM   28  C   UNK N   1       5.581  -1.435   0.088  0.00  0.00     0.012 A 
HETATM   29  C   UNK N   1       6.049   1.330  -0.016  0.00  0.00     0.012 A 
HETATM   30  C   UNK N   1       3.667   1.737  -0.224  0.00  0.00     0.024 A 
HETATM   31  C   UNK N   1       7.119   0.437   0.108  0.00  0.00     0.001 A 
HETATM   32  C   UNK N   1       6.885  -0.942   0.159  0.00  0.00     0.001 A 
ENDBRANCH   2  23
TORSDOF 5
