REMARK  10 active torsions:
REMARK  status: ('A' for Active; 'I' for Inactive)
REMARK    1  A    between atoms: C_2  and  C_3 
REMARK       I    between atoms: C_2  and  N_22 
REMARK    2  A    between atoms: C_3  and  N_4 
REMARK    3  A    between atoms: C_3  and  C_15 
REMARK    4  A    between atoms: N_4  and  C_5 
REMARK    5  A    between atoms: C_15  and  C_16 
REMARK    6  A    between atoms: N_22  and  C_23 
REMARK    7  A    between atoms: C_23  and  C_24 
REMARK    8  A    between atoms: C_24  and  N_25 
REMARK    9  A    between atoms: N_25  and  C_26 
REMARK   10  A    between atoms: C_31  and  O_32 
ROOT
HETATM    1  C   UNK N   1      -0.740   0.346  -0.107  0.00  0.00     0.177 C 
ENDROOT
BRANCH   1   2
HETATM    2  C   UNK N   1       0.585   0.431  -0.842  0.00  0.00     0.240 C 
HETATM    3  O   UNK N   1       0.652   1.030  -1.905  0.00  0.00    -0.271 OA
HETATM    4  N   UNK N   1       1.705  -0.158  -0.347  0.00  0.00    -0.358 N 
HETATM    5  H   UNK N   1       2.534  -0.116  -0.876  0.00  0.00     0.162 HD
BRANCH   4   6
HETATM    6  C   UNK N   1       1.729  -0.846   0.927  0.00  0.00     0.142 C 
BRANCH   6   7
HETATM    7  C   UNK N   1       3.141  -1.252   1.382  0.00  0.00     0.139 C 
BRANCH   7   8
HETATM    8  N   UNK N   1       4.212  -0.666   0.601  0.00  0.00    -0.388 N 
HETATM    9  H   UNK N   1       4.857  -1.272   0.170  0.00  0.00     0.159 HD
BRANCH   8  10
HETATM   10  C   UNK N   1       4.384   0.731   0.420  0.00  0.00     0.028 A 
HETATM   11  C   UNK N   1       3.511   1.654   1.017  0.00  0.00     0.032 A 
HETATM   12  C   UNK N   1       3.615   3.012   0.722  0.00  0.00     0.039 A 
HETATM   13  C   UNK N   1       4.601   3.468  -0.168  0.00  0.00     0.068 A 
HETATM   14  C   UNK N   1       5.497   2.551  -0.729  0.00  0.00     0.039 A 
HETATM   15  C   UNK N   1       5.384   1.188  -0.442  0.00  0.00     0.032 A 
BRANCH  13  16
HETATM   16  O   UNK N   1       4.695   4.773  -0.512  0.00  0.00    -0.356 OA
HETATM   17  C   UNK N   1       3.787   5.724  -0.104  0.00  0.00     0.210 C 
ENDBRANCH  13  16
ENDBRANCH   8  10
ENDBRANCH   7   8
ENDBRANCH   6   7
ENDBRANCH   4   6
ENDBRANCH   1   2
BRANCH   1  18
HETATM   18  N   UNK N   1      -1.774   1.102  -0.793  0.00  0.00    -0.343 N 
HETATM   19  H   UNK N   1      -1.516   1.681  -1.546  0.00  0.00     0.164 HD
BRANCH  18  20
HETATM   20  C   UNK N   1      -3.142   1.036  -0.419  0.00  0.00     0.226 A 
HETATM   21  O   UNK N   1      -3.654   0.084   0.343  0.00  0.00    -0.277 OA
HETATM   22  C   UNK N   1      -4.937   0.305   0.402  0.00  0.00     0.106 A 
HETATM   23  C   UNK N   1      -5.920  -0.429   1.057  0.00  0.00     0.040 A 
HETATM   24  C   UNK N   1      -5.220   1.419  -0.328  0.00  0.00     0.069 A 
HETATM   25  C   UNK N   1      -7.246   0.030   0.947  0.00  0.00     0.003 A 
HETATM   26  C   UNK N   1      -7.543   1.196   0.200  0.00  0.00     0.002 A 
HETATM   27  C   UNK N   1      -6.516   1.907  -0.455  0.00  0.00     0.032 A 
HETATM   28  N   UNK N   1      -4.086   1.900  -0.871  0.00  0.00    -0.320 N 
ATOM     29  HN  UNK N   1      -3.967   2.714  -1.473  1.00  0.00     0.169 HD
ENDBRANCH  18  20
ENDBRANCH   1  18
BRANCH   1  30
HETATM   30  C   UNK N   1      -1.156  -1.119   0.096  0.00  0.00     0.039 C 
BRANCH  30  31
HETATM   31  C   UNK N   1      -1.418  -1.917  -1.183  0.00  0.00    -0.012 C 
HETATM   32  C   UNK N   1      -0.117  -2.328  -1.888  0.00  0.00     0.005 C 
HETATM   33  C   UNK N   1       0.633  -3.491  -1.216  0.00  0.00     0.000 C 
HETATM   34  C   UNK N   1       0.035  -3.900   0.129  0.00  0.00     0.000 C 
HETATM   35  C   UNK N   1      -1.461  -4.200  -0.002  0.00  0.00     0.000 C 
HETATM   36  C   UNK N   1      -2.232  -3.168  -0.846  0.00  0.00     0.005 C 
ENDBRANCH  30  31
ENDBRANCH   1  30
TORSDOF 10
