REMARK  7 active torsions:
REMARK  status: ('A' for Active; 'I' for Inactive)
REMARK    1  A    between atoms: C_3  and  C_2 
REMARK    2  A    between atoms: C_8  and  O_9 
REMARK    3  A    between atoms: C_10  and  O_9 
REMARK    4  A    between atoms: C_10  and  C_11 
REMARK    5  A    between atoms: C_14  and  C_10 
REMARK    6  A    between atoms: C_11  and  O_12 
REMARK    7  A    between atoms: C_15  and  C_14 
ROOT
HETATM    1  C   UNK N   1      -0.217  -1.362   0.176  0.00  0.00     0.230 C 
ENDROOT
BRANCH   1   2
HETATM    2  O   UNK N   1      -1.393  -0.634  -0.004  0.00  0.00    -0.335 OA
BRANCH   2   3
HETATM    3  C   UNK N   1      -1.532   0.708  -0.180  0.00  0.00     0.070 A 
HETATM    4  C   UNK N   1      -2.652   1.346   0.365  0.00  0.00     0.037 A 
HETATM    5  C   UNK N   1      -2.792   2.734   0.269  0.00  0.00     0.010 A 
HETATM    6  C   UNK N   1      -1.819   3.492  -0.389  0.00  0.00    -0.058 A 
HETATM    7  C   UNK N   1      -0.721   2.856  -0.978  0.00  0.00     0.010 A 
HETATM    8  C   UNK N   1      -0.578   1.471  -0.874  0.00  0.00     0.037 A 
BRANCH   6   9
HETATM    9  C   UNK N   1      -1.953   4.975  -0.453  0.00  0.00     0.034 C 
HETATM   10  C   UNK N   1      -0.802   5.643   0.281  0.00  0.00     0.010 C 
ENDBRANCH   6   9
ENDBRANCH   2   3
ENDBRANCH   1   2
BRANCH   1  11
HETATM   11  C   UNK N   1       1.018  -0.507   0.410  0.00  0.00     0.170 C 
HETATM   12  O   UNK N   1       1.978  -0.565  -0.342  0.00  0.00    -0.648 OA
BRANCH  11  13
HETATM   13  O   UNK N   1       1.051   0.338   1.459  0.00  0.00    -0.774 OA
HETATM   14  H   UNK N   1       1.571   0.613   2.189  0.00  0.00     0.167 HD
ENDBRANCH  11  13
ENDBRANCH   1  11
BRANCH   1  15
HETATM   15  C   UNK N   1      -0.041  -2.361  -0.979  0.00  0.00     0.082 C 
BRANCH  15  16
HETATM   16  C   UNK N   1       0.998  -3.397  -0.658  0.00  0.00    -0.055 A 
HETATM   17  C   UNK N   1       0.795  -4.299   0.396  0.00  0.00     0.007 A 
HETATM   18  C   UNK N   1       1.777  -5.240   0.716  0.00  0.00     0.001 A 
HETATM   19  C   UNK N   1       2.967  -5.282  -0.015  0.00  0.00     0.000 A 
HETATM   20  C   UNK N   1       3.171  -4.389  -1.071  0.00  0.00     0.001 A 
HETATM   21  C   UNK N   1       2.188  -3.448  -1.394  0.00  0.00     0.007 A 
ENDBRANCH  15  16
ENDBRANCH   1  15
TORSDOF 7
