REMARK  5 active torsions:
REMARK  status: ('A' for Active; 'I' for Inactive)
REMARK    1  A    between atoms: C_9  and  S_10 
REMARK    2  A    between atoms: S_10  and  N_13 
REMARK    3  A    between atoms: C_14  and  N_13 
REMARK    4  A    between atoms: N_19  and  C_20 
REMARK    5  A    between atoms: C_20  and  C_22 
REMARK       I    between atoms: C_22  and  N_24 
ROOT
HETATM    1  C   UNK N   1      -0.713  -0.577   0.467  0.00  0.00     0.186 C 
HETATM    2  C   UNK N   1      -0.014  -1.760  -0.219  0.00  0.00     0.055 C 
HETATM    3  C   UNK N   1      -0.976  -2.944  -0.150  0.00  0.00     0.129 C 
HETATM    4  C   UNK N   1      -2.122  -1.039   0.426  0.00  0.00     0.244 C 
HETATM    5  O   UNK N   1      -3.069  -0.326   0.721  0.00  0.00    -0.271 OA
HETATM    6  N   UNK N   1      -2.251  -2.348   0.129  0.00  0.00    -0.337 N 
ENDROOT
BRANCH   1   7
HETATM    7  N   UNK N   1      -0.561   0.677  -0.264  0.00  0.00    -0.301 N 
HETATM    8  H   UNK N   1      -1.353   1.265  -0.526  0.00  0.00     0.173 HD
BRANCH   7   9
HETATM    9  S   UNK N   1       1.125   1.093  -0.658  0.00  0.00     0.266 S 
HETATM   10  O   UNK N   1       1.199   2.625  -0.585  0.00  0.00    -0.200 OA
HETATM   11  O   UNK N   1       1.115   0.921  -2.183  0.00  0.00    -0.200 OA
BRANCH   9  12
HETATM   12  C   UNK N   1       2.648   0.315  -0.091  0.00  0.00     0.121 A 
HETATM   13  C   UNK N   1       3.924   0.708  -0.528  0.00  0.00     0.045 A 
HETATM   14  C   UNK N   1       4.924  -0.236  -0.172  0.00  0.00    -0.017 A 
HETATM   15  C   UNK N   1       4.440  -1.345   0.513  0.00  0.00     0.018 A 
HETATM   16  C   UNK N   1       6.274  -0.154  -0.510  0.00  0.00     0.014 A 
HETATM   17  C   UNK N   1       5.252  -2.415   0.868  0.00  0.00     0.043 A 
HETATM   18  S   UNK N   1       2.814  -1.147   0.695  0.00  0.00    -0.076 SA
HETATM   19  C   UNK N   1       6.610  -2.350   0.517  0.00  0.00     0.035 A 
HETATM   20 Cl   UNK N   1       7.668  -3.697   0.879  0.00  0.00    -0.084 Cl
HETATM   21  C   UNK N   1       7.119  -1.222  -0.161  0.00  0.00     0.024 A 
ENDBRANCH   9  12
ENDBRANCH   7   9
ENDBRANCH   1   7
BRANCH   6  22
HETATM   22  C   UNK N   1      -3.533  -3.077   0.126  0.00  0.00     0.175 C 
HETATM   23  C   UNK N   1      -4.322  -2.726   1.385  0.00  0.00     0.042 C 
BRANCH  22  24
HETATM   24  C   UNK N   1      -3.417  -4.612   0.108  0.00  0.00     0.242 C 
HETATM   25  O   UNK N   1      -2.320  -5.147   0.188  0.00  0.00    -0.271 OA
HETATM   26  N   UNK N   1      -4.532  -5.403   0.060  0.00  0.00    -0.346 N 
HETATM   27  C   UNK N   1      -4.411  -6.846   0.113  0.00  0.00     0.152 C 
HETATM   28  C   UNK N   1      -5.861  -4.851  -0.096  0.00  0.00     0.152 C 
HETATM   29  C   UNK N   1      -5.216  -7.429  -1.048  0.00  0.00     0.187 C 
HETATM   30  O   UNK N   1      -6.549  -6.979  -0.963  0.00  0.00    -0.388 OA
HETATM   31  C   UNK N   1      -6.538  -5.598  -1.247  0.00  0.00     0.187 C 
ENDBRANCH  22  24
ENDBRANCH   6  22
TORSDOF 5
