REMARK  7 active torsions:
REMARK  status: ('A' for Active; 'I' for Inactive)
REMARK    1  A    between atoms: C_1  and  N_36 
REMARK       I    between atoms: C_11  and  N_12 
REMARK    2  A    between atoms: N_12  and  C_13 
REMARK    3  A    between atoms: C_14  and  O_15 
REMARK    4  A    between atoms: C_19  and  C_21 
REMARK    5  A    between atoms: C_21  and  S_22 
REMARK       I    between atoms: C_27  and  N_28 
REMARK    6  A    between atoms: C_27  and  C_29 
REMARK    7  A    between atoms: C_35  and  N_36 
ROOT
HETATM    1  C   UNK N   1      -1.522   2.271  -0.779  0.00  0.00     0.135 A 
HETATM    2  N   UNK N   1      -0.413   1.478  -0.699  0.00  0.00    -0.175 N 
ATOM      3  HN  UNK N   1       0.499   1.869  -0.937  1.00  0.00     0.186 HD
HETATM    4  C   UNK N   1      -2.744   1.723  -0.420  0.00  0.00     0.054 A 
HETATM    5  C   UNK N   1      -2.807   0.436  -0.015  0.00  0.00     0.135 A 
HETATM    6  N   UNK N   1      -4.050   0.091   0.341  0.00  0.00    -0.351 N 
HETATM    7  C   UNK N   1      -4.802   1.204   0.151  0.00  0.00     0.091 A 
HETATM    8  C   UNK N   1      -4.008   2.253  -0.325  0.00  0.00     0.036 A 
HETATM    9  N   UNK N   1      -1.713  -0.352   0.052  0.00  0.00    -0.175 N 
ATOM     10  HN  UNK N   1      -1.788  -1.320   0.365  1.00  0.00     0.186 HD
HETATM   11  C   UNK N   1      -0.499   0.172  -0.309  0.00  0.00     0.686 A 
HETATM   12  N   UNK N   1       0.689  -0.592  -0.180  0.00  0.00    -0.189 N 
HETATM   13  H   UNK N   1      -4.354  -0.785   0.672  0.00  0.00     0.166 HD
HETATM   14  H   UNK N   1       1.552  -0.134  -0.292  0.00  0.00     0.184 HD
ENDROOT
BRANCH  12  15
HETATM   15  C   UNK N   1       0.700  -1.983   0.104  0.00  0.00     0.082 A 
HETATM   16  C   UNK N   1       1.820  -2.599   0.727  0.00  0.00     0.096 A 
HETATM   17  C   UNK N   1       1.756  -3.966   1.020  0.00  0.00     0.047 A 
HETATM   18  C   UNK N   1       0.623  -4.721   0.698  0.00  0.00    -0.042 A 
HETATM   19  C   UNK N   1      -0.460  -4.120   0.071  0.00  0.00     0.010 A 
HETATM   20  C   UNK N   1      -0.421  -2.764  -0.223  0.00  0.00     0.033 A 
BRANCH  16  21
HETATM   21  O   UNK N   1       2.954  -1.936   1.082  0.00  0.00    -0.354 OA
HETATM   22  C   UNK N   1       3.212  -0.602   0.866  0.00  0.00     0.210 C 
ENDBRANCH  16  21
BRANCH  18  23
HETATM   23  C   UNK N   1       0.563  -6.170   1.020  0.00  0.00     0.178 C 
BRANCH  23  24
HETATM   24  S   UNK N   1       1.795  -7.107   0.064  0.00  0.00     0.144 S 
HETATM   25  O   UNK N   1       3.108  -7.104   0.859  0.00  0.00    -0.228 OA
HETATM   26  O   UNK N   1       2.232  -6.237  -1.126  0.00  0.00    -0.228 OA
HETATM   27  C   UNK N   1       1.544  -8.774  -0.602  0.00  0.00     0.161 C 
ENDBRANCH  23  24
ENDBRANCH  18  23
ENDBRANCH  12  15
BRANCH   1  28
HETATM   28  N   UNK N   1      -1.409   3.651  -1.069  0.00  0.00    -0.340 N 
HETATM   29  H   UNK N   1      -2.207   4.154  -1.351  0.00  0.00     0.167 HD
BRANCH  28  30
HETATM   30  C   UNK N   1      -0.165   4.318  -0.960  0.00  0.00     0.052 A 
HETATM   31  C   UNK N   1      -0.049   5.450  -0.115  0.00  0.00     0.097 A 
HETATM   32  C   UNK N   1       1.235   6.010   0.088  0.00  0.00     0.134 A 
HETATM   33  F   UNK N   1       1.418   7.064   0.920  0.00  0.00    -0.205 F 
HETATM   34  C   UNK N   1       2.354   5.469  -0.551  0.00  0.00     0.043 A 
HETATM   35  C   UNK N   1       2.223   4.370  -1.396  0.00  0.00     0.005 A 
HETATM   36  C   UNK N   1       0.974   3.789  -1.588  0.00  0.00     0.030 A 
BRANCH  31  37
HETATM   37  C   UNK N   1      -1.252   6.015   0.588  0.00  0.00     0.254 C 
HETATM   38  O   UNK N   1      -2.366   5.559   0.383  0.00  0.00    -0.268 OA
HETATM   39  N   UNK N   1      -1.124   7.039   1.454  0.00  0.00    -0.366 N 
HETATM   40  H   UNK N   1      -0.429   7.333   2.087  0.00  0.00     0.159 HD
HETATM   41  H   UNK N   1      -1.909   7.633   1.454  0.00  0.00     0.159 HD
ENDBRANCH  31  37
ENDBRANCH  28  30
ENDBRANCH   1  28
TORSDOF 7
