REMARK  13 active torsions:
REMARK  status: ('A' for Active; 'I' for Inactive)
REMARK    1  A    between atoms: C_2  and  N_1 
REMARK    2  A    between atoms: C_2  and  C_3 
REMARK    3  A    between atoms: C_2  and  C_5 
REMARK    4  A    between atoms: C_3  and  S_4 
REMARK    5  A    between atoms: S_4  and  C_8 
REMARK    6  A    between atoms: C_5  and  O_7 
REMARK    7  A    between atoms: C_8  and  C_9 
REMARK    8  A    between atoms: C_9  and  C_10 
REMARK    9  A    between atoms: C_10  and  C_11 
REMARK   10  A    between atoms: C_11  and  C_12 
REMARK   11  A    between atoms: C_12  and  C_13 
REMARK   12  A    between atoms: C_13  and  C_14 
REMARK   13  A    between atoms: C_14  and  C_15 
ROOT
HETATM    1  S   UNK N   1       2.012   0.263   0.916  0.00  0.00    -0.167 SA
ENDROOT
BRANCH   1   2
HETATM    2  C   UNK N   1       2.932   0.923  -0.517  0.00  0.00     0.109 C 
BRANCH   2   3
HETATM    3  C   UNK N   1       4.420   1.155  -0.252  0.00  0.00     0.182 C 
BRANCH   3   4
HETATM    4  N   UNK N   1       4.580   2.080   0.859  0.00  0.00    -0.417 N 
HETATM    5  H   UNK N   1       5.198   2.307   1.637  0.00  0.00     0.150 HD
HETATM    6  H   UNK N   1       3.796   2.733   0.859  0.00  0.00     0.150 HD
ENDBRANCH   3   4
BRANCH   3   7
HETATM    7  C   UNK N   1       5.205  -0.105   0.012  0.00  0.00     0.163 C 
HETATM    8  O   UNK N   1       6.411  -0.036   0.190  0.00  0.00    -0.648 OA
BRANCH   7   9
HETATM    9  O   UNK N   1       4.602  -1.309   0.037  0.00  0.00    -0.775 OA
HETATM   10  H   UNK N   1       3.666  -1.365   0.054  0.00  0.00     0.167 HD
ENDBRANCH   7   9
ENDBRANCH   3   7
ENDBRANCH   2   3
ENDBRANCH   1   2
BRANCH   1  11
HETATM   11  C   UNK N   1       1.472  -1.209  -0.010  0.00  0.00     0.074 C 
BRANCH  11  12
HETATM   12  C   UNK N   1       0.420  -0.843  -1.050  0.00  0.00     0.010 C 
BRANCH  12  13
HETATM   13  C   UNK N   1      -0.983  -0.891  -0.473  0.00  0.00     0.001 C 
BRANCH  13  14
HETATM   14  C   UNK N   1      -1.290   0.360   0.332  0.00  0.00     0.000 C 
BRANCH  14  15
HETATM   15  C   UNK N   1      -2.645   0.213   0.995  0.00  0.00     0.000 C 
BRANCH  15  16
HETATM   16  C   UNK N   1      -3.751   0.549   0.014  0.00  0.00     0.000 C 
BRANCH  16  17
HETATM   17  C   UNK N   1      -5.014  -0.175   0.427  0.00  0.00    -0.000 C 
BRANCH  17  18
HETATM   18  C   UNK N   1      -6.180   0.319  -0.401  0.00  0.00    -0.005 C 
HETATM   19  C   UNK N   1      -7.404  -0.516  -0.091  0.00  0.00     0.005 C 
ENDBRANCH  17  18
ENDBRANCH  16  17
ENDBRANCH  15  16
ENDBRANCH  14  15
ENDBRANCH  13  14
ENDBRANCH  12  13
ENDBRANCH  11  12
ENDBRANCH   1  11
TORSDOF 13
