REMARK  3 active torsions:
REMARK  status: ('A' for Active; 'I' for Inactive)
REMARK    1  A    between atoms: C_2  and  C_3 
REMARK    2  A    between atoms: C_2  and  O_19 
REMARK    3  A    between atoms: N_10  and  C_11 
ROOT
HETATM    1  C   UNK N   1      -1.157   2.468   0.000  0.00  0.00     0.197 A 
HETATM    2  N   UNK N   1      -0.090   1.655   0.000  0.00  0.00    -0.271 N 
ATOM      3  HN  UNK N   1       0.890   1.939   0.000  1.00  0.00     0.189 HD
HETATM    4  N   UNK N   1      -2.315   1.770  -0.000  0.00  0.00    -0.324 N 
ATOM      5  HN  UNK N   1      -3.271   2.127  -0.000  1.00  0.00     0.169 HD
HETATM    6  C   UNK N   1      -1.900   0.484   0.000  0.00  0.00     0.101 A 
HETATM    7  C   UNK N   1      -2.831  -0.679  -0.000  0.00  0.00     0.091 C 
HETATM    8  N   UNK N   1      -0.548   0.420   0.000  0.00  0.00    -0.243 N 
ENDROOT
BRANCH   8   9
HETATM    9  C   UNK N   1       0.336  -0.714   0.000  0.00  0.00     0.061 A 
HETATM   10  C   UNK N   1       1.719  -0.484   0.000  0.00  0.00     0.055 A 
HETATM   11  C   UNK N   1       2.619  -1.544   0.000  0.00  0.00     0.037 A 
HETATM   12  C   UNK N   1       2.146  -2.857  -0.000  0.00  0.00     0.048 A 
HETATM   13 Cl   UNK N   1       4.337  -1.215  -0.000  0.00  0.00    -0.084 Cl
HETATM   14  C   UNK N   1       0.769  -3.104   0.000  0.00  0.00     0.037 A 
HETATM   15  C   UNK N   1      -0.138  -2.035   0.000  0.00  0.00     0.055 A 
HETATM   16 Cl   UNK N   1       0.183  -4.752  -0.000  0.00  0.00    -0.084 Cl
ENDBRANCH   8   9
BRANCH   1  17
HETATM   17  C   UNK N   1      -1.044   3.929  -0.000  0.00  0.00     0.213 C 
HETATM   18  O   UNK N   1      -2.043   4.627  -0.000  0.00  0.00    -0.644 OA
BRANCH  17  19
HETATM   19  O   UNK N   1       0.175   4.503  -0.000  0.00  0.00    -0.771 OA
HETATM   20  H   UNK N   1       0.945   3.968   0.000  0.00  0.00     0.168 HD
ENDBRANCH  17  19
ENDBRANCH   1  17
TORSDOF 3
