REMARK  4 active torsions:
REMARK  status: ('A' for Active; 'I' for Inactive)
REMARK    1  A    between atoms: C_2  and  N_1 
REMARK    2  A    between atoms: C_2  and  C_3 
REMARK    3  A    between atoms: C_2  and  C_9 
REMARK    4  A    between atoms: C_12  and  C_15 
ROOT
HETATM    1  C   UNK N   1       0.150   5.902  -0.064  0.00  0.00    -0.032 A 
HETATM    2  C   UNK N   1       1.369   5.215   0.100  0.00  0.00     0.010 A 
HETATM    3  C   UNK N   1       1.402   3.809   0.067  0.00  0.00     0.014 A 
HETATM    4  C   UNK N   1       0.216   3.081  -0.138  0.00  0.00    -0.007 A 
HETATM    5  C   UNK N   1      -0.975   3.776  -0.336  0.00  0.00     0.014 A 
HETATM    6  C   UNK N   1      -1.005   5.156  -0.299  0.00  0.00     0.010 A 
ENDROOT
BRANCH   4   7
HETATM    7  C   UNK N   1       0.197   1.599  -0.113  0.00  0.00     0.074 A 
HETATM    8  N   UNK N   1       1.356   0.884   0.023  0.00  0.00    -0.350 N 
HETATM    9  C   UNK N   1       1.347  -0.490   0.062  0.00  0.00     0.182 A 
ATOM     10  HN  UNK N   1       2.244   1.381   0.096  1.00  0.00     0.166 HD
HETATM   11  N   UNK N   1       0.168  -1.181  -0.025  0.00  0.00    -0.337 N 
HETATM   12  C   UNK N   1      -0.976  -0.473  -0.152  0.00  0.00     0.136 A 
ATOM     13  HN  UNK N   1       0.154  -2.201   0.006  1.00  0.00     0.168 HD
HETATM   14  N   UNK N   1      -2.222  -0.959  -0.239  0.00  0.00    -0.337 N 
HETATM   15  C   UNK N   1      -0.996   0.869  -0.199  0.00  0.00     0.105 A 
HETATM   16  C   UNK N   1      -3.001   0.150  -0.340  0.00  0.00     0.182 A 
HETATM   17  H   UNK N   1      -2.507  -1.902  -0.231  0.00  0.00     0.168 HD
HETATM   18  N   UNK N   1      -2.264   1.293  -0.317  0.00  0.00    -0.347 N 
ATOM     19  HN  UNK N   1      -2.600   2.254  -0.377  1.00  0.00     0.167 HD
ENDBRANCH   4   7
BRANCH   1  20
HETATM   20  C   UNK N   1       0.107   7.422   0.053  0.00  0.00     0.141 C 
BRANCH  20  21
HETATM   21  N   UNK N   1       0.869   7.997  -1.046  0.00  0.00    -0.419 N 
HETATM   22  H   UNK N   1       1.484   7.737  -1.816  0.00  0.00     0.150 HD
HETATM   23  H   UNK N   1       0.743   9.010  -1.046  0.00  0.00     0.150 HD
ENDBRANCH  20  21
BRANCH  20  24
HETATM   24  C   UNK N   1      -1.262   8.109   0.139  0.00  0.00    -0.032 A 
HETATM   25  C   UNK N   1      -2.479   7.403   0.098  0.00  0.00     0.009 A 
HETATM   26  C   UNK N   1      -3.704   8.057   0.224  0.00  0.00     0.001 A 
HETATM   27  C   UNK N   1      -3.734   9.439   0.401  0.00  0.00     0.000 A 
HETATM   28  C   UNK N   1      -2.539  10.161   0.447  0.00  0.00     0.001 A 
HETATM   29  C   UNK N   1      -1.311   9.500   0.319  0.00  0.00     0.009 A 
ENDBRANCH  20  24
ENDBRANCH   1  20
TORSDOF 4
