REMARK  3 active torsions:
REMARK  status: ('A' for Active; 'I' for Inactive)
REMARK    1  A    between atoms: C_5  and  C_8 
REMARK    2  A    between atoms: C_8  and  C_14 
REMARK    3  A    between atoms: C_17  and  C_20 
ROOT
HETATM    1  C   UNK N   1       0.080   3.025  -0.285  0.00  0.00    -0.045 A 
HETATM    2  C   UNK N   1       0.856   2.344  -1.244  0.00  0.00     0.009 A 
HETATM    3  C   UNK N   1       0.793   0.967  -1.360  0.00  0.00     0.014 A 
HETATM    4  C   UNK N   1      -0.102   0.236  -0.583  0.00  0.00    -0.007 A 
HETATM    5  C   UNK N   1      -0.969   0.909   0.295  0.00  0.00     0.014 A 
HETATM    6  C   UNK N   1      -0.854   2.295   0.470  0.00  0.00     0.009 A 
ENDROOT
BRANCH   1   7
HETATM    7  C   UNK N   1       0.470   4.463   0.060  0.00  0.00     0.017 C 
HETATM    8  C   UNK N   1      -0.139   4.947   1.397  0.00  0.00     0.038 C 
HETATM    9  C   UNK N   1      -1.557   5.478   1.192  0.00  0.00     0.115 C 
HETATM   10  N   UNK N   1      -1.592   6.650   0.299  0.00  0.00    -0.421 N 
HETATM   11  C   UNK N   1      -0.425   6.756  -0.593  0.00  0.00     0.115 C 
HETATM   12  H   UNK N   1      -2.356   7.327   0.299  0.00  0.00     0.153 HD
HETATM   13  C   UNK N   1       0.018   5.381  -1.101  0.00  0.00     0.038 C 
BRANCH   7  14
HETATM   14  C   UNK N   1       1.992   4.392   0.201  0.00  0.00    -0.045 A 
HETATM   15  C   UNK N   1       2.547   3.546   1.182  0.00  0.00     0.010 A 
HETATM   16  C   UNK N   1       3.895   3.191   1.135  0.00  0.00     0.024 A 
HETATM   17  C   UNK N   1       4.703   3.662   0.100  0.00  0.00     0.034 A 
HETATM   18 Cl   UNK N   1       6.361   3.115  -0.025  0.00  0.00    -0.084 Cl
HETATM   19  C   UNK N   1       4.179   4.535  -0.858  0.00  0.00     0.024 A 
HETATM   20  C   UNK N   1       2.829   4.896  -0.812  0.00  0.00     0.010 A 
ENDBRANCH   7  14
ENDBRANCH   1   7
BRANCH   4  21
HETATM   21  C   UNK N   1      -0.013  -1.233  -0.593  0.00  0.00     0.074 A 
HETATM   22  N   UNK N   1       1.184  -1.833  -0.886  0.00  0.00    -0.350 N 
HETATM   23  C   UNK N   1       1.332  -3.197  -0.839  0.00  0.00     0.182 A 
ATOM     24  HN  UNK N   1       1.983  -1.254  -1.144  1.00  0.00     0.166 HD
HETATM   25  N   UNK N   1       0.269  -3.996  -0.525  0.00  0.00    -0.337 N 
HETATM   26  C   UNK N   1      -0.918  -3.399  -0.262  0.00  0.00     0.136 A 
ATOM     27  HN  UNK N   1       0.366  -5.011  -0.490  1.00  0.00     0.168 HD
HETATM   28  N   UNK N   1      -2.075  -4.003   0.029  0.00  0.00    -0.337 N 
HETATM   29  C   UNK N   1      -1.079  -2.063  -0.277  0.00  0.00     0.105 A 
HETATM   30  C   UNK N   1      -2.950  -2.972   0.189  0.00  0.00     0.182 A 
HETATM   31  H   UNK N   1      -2.253  -4.968   0.109  0.00  0.00     0.168 HD
HETATM   32  N   UNK N   1      -2.354  -1.762   0.007  0.00  0.00    -0.347 N 
ATOM     33  HN  UNK N   1      -2.781  -0.837   0.072  1.00  0.00     0.167 HD
ENDBRANCH   4  21
TORSDOF 3
