REMARK  3 active torsions:
REMARK  status: ('A' for Active; 'I' for Inactive)
REMARK    1  A    between atoms: C_5  and  C_8 
REMARK    2  A    between atoms: C_8  and  C_14 
REMARK    3  A    between atoms: C_17  and  C_20 
ROOT
HETATM    1  C   UNK N   1      -0.079   3.486   0.026  0.00  0.00     0.017 C 
HETATM    2  C   UNK N   1      -0.714   4.044   1.323  0.00  0.00     0.038 C 
HETATM    3  C   UNK N   1      -2.092   4.647   1.052  0.00  0.00     0.115 C 
HETATM    4  N   UNK N   1      -2.006   5.814   0.156  0.00  0.00    -0.421 N 
HETATM    5  C   UNK N   1      -0.885   5.750  -0.800  0.00  0.00     0.115 C 
HETATM    6  C   UNK N   1      -0.556   4.307  -1.196  0.00  0.00     0.038 C 
HETATM    7  H   UNK N   1      -2.661   6.594   0.194  0.00  0.00     0.153 HD
ENDROOT
BRANCH   1   8
HETATM    8  C   UNK N   1       1.441   3.480   0.170  0.00  0.00    -0.045 A 
HETATM    9  C   UNK N   1       2.027   2.749   1.221  0.00  0.00     0.010 A 
HETATM   10  C   UNK N   1       3.388   2.443   1.200  0.00  0.00     0.024 A 
HETATM   11  C   UNK N   1       4.176   2.845   0.121  0.00  0.00     0.034 A 
HETATM   12 Cl   UNK N   1       5.850   2.344   0.031  0.00  0.00    -0.084 Cl
HETATM   13  C   UNK N   1       3.618   3.604  -0.911  0.00  0.00     0.024 A 
HETATM   14  C   UNK N   1       2.257   3.919  -0.889  0.00  0.00     0.010 A 
ENDBRANCH   1   8
BRANCH   1  15
HETATM   15  C   UNK N   1      -0.420   2.017  -0.220  0.00  0.00    -0.045 A 
HETATM   16  C   UNK N   1       0.334   1.309  -1.179  0.00  0.00     0.009 A 
HETATM   17  C   UNK N   1       0.256  -0.073  -1.270  0.00  0.00     0.013 A 
HETATM   18  C   UNK N   1      -0.612  -0.782  -0.440  0.00  0.00    -0.023 A 
HETATM   19  C   UNK N   1      -1.433  -0.086   0.462  0.00  0.00     0.013 A 
HETATM   20  C   UNK N   1      -1.320   1.305   0.589  0.00  0.00     0.009 A 
BRANCH  18  21
HETATM   21  C   UNK N   1      -0.598  -2.254  -0.473  0.00  0.00     0.008 A 
HETATM   22  C   UNK N   1       0.324  -3.043  -1.129  0.00  0.00     0.120 A 
HETATM   23  N   UNK N   1       0.019  -4.329  -0.864  0.00  0.00    -0.311 N 
HETATM   24  N   UNK N   1      -1.044  -4.370  -0.081  0.00  0.00    -0.311 N 
HETATM   25  H   UNK N   1       0.511  -5.113  -1.201  0.00  0.00     0.186 HD
HETATM   26  C   UNK N   1      -1.447  -3.111   0.188  0.00  0.00     0.120 A 
ATOM     27  HN  UNK N   1      -1.489  -5.219   0.265  1.00  0.00     0.186 HD
ENDBRANCH  18  21
ENDBRANCH   1  15
TORSDOF 3
