REMARK  4 active torsions:
REMARK  status: ('A' for Active; 'I' for Inactive)
REMARK    1  A    between atoms: C_9  and  C_11 
REMARK    2  A    between atoms: C_9  and  C_12 
REMARK    3  A    between atoms: C_9  and  C_14 
REMARK    4  A    between atoms: C_14  and  N_15 
ROOT
HETATM    1  C   UNK N   1       0.430   0.164   0.225  0.00  0.00     0.068 C 
ENDROOT
BRANCH   1   2
HETATM    2  C   UNK N   1      -0.908  -0.558   0.050  0.00  0.00    -0.048 A 
HETATM    3  C   UNK N   1      -2.094   0.179   0.232  0.00  0.00     0.008 A 
HETATM    4  C   UNK N   1      -3.344  -0.429   0.091  0.00  0.00     0.001 A 
HETATM    5  C   UNK N   1      -3.430  -1.786  -0.227  0.00  0.00     0.000 A 
HETATM    6  C   UNK N   1      -2.266  -2.533  -0.406  0.00  0.00     0.001 A 
HETATM    7  C   UNK N   1      -1.016  -1.922  -0.269  0.00  0.00     0.008 A 
ENDBRANCH   1   2
BRANCH   1   8
HETATM    8  C   UNK N   1       1.732  -0.640   0.091  0.00  0.00    -0.048 A 
HETATM    9  C   UNK N   1       2.962   0.012   0.296  0.00  0.00     0.009 A 
HETATM   10  C   UNK N   1       4.170  -0.687   0.203  0.00  0.00     0.024 A 
HETATM   11  C   UNK N   1       4.167  -2.052  -0.088  0.00  0.00     0.034 A 
HETATM   12  C   UNK N   1       2.958  -2.716  -0.292  0.00  0.00     0.024 A 
HETATM   13 Cl   UNK N   1       5.675  -2.934  -0.186  0.00  0.00    -0.084 Cl
HETATM   14  C   UNK N   1       1.753  -2.014  -0.204  0.00  0.00     0.009 A 
ENDBRANCH   1   8
BRANCH   1  15
HETATM   15  C   UNK N   1       0.441   1.350  -0.750  0.00  0.00     0.125 C 
BRANCH  15  16
HETATM   16  N   UNK N   1       1.340   2.400  -0.296  0.00  0.00    -0.429 N 
HETATM   17  H   UNK N   1       2.293   2.223   0.022  0.00  0.00     0.149 HD
HETATM   18  H   UNK N   1       1.000   3.362  -0.296  0.00  0.00     0.149 HD
ENDBRANCH  15  16
ENDBRANCH   1  15
TORSDOF 4
