REMARK  1 active torsions:
REMARK  status: ('A' for Active; 'I' for Inactive)
REMARK    1  A    between atoms: C_4  and  N_8 
REMARK       I    between atoms: N_8  and  C_9 
ROOT
HETATM    1  N   UNK N   1       1.218  -0.287   0.000  0.00  0.00    -0.193 N 
HETATM    2  C   UNK N   1       1.346  -1.702  -0.000  0.00  0.00     0.708 A 
HETATM    3  N   UNK N   1       2.520  -2.350  -0.000  0.00  0.00    -0.117 N 
ATOM      4  HN  UNK N   1       3.454  -1.939  -0.000  1.00  0.00     0.202 HD
HETATM    5  N   UNK N   1       2.209  -3.637  -0.000  0.00  0.00     0.006 NA
HETATM    6  N   UNK N   1       0.890  -3.773   0.000  0.00  0.00     0.006 NA
HETATM    7  N   UNK N   1       0.326  -2.577   0.000  0.00  0.00    -0.117 N 
HETATM    8  H   UNK N   1       2.043   0.250   0.000  0.00  0.00     0.184 HD
HETATM    9  H   UNK N   1      -0.637  -2.372   0.000  0.00  0.00     0.202 HD
ENDROOT
BRANCH   1  10
HETATM   10  C   UNK N   1      -0.027   0.408   0.000  0.00  0.00     0.030 A 
HETATM   11  C   UNK N   1      -0.007   1.742   0.000  0.00  0.00     0.075 A 
HETATM   12  C   UNK N   1      -1.229   2.558   0.000  0.00  0.00     0.151 A 
HETATM   13  O   UNK N   1      -1.131   3.773  -0.000  0.00  0.00    -0.293 OA
HETATM   14  C   UNK N   1      -2.592   1.943  -0.000  0.00  0.00     0.083 A 
HETATM   15  C   UNK N   1      -2.645   0.416   0.000  0.00  0.00     0.014 A 
HETATM   16  C   UNK N   1      -1.327  -0.360  -0.000  0.00  0.00     0.058 A 
ENDBRANCH   1  10
TORSDOF 1
