REMARK  6 active torsions:
REMARK  status: ('A' for Active; 'I' for Inactive)
REMARK    1  A    between atoms: C_4  and  N_5 
REMARK    2  A    between atoms: C_14  and  N_15 
REMARK       I    between atoms: N_15  and  C_16 
REMARK    3  A    between atoms: C_16  and  C_18 
REMARK    4  A    between atoms: C_18  and  N_19 
REMARK    5  A    between atoms: C_21  and  N_24 
REMARK       I    between atoms: N_24  and  C_25 
REMARK    6  A    between atoms: C_25  and  C_27 
ROOT
HETATM    1  N   UNK N   1      -0.084   4.598   0.089  0.00  0.00    -0.323 N 
HETATM    2  C   UNK N   1      -0.535   4.023  -1.057  0.00  0.00     0.250 C 
HETATM    3  O   UNK N   1      -0.608   4.670  -2.092  0.00  0.00    -0.271 OA
HETATM    4  H   UNK N   1       0.087   4.036   0.879  0.00  0.00     0.169 HD
ENDROOT
BRANCH   2   5
HETATM    5  C   UNK N   1      -1.077   2.623  -1.028  0.00  0.00     0.375 C 
BRANCH   5   6
HETATM    6  N   UNK N   1      -2.058   2.460   0.051  0.00  0.00     0.099 N 
HETATM    7  C   UNK N   1      -2.924   1.324  -0.211  0.00  0.00     0.298 C 
HETATM    8  C   UNK N   1      -4.081   1.544   0.736  0.00  0.00     0.114 C 
HETATM    9  C   UNK N   1      -4.294   3.043   0.677  0.00  0.00     0.057 C 
HETATM   10  C   UNK N   1      -2.994   3.582   0.132  0.00  0.00     0.275 C 
BRANCH   8  11
HETATM   11  N   UNK N   1      -5.244   0.729   0.408  0.00  0.00    -0.350 N 
HETATM   12  C   UNK N   1      -6.507   1.175   0.145  0.00  0.00     0.259 C 
HETATM   13  O   UNK N   1      -6.767   2.368   0.115  0.00  0.00    -0.267 OA
HETATM   14  H   UNK N   1      -5.103  -0.245   0.371  0.00  0.00     0.163 HD
BRANCH  12  15
HETATM   15  C   UNK N   1      -7.593   0.207  -0.042  0.00  0.00     0.074 A 
HETATM   16  C   UNK N   1      -7.482  -1.187  -0.020  0.00  0.00     0.027 A 
HETATM   17  C   UNK N   1      -8.738  -1.846  -0.169  0.00  0.00     0.033 A 
HETATM   18  C   UNK N   1      -9.808  -0.956  -0.298  0.00  0.00     0.075 A 
HETATM   19  S   UNK N   1      -9.196   0.576  -0.234  0.00  0.00    -0.072 SA
HETATM   20 Cl   UNK N   1     -11.498  -1.377  -0.465  0.00  0.00    -0.076 Cl
ENDBRANCH  12  15
ENDBRANCH   8  11
ENDBRANCH   5   6
ENDBRANCH   2   5
BRANCH   1  21
HETATM   21  C   UNK N   1       0.144   5.993   0.164  0.00  0.00     0.073 A 
HETATM   22  C   UNK N   1      -0.942   6.872   0.297  0.00  0.00     0.145 A 
HETATM   23  F   UNK N   1      -2.207   6.397   0.406  0.00  0.00    -0.204 F 
HETATM   24  C   UNK N   1      -0.729   8.248   0.299  0.00  0.00     0.074 A 
HETATM   25  C   UNK N   1       0.567   8.779   0.173  0.00  0.00     0.045 A 
HETATM   26  C   UNK N   1       1.648   7.881   0.071  0.00  0.00     0.032 A 
HETATM   27  C   UNK N   1       1.439   6.499   0.069  0.00  0.00     0.035 A 
BRANCH  25  28
HETATM   28  N   UNK N   1       0.758  10.221   0.101  0.00  0.00    -0.290 N 
HETATM   29  C   UNK N   1      -0.355  11.019   0.151  0.00  0.00     0.100 A 
HETATM   30  C   UNK N   1      -0.262  12.406   0.056  0.00  0.00     0.018 A 
HETATM   31  C   UNK N   1       0.985  12.999  -0.092  0.00  0.00     0.007 A 
HETATM   32  C   UNK N   1       2.125  12.204  -0.141  0.00  0.00     0.075 A 
HETATM   33  C   UNK N   1       2.010  10.815  -0.044  0.00  0.00     0.252 A 
HETATM   34  O   UNK N   1       3.027  10.144  -0.094  0.00  0.00    -0.268 OA
ENDBRANCH  25  28
ENDBRANCH   1  21
TORSDOF 6
