REMARK  3 active torsions:
REMARK  status: ('A' for Active; 'I' for Inactive)
REMARK    1  A    between atoms: O_2  and  C_3 
REMARK    2  A    between atoms: C_7  and  C_9 
REMARK    3  A    between atoms: C_14  and  C_13 
REMARK       I    between atoms: C_21  and  N_22 
ROOT
HETATM    1  C   UNK N   1      39.079  24.956   0.133  0.00  0.00    -0.025 A 
HETATM    2  C   UNK N   1      39.112  23.565   0.318  0.00  0.00     0.012 A 
HETATM    3  C   UNK N   1      37.962  22.800   0.112  0.00  0.00     0.002 A 
HETATM    4  C   UNK N   1      36.783  23.411  -0.322  0.00  0.00     0.010 A 
HETATM    5  C   UNK N   1      36.729  24.803  -0.514  0.00  0.00    -0.029 A 
HETATM    6  C   UNK N   1      37.879  25.564  -0.263  0.00  0.00     0.022 A 
ENDROOT
BRANCH   5   7
HETATM    7  C   UNK N   1      35.484  25.486  -1.055  0.00  0.00     0.079 C 
HETATM    8  C   UNK N   1      35.868  26.298  -2.283  0.00  0.00     0.045 C 
HETATM    9  C   UNK N   1      34.452  24.466  -1.559  0.00  0.00     0.140 C 
HETATM   10  C   UNK N   1      33.311  24.216  -0.634  0.00  0.00     0.240 C 
HETATM   11  O   UNK N   1      32.600  23.241  -0.830  0.00  0.00    -0.272 OA
HETATM   12  N   UNK N   1      33.030  25.087   0.368  0.00  0.00    -0.156 N 
HETATM   13  C   UNK N   1      31.872  24.869   1.206  0.00  0.00     0.178 C 
HETATM   14  C   UNK N   1      33.850  26.235   0.590  0.00  0.00     0.677 C 
HETATM   15  N   UNK N   1      34.961  26.399  -0.050  0.00  0.00    -0.213 N 
HETATM   16  N   UNK N   1      33.473  27.192   1.561  0.00  0.00    -0.234 N 
ATOM     17  HN  UNK N   1      35.513  27.229   0.167  1.00  0.00     0.179 HD
HETATM   18  H   UNK N   1      33.919  27.752   2.237  0.00  0.00     0.174 HD
HETATM   19  H   UNK N   1      32.500  27.338   1.561  0.00  0.00     0.174 HD
ENDBRANCH   5   7
BRANCH   1  20
HETATM   20  C   UNK N   1      40.309  25.771   0.254  0.00  0.00    -0.023 A 
HETATM   21  C   UNK N   1      41.560  25.163   0.443  0.00  0.00     0.012 A 
HETATM   22  C   UNK N   1      42.722  25.939   0.482  0.00  0.00     0.004 A 
HETATM   23  C   UNK N   1      42.643  27.327   0.339  0.00  0.00     0.037 A 
HETATM   24  C   UNK N   1      41.395  27.949   0.157  0.00  0.00     0.069 A 
HETATM   25  C   UNK N   1      40.241  27.165   0.109  0.00  0.00     0.049 A 
BRANCH  24  26
HETATM   26  O   UNK N   1      41.279  29.291   0.021  0.00  0.00    -0.356 OA
HETATM   27  C   UNK N   1      42.354  30.149   0.044  0.00  0.00     0.210 C 
ENDBRANCH  24  26
ENDBRANCH   1  20
TORSDOF 3
