REMARK  8 active torsions:
REMARK  status: ('A' for Active; 'I' for Inactive)
REMARK    1  A    between atoms: C_2  and  N_4 
REMARK    2  A    between atoms: N_4  and  C_5 
REMARK    3  A    between atoms: C_5  and  C_6 
REMARK    4  A    between atoms: C_6  and  C_7 
REMARK    5  A    between atoms: C_7  and  N_8 
REMARK    6  A    between atoms: C_15  and  N_16 
REMARK    7  A    between atoms: C_20  and  S_21 
REMARK    8  A    between atoms: S_21  and  C_22 
ROOT
HETATM    1  N   UNK N   1      -1.116   0.917  -0.337  0.00  0.00    -0.311 N 
HETATM    2  C   UNK N   1      -0.700   2.191  -0.397  0.00  0.00     0.141 A 
HETATM    3  N   UNK N   1      -1.252   3.214  -1.093  0.00  0.00    -0.336 N 
ATOM      4  HN  UNK N   1      -2.093   3.074  -1.654  1.00  0.00     0.168 HD
HETATM    5  C   UNK N   1      -0.648   4.442  -1.019  0.00  0.00     0.183 A 
HETATM    6  N   UNK N   1       0.487   4.617  -0.262  0.00  0.00    -0.337 N 
ATOM      7  HN  UNK N   1       0.928   5.536  -0.223  1.00  0.00     0.168 HD
HETATM    8  C   UNK N   1       1.031   3.578   0.438  0.00  0.00     0.131 A 
HETATM    9  C   UNK N   1       0.406   2.346   0.359  0.00  0.00     0.123 A 
HETATM   10  N   UNK N   1       0.736   1.183   0.936  0.00  0.00    -0.330 N 
ATOM     11  HN  UNK N   1       1.513   0.996   1.570  1.00  0.00     0.168 HD
HETATM   12  C   UNK N   1      -0.203   0.308   0.483  0.00  0.00     0.153 A 
ENDROOT
BRANCH  12  13
HETATM   13  S   UNK N   1      -0.175  -1.441   0.943  0.00  0.00    -0.052 SA
BRANCH  13  14
HETATM   14  C   UNK N   1       1.491  -1.862   0.355  0.00  0.00     0.028 A 
HETATM   15  C   UNK N   1       2.496  -0.873   0.294  0.00  0.00     0.060 A 
HETATM   16  C   UNK N   1       3.765  -1.242  -0.121  0.00  0.00     0.106 A 
HETATM   17  O   UNK N   1       4.845  -0.476  -0.249  0.00  0.00    -0.323 OA
HETATM   18  C   UNK N   1       4.068  -2.498  -0.453  0.00  0.00     0.106 A 
HETATM   19  C   UNK N   1       5.905  -1.279  -0.684  0.00  0.00     0.352 A 
HETATM   20  O   UNK N   1       5.353  -2.560  -0.798  0.00  0.00    -0.323 OA
HETATM   21  C   UNK N   1       3.129  -3.524  -0.411  0.00  0.00     0.060 A 
HETATM   22  C   UNK N   1       1.818  -3.203  -0.001  0.00  0.00     0.031 A 
HETATM   23 Br   UNK N   1       0.524  -4.610   0.085  0.00  0.00    -0.050 Br
ENDBRANCH  13  14
ENDBRANCH  12  13
BRANCH   1  24
HETATM   24  C   UNK N   1      -2.298   0.418  -1.051  0.00  0.00     0.134 C 
BRANCH  24  25
HETATM   25  C   UNK N   1      -2.752  -0.988  -0.675  0.00  0.00     0.039 C 
BRANCH  25  26
HETATM   26  C   UNK N   1      -3.417  -1.038   0.703  0.00  0.00     0.115 C 
BRANCH  26  27
HETATM   27  N   UNK N   1      -4.464  -0.031   0.846  0.00  0.00    -0.418 N 
HETATM   28  H   UNK N   1      -4.405   0.802   1.433  0.00  0.00     0.153 HD
BRANCH  27  29
HETATM   29  C   UNK N   1      -5.606  -0.400   0.021  0.00  0.00     0.068 C 
HETATM   30  C   UNK N   1      -6.399   0.846  -0.310  0.00  0.00     0.031 C 
HETATM   31  C   UNK N   1      -6.498  -1.379   0.761  0.00  0.00     0.031 C 
ENDBRANCH  27  29
ENDBRANCH  26  27
ENDBRANCH  25  26
ENDBRANCH  24  25
ENDBRANCH   1  24
BRANCH   8  32
HETATM   32  N   UNK N   1       2.200   3.758   1.204  0.00  0.00    -0.383 N 
HETATM   33  H   UNK N   1       2.717   3.114   1.740  0.00  0.00     0.157 HD
HETATM   34  H   UNK N   1       2.556   4.676   1.204  0.00  0.00     0.157 HD
ENDBRANCH   8  32
TORSDOF 8
