REMARK  4 active torsions:
REMARK  status: ('A' for Active; 'I' for Inactive)
REMARK    1  A    between atoms: C_6  and  C_7 
REMARK       I    between atoms: N_16  and  C_17 
REMARK    2  A    between atoms: C_17  and  C_19 
REMARK    3  A    between atoms: C_23  and  C_24 
REMARK       I    between atoms: C_24  and  N_26 
REMARK    4  A    between atoms: N_26  and  O_27 
ROOT
HETATM    1  C   UNK N   1       6.714  -4.280   0.050  0.00  0.00     0.061 A 
HETATM    2  C   UNK N   1       5.829  -3.216  -0.052  0.00  0.00     0.120 A 
HETATM    3  N   UNK N   1       6.549  -2.066  -0.087  0.00  0.00    -0.352 N 
ATOM      4  HN  UNK N   1       6.192  -1.114  -0.159  1.00  0.00     0.166 HD
HETATM    5  C   UNK N   1       7.838  -2.452  -0.006  0.00  0.00     0.102 A 
HETATM    6  C   UNK N   1       9.034  -1.535  -0.078  0.00  0.00     0.202 C 
HETATM    7  N   UNK N   1       7.962  -3.783   0.092  0.00  0.00    -0.332 N 
HETATM    8  C   UNK N   1       9.238  -4.469   0.181  0.00  0.00     0.150 C 
HETATM    9  C   UNK N   1      10.228  -3.682  -0.649  0.00  0.00     0.147 C 
HETATM   10  N   UNK N   1      10.280  -2.300  -0.192  0.00  0.00    -0.339 N 
HETATM   11  C   UNK N   1      11.485  -1.695   0.065  0.00  0.00     0.261 C 
HETATM   12  O   UNK N   1      11.513  -0.506   0.355  0.00  0.00    -0.267 OA
ENDROOT
BRANCH  11  13
HETATM   13  C   UNK N   1      12.780  -2.438   0.006  0.00  0.00     0.073 A 
HETATM   14  S   UNK N   1      14.297  -1.774   0.139  0.00  0.00    -0.079 SA
HETATM   15  C   UNK N   1      15.205  -3.160   0.011  0.00  0.00     0.075 A 
HETATM   16  C   UNK N   1      14.320  -4.228  -0.136  0.00  0.00     0.026 A 
HETATM   17  C   UNK N   1      12.959  -3.822  -0.140  0.00  0.00     0.026 A 
BRANCH  15  18
HETATM   18  C   UNK N   1      16.670  -3.271   0.039  0.00  0.00     0.281 C 
HETATM   19  O   UNK N   1      17.359  -2.267   0.135  0.00  0.00    -0.265 OA
HETATM   20  N   UNK N   1      17.249  -4.491  -0.043  0.00  0.00    -0.233 N 
HETATM   21  H   UNK N   1      16.683  -5.292  -0.124  0.00  0.00     0.197 HD
BRANCH  20  22
HETATM   22  O   UNK N   1      18.582  -4.626  -0.017  0.00  0.00    -0.287 OA
HETATM   23  H   UNK N   1      18.980  -5.510   0.002  0.00  0.00     0.244 HD
ENDBRANCH  20  22
ENDBRANCH  15  18
ENDBRANCH  11  13
BRANCH   1  24
HETATM   24  C   UNK N   1       6.359  -5.720   0.068  0.00  0.00    -0.008 A 
HETATM   25  C   UNK N   1       7.358  -6.705   0.133  0.00  0.00     0.014 A 
HETATM   26  C   UNK N   1       7.024  -8.061   0.121  0.00  0.00     0.001 A 
HETATM   27  C   UNK N   1       5.684  -8.447   0.041  0.00  0.00     0.000 A 
HETATM   28  C   UNK N   1       4.681  -7.476  -0.024  0.00  0.00     0.001 A 
HETATM   29  C   UNK N   1       5.016  -6.117  -0.012  0.00  0.00     0.014 A 
ENDBRANCH   1  24
TORSDOF 4
