REMARK  3 active torsions:
REMARK  status: ('A' for Active; 'I' for Inactive)
REMARK    1  A    between atoms: C_2  and  C_9 
REMARK       I    between atoms: C_11  and  N_16 
REMARK    2  A    between atoms: C_11  and  O_19 
REMARK    3  A    between atoms: C_12  and  O_19 
ROOT
HETATM    1  C   UNK N   1      -2.954   1.790  -0.163  0.00  0.00     0.245 A 
HETATM    2  C   UNK N   1      -3.023   0.274  -0.251  0.00  0.00     0.187 A 
HETATM    3  C   UNK N   1      -0.511   0.349   0.088  0.00  0.00     0.070 A 
HETATM    4  C   UNK N   1      -0.559   1.754   0.154  0.00  0.00     0.062 A 
HETATM    5  C   UNK N   1       0.618   2.499   0.304  0.00  0.00     0.035 A 
HETATM    6  C   UNK N   1       1.855   1.859   0.382  0.00  0.00     0.044 A 
HETATM    7  C   UNK N   1       1.921   0.470   0.313  0.00  0.00     0.118 A 
HETATM    8  C   UNK N   1       0.751  -0.273   0.169  0.00  0.00     0.074 A 
HETATM    9  C   UNK N   1      -1.701  -1.792  -0.241  0.00  0.00     0.368 C 
HETATM   10  F   UNK N   1       3.118  -0.161   0.371  0.00  0.00    -0.206 F 
HETATM   11  N   UNK N   1      -1.727  -0.414  -0.113  0.00  0.00    -0.278 N 
HETATM   12  N   UNK N   1      -1.785   2.435   0.036  0.00  0.00    -0.323 N 
HETATM   13  O   UNK N   1      -3.976   2.446  -0.288  0.00  0.00    -0.271 OA
HETATM   14  O   UNK N   1      -2.734  -2.398  -0.508  0.00  0.00    -0.238 OA
HETATM   15  H   UNK N   1      -1.791   3.417   0.102  0.00  0.00     0.169 HD
ENDROOT
BRANCH   2  16
HETATM   16  C   UNK N   1      -3.988  -0.244   0.829  0.00  0.00     0.031 C 
HETATM   17  C   UNK N   1      -5.443  -0.121   0.401  0.00  0.00     0.007 C 
ENDBRANCH   2  16
BRANCH   9  18
HETATM   18  O   UNK N   1      -0.545  -2.489  -0.080  0.00  0.00    -0.299 OA
BRANCH  18  19
HETATM   19  C   UNK N   1      -0.325  -3.792  -0.482  0.00  0.00     0.125 C 
HETATM   20  C   UNK N   1      -1.309  -4.769   0.137  0.00  0.00     0.040 C 
HETATM   21  C   UNK N   1       1.077  -4.189  -0.068  0.00  0.00     0.040 C 
ENDBRANCH  18  19
ENDBRANCH   9  18
TORSDOF 3
