REMARK  8 active torsions:
REMARK  status: ('A' for Active; 'I' for Inactive)
REMARK    1  A    between atoms: C_11  and  C_12 
REMARK       I    between atoms: C_19  and  N_20 
REMARK    2  A    between atoms: N_20  and  C_21 
REMARK    3  A    between atoms: C_26  and  O_27 
REMARK    4  A    between atoms: O_27  and  C_28 
REMARK    5  A    between atoms: C_28  and  C_29 
REMARK    6  A    between atoms: C_29  and  O_30 
REMARK    7  A    between atoms: C_29  and  C_31 
REMARK    8  A    between atoms: C_31  and  N_32 
ROOT
HETATM    1  C   UNK N   1      -3.612   0.893   0.215  0.00  0.00     0.079 A 
HETATM    2  C   UNK N   1      -4.890   1.457   0.166  0.00  0.00     0.050 A 
HETATM    3  C   UNK N   1      -5.010   2.850   0.175  0.00  0.00     0.108 A 
HETATM    4  N   UNK N   1      -3.896   3.633   0.189  0.00  0.00    -0.202 N 
ATOM      5  HN  UNK N   1      -3.991   4.649   0.173  1.00  0.00     0.183 HD
HETATM    6  N   UNK N   1      -2.538   1.715   0.246  0.00  0.00    -0.189 N 
ATOM      7  HN  UNK N   1      -1.604   1.305   0.286  1.00  0.00     0.184 HD
HETATM    8  C   UNK N   1      -2.661   3.070   0.226  0.00  0.00     0.683 A 
HETATM    9  N   UNK N   1      -1.497   3.877   0.112  0.00  0.00    -0.192 N 
HETATM   10  H   UNK N   1      -1.571   4.855   0.030  0.00  0.00     0.184 HD
ENDROOT
BRANCH   9  11
HETATM   11  C   UNK N   1      -0.230   3.247   0.119  0.00  0.00     0.049 A 
HETATM   12  C   UNK N   1       0.557   3.252  -1.039  0.00  0.00     0.033 A 
HETATM   13  C   UNK N   1       1.688   2.428  -1.122  0.00  0.00     0.039 A 
HETATM   14  C   UNK N   1       2.030   1.593  -0.050  0.00  0.00     0.069 A 
HETATM   15  C   UNK N   1       1.257   1.628   1.122  0.00  0.00     0.039 A 
HETATM   16  C   UNK N   1       0.130   2.436   1.199  0.00  0.00     0.033 A 
BRANCH  14  17
HETATM   17  O   UNK N   1       3.083   0.748  -0.160  0.00  0.00    -0.349 OA
BRANCH  17  18
HETATM   18  C   UNK N   1       3.437  -0.095   0.875  0.00  0.00     0.209 C 
BRANCH  18  19
HETATM   19  C   UNK N   1       4.663  -0.939   0.564  0.00  0.00     0.170 C 
BRANCH  19  20
HETATM   20  O   UNK N   1       4.998  -1.643   1.719  0.00  0.00    -0.392 OA
HETATM   21  H   UNK N   1       4.690  -2.089   2.523  0.00  0.00     0.210 HD
ENDBRANCH  19  20
BRANCH  19  22
HETATM   22  C   UNK N   1       5.851  -0.066   0.168  0.00  0.00     0.305 C 
BRANCH  22  23
HETATM   23  N   UNK N   1       5.726   0.387  -1.210  0.00  0.00     0.082 N 
HETATM   24  C   UNK N   1       6.473   1.625  -1.327  0.00  0.00     0.309 C 
HETATM   25  C   UNK N   1       6.402  -0.593  -2.044  0.00  0.00     0.309 C 
ENDBRANCH  22  23
ENDBRANCH  19  22
ENDBRANCH  18  19
ENDBRANCH  17  18
ENDBRANCH  14  17
ENDBRANCH   9  11
BRANCH   1  26
HETATM   26  C   UNK N   1      -3.396  -0.577   0.167  0.00  0.00     0.090 A 
HETATM   27  C   UNK N   1      -2.204  -1.256   0.417  0.00  0.00     0.036 A 
HETATM   28  C   UNK N   1      -0.899  -0.674   0.828  0.00  0.00     0.070 C 
HETATM   29  N   UNK N   1      -2.393  -2.583   0.242  0.00  0.00    -0.344 N 
HETATM   30  C   UNK N   1      -3.687  -2.692  -0.118  0.00  0.00     0.112 A 
ATOM     31  HN  UNK N   1      -1.711  -3.332   0.357  1.00  0.00     0.167 HD
HETATM   32  C   UNK N   1      -4.345  -3.874  -0.436  0.00  0.00     0.049 A 
HETATM   33  N   UNK N   1      -4.314  -1.502  -0.166  0.00  0.00    -0.304 N 
HETATM   34  C   UNK N   1      -5.692  -3.783  -0.815  0.00  0.00     0.005 A 
HETATM   35  C   UNK N   1      -6.334  -2.530  -0.864  0.00  0.00     0.018 A 
HETATM   36  C   UNK N   1      -5.617  -1.372  -0.530  0.00  0.00     0.099 A 
ENDBRANCH   1  26
TORSDOF 8
