REMARK  8 active torsions:
REMARK  status: ('A' for Active; 'I' for Inactive)
REMARK    1  A    between atoms: P_1  and  O_3 
REMARK    2  A    between atoms: P_1  and  O_4 
REMARK    3  A    between atoms: P_1  and  C_17 
REMARK    4  A    between atoms: C_5  and  C_16 
REMARK    5  A    between atoms: C_6  and  S_15 
REMARK    6  A    between atoms: C_6  and  C_16 
REMARK    7  A    between atoms: C_8  and  S_15 
REMARK    8  A    between atoms: C_9  and  O_10 
ROOT
HETATM    1  C   UNK N   1       0.488  -0.842  -0.307  0.00  0.00     0.083 C 
ENDROOT
BRANCH   1   2
HETATM    2  S   UNK N   1      -0.218  -0.647   1.360  0.00  0.00    -0.127 SA
BRANCH   2   3
HETATM    3  C   UNK N   1      -1.719   0.060   0.701  0.00  0.00     0.036 A 
HETATM    4  C   UNK N   1      -1.843   1.450   0.623  0.00  0.00     0.063 A 
HETATM    5  C   UNK N   1      -3.009   2.021   0.106  0.00  0.00     0.117 A 
HETATM    6  C   UNK N   1      -4.052   1.201  -0.333  0.00  0.00     0.045 A 
HETATM    7  F   UNK N   1      -3.127   3.368   0.031  0.00  0.00    -0.206 F 
HETATM    8  C   UNK N   1      -3.930  -0.190  -0.256  0.00  0.00     0.041 A 
HETATM    9  C   UNK N   1      -2.765  -0.764   0.261  0.00  0.00     0.082 A 
BRANCH   9  10
HETATM   10  O   UNK N   1      -2.655  -2.102   0.328  0.00  0.00    -0.359 OA
HETATM   11  H   UNK N   1      -3.424  -2.635   0.375  0.00  0.00     0.217 HD
ENDBRANCH   9  10
ENDBRANCH   2   3
ENDBRANCH   1   2
BRANCH   1  12
HETATM   12  C   UNK N   1       1.250  -2.152  -0.456  0.00  0.00     0.038 C 
BRANCH  12  13
HETATM   13  C   UNK N   1       2.290  -2.348   0.614  0.00  0.00    -0.018 C 
HETATM   14  C   UNK N   1       3.310  -1.511   0.855  0.00  0.00     0.091 C 
BRANCH  14  15
HETATM   15  P   UNK N   1       3.616   0.050  -0.080  0.00  0.00     0.260 P 
HETATM   16  O   UNK N   1       4.903   0.725   0.460  0.00  0.00    -0.651 OA
BRANCH  15  17
HETATM   17  O   UNK N   1       2.408   1.289   0.076  0.00  0.00    -0.326 OA
HETATM   18  H   UNK N   1       2.670   2.219   0.163  0.00  0.00     0.220 HD
ENDBRANCH  15  17
BRANCH  15  19
HETATM   19  O   UNK N   1       3.932  -0.166  -1.772  0.00  0.00    -0.326 OA
HETATM   20  H   UNK N   1       3.916  -0.380  -2.718  0.00  0.00     0.220 HD
ENDBRANCH  15  19
ENDBRANCH  14  15
ENDBRANCH  12  13
ENDBRANCH   1  12
TORSDOF 8
