REMARK  14 active torsions:
REMARK  status: ('A' for Active; 'I' for Inactive)
REMARK    1  A    between atoms: P_1  and  O_3 
REMARK    2  A    between atoms: P_1  and  O_4 
REMARK    3  A    between atoms: P_1  and  C_5 
REMARK    4  A    between atoms: C_5  and  O_6 
REMARK    5  A    between atoms: C_5  and  C_7 
REMARK    6  A    between atoms: C_7  and  C_8 
REMARK    7  A    between atoms: C_8  and  C_10 
REMARK    8  A    between atoms: C_10  and  C_11 
REMARK    9  A    between atoms: C_11  and  C_12 
REMARK   10  A    between atoms: C_12  and  C_13 
REMARK   11  A    between atoms: C_13  and  C_15 
REMARK   12  A    between atoms: C_15  and  C_16 
REMARK   13  A    between atoms: C_16  and  C_17 
REMARK   14  A    between atoms: C_17  and  C_18 
ROOT
HETATM    1  C   UNK N   1      -1.933  -0.390  -0.536  0.00  0.00    -0.016 C 
HETATM    2  C   UNK N   1      -1.656  -1.608   0.334  0.00  0.00     0.010 C 
ENDROOT
BRANCH   1   3
HETATM    3  C   UNK N   1      -3.345  -0.449  -1.140  0.00  0.00     0.048 C 
BRANCH   3   4
HETATM    4  C   UNK N   1      -4.590  -0.539  -0.237  0.00  0.00     0.229 C 
BRANCH   4   5
HETATM    5  P   UNK N   1      -5.670   1.033  -0.471  0.00  0.00     0.265 P 
HETATM    6  O   UNK N   1      -6.550   1.838   0.519  0.00  0.00    -0.652 OA
BRANCH   5   7
HETATM    7  O   UNK N   1      -6.607  -0.130   0.424  0.00  0.00    -0.327 OA
HETATM    8  H   UNK N   1      -7.429  -0.002   0.923  0.00  0.00     0.220 HD
ENDBRANCH   5   7
BRANCH   5   9
HETATM    9  O   UNK N   1      -4.436   1.644   0.585  0.00  0.00    -0.327 OA
HETATM   10  H   UNK N   1      -3.795   1.217   1.176  0.00  0.00     0.220 HD
ENDBRANCH   5   9
ENDBRANCH   4   5
BRANCH   4  11
HETATM   11  O   UNK N   1      -4.258  -0.811   1.103  0.00  0.00    -0.384 OA
HETATM   12  H   UNK N   1      -4.306  -1.102   2.027  0.00  0.00     0.210 HD
ENDBRANCH   4  11
ENDBRANCH   3   4
ENDBRANCH   1   3
BRANCH   1  13
HETATM   13  C   UNK N   1      -1.670   0.914   0.223  0.00  0.00     0.004 C 
BRANCH  13  14
HETATM   14  C   UNK N   1      -0.190   1.321   0.273  0.00  0.00     0.001 C 
BRANCH  14  15
HETATM   15  C   UNK N   1       0.677   0.313   1.021  0.00  0.00     0.004 C 
BRANCH  15  16
HETATM   16  C   UNK N   1       1.552  -0.504   0.068  0.00  0.00    -0.019 C 
HETATM   17  C   UNK N   1       2.099  -1.714   0.805  0.00  0.00     0.010 C 
BRANCH  16  18
HETATM   18  C   UNK N   1       2.695   0.316  -0.535  0.00  0.00     0.004 C 
BRANCH  18  19
HETATM   19  C   UNK N   1       3.702   0.786   0.505  0.00  0.00     0.001 C 
BRANCH  19  20
HETATM   20  C   UNK N   1       4.995   1.183  -0.187  0.00  0.00     0.004 C 
BRANCH  20  21
HETATM   21  C   UNK N   1       6.168   0.373   0.348  0.00  0.00    -0.023 C 
HETATM   22  C   UNK N   1       7.461   0.951  -0.187  0.00  0.00     0.009 C 
HETATM   23  C   UNK N   1       6.061  -1.079  -0.085  0.00  0.00     0.009 C 
ENDBRANCH  20  21
ENDBRANCH  19  20
ENDBRANCH  18  19
ENDBRANCH  16  18
ENDBRANCH  15  16
ENDBRANCH  14  15
ENDBRANCH  13  14
ENDBRANCH   1  13
TORSDOF 14
