REMARK  5 active torsions:
REMARK  status: ('A' for Active; 'I' for Inactive)
REMARK    1  A    between atoms: C_2  and  O_1 
REMARK    2  A    between atoms: C_2  and  C_4 
REMARK    3  A    between atoms: C_4  and  O_5 
REMARK    4  A    between atoms: C_4  and  C_6 
REMARK    5  A    between atoms: C_11  and  O_12 
ROOT
HETATM    1  C   UNK N   1       0.086  -0.260   0.030  0.00  0.00    -0.019 A 
HETATM    2  C   UNK N   1       0.116  -1.657   0.166  0.00  0.00     0.013 A 
HETATM    3  C   UNK N   1      -1.051  -2.413   0.019  0.00  0.00     0.037 A 
HETATM    4  C   UNK N   1      -1.138   0.364  -0.266  0.00  0.00     0.013 A 
HETATM    5  C   UNK N   1      -2.306  -0.391  -0.409  0.00  0.00     0.037 A 
HETATM    6  C   UNK N   1      -2.263  -1.778  -0.259  0.00  0.00     0.065 A 
ENDROOT
BRANCH   1   7
HETATM    7  C   UNK N   1       1.372   0.515   0.265  0.00  0.00     0.248 C 
BRANCH   7   8
HETATM    8  C   UNK N   1       1.331   2.026   0.151  0.00  0.00     0.174 C 
HETATM    9  O   UNK N   1       0.328   2.619  -0.207  0.00  0.00    -0.648 OA
BRANCH   8  10
HETATM   10  O   UNK N   1       2.439   2.732   0.451  0.00  0.00    -0.774 OA
HETATM   11  H   UNK N   1       3.249   2.311   0.659  0.00  0.00     0.167 HD
ENDBRANCH   8  10
ENDBRANCH   7   8
BRANCH   7  12
HETATM   12  O   UNK N   1       2.358   0.039  -0.601  0.00  0.00    -0.380 OA
HETATM   13  H   UNK N   1       2.414  -0.720  -1.203  0.00  0.00     0.211 HD
ENDBRANCH   7  12
ENDBRANCH   1   7
BRANCH   6  14
HETATM   14  O   UNK N   1      -3.388  -2.502  -0.374  0.00  0.00    -0.361 OA
HETATM   15  H   UNK N   1      -4.218  -2.074  -0.455  0.00  0.00     0.217 HD
ENDBRANCH   6  14
TORSDOF 5
