REMARK  16 active torsions:
REMARK  status: ('A' for Active; 'I' for Inactive)
REMARK    1  A    between atoms: P_1  and  O_2 
REMARK    2  A    between atoms: P_1  and  O_3 
REMARK    3  A    between atoms: P_1  and  O_4 
REMARK    4  A    between atoms: P_1  and  O_5 
REMARK    5  A    between atoms: P_1  and  O_6 
REMARK    6  A    between atoms: O_4  and  C_7 
REMARK    7  A    between atoms: C_7  and  C_8 
REMARK    8  A    between atoms: C_8  and  C_9 
REMARK    9  A    between atoms: C_8  and  O_16 
REMARK   10  A    between atoms: C_9  and  O_10 
REMARK   11  A    between atoms: O_10  and  C_11 
REMARK   12  A    between atoms: C_11  and  C_13 
REMARK   13  A    between atoms: C_13  and  C_14 
REMARK   14  A    between atoms: O_16  and  C_17 
REMARK   15  A    between atoms: C_17  and  C_18 
REMARK   16  A    between atoms: C_18  and  C_19 
ROOT
HETATM    1  C   UNK N   1       0.247   1.059  -0.267  0.00  0.00     0.180 C 
ENDROOT
BRANCH   1   2
HETATM    2  C   UNK N   1      -0.134  -0.061   0.694  0.00  0.00     0.216 C 
BRANCH   2   3
HETATM    3  O   UNK N   1       0.952  -0.935   0.854  0.00  0.00    -0.289 OA
BRANCH   3   4
HETATM    4  P   UNK N   1       0.797  -2.353  -0.169  0.00  0.00     0.399 P 
BRANCH   4   5
HETATM    5  O   UNK N   1       1.691  -3.854  -0.230  0.00  0.00    -0.302 OA
HETATM    6  H   UNK N   1       1.217  -4.700  -0.264  0.00  0.00     0.223 HD
ENDBRANCH   4   5
BRANCH   4   7
HETATM    7  O   UNK N   1       2.177  -1.730  -1.035  0.00  0.00    -0.302 OA
HETATM    8  H   UNK N   1       2.861  -2.222  -1.516  0.00  0.00     0.223 HD
ENDBRANCH   4   7
BRANCH   4   9
HETATM    9  O   UNK N   1      -0.371  -3.316   0.697  0.00  0.00    -0.302 OA
HETATM   10  H   UNK N   1      -1.160  -3.020   1.178  0.00  0.00     0.223 HD
ENDBRANCH   4   9
BRANCH   4  11
HETATM   11  O   UNK N   1      -0.534  -1.792  -1.124  0.00  0.00    -0.302 OA
HETATM   12  H   UNK N   1      -0.634  -0.989  -1.659  0.00  0.00     0.223 HD
ENDBRANCH   4  11
ENDBRANCH   3   4
ENDBRANCH   2   3
ENDBRANCH   1   2
BRANCH   1  13
HETATM   13  C   UNK N   1      -0.980   1.848  -0.719  0.00  0.00     0.213 C 
BRANCH  13  14
HETATM   14  O   UNK N   1      -1.712   2.400   0.311  0.00  0.00    -0.319 OA
BRANCH  14  15
HETATM   15  C   UNK N   1      -2.912   1.887   0.690  0.00  0.00     0.258 C 
HETATM   16  O   UNK N   1      -3.686   2.582   1.329  0.00  0.00    -0.265 OA
BRANCH  15  17
HETATM   17  C   UNK N   1      -3.276   0.458   0.380  0.00  0.00     0.111 C 
BRANCH  17  18
HETATM   18  C   UNK N   1      -4.481   0.350  -0.537  0.00  0.00     0.005 C 
HETATM   19  C   UNK N   1      -5.760   0.323   0.275  0.00  0.00     0.005 C 
ENDBRANCH  17  18
ENDBRANCH  15  17
ENDBRANCH  14  15
ENDBRANCH  13  14
ENDBRANCH   1  13
BRANCH   1  20
HETATM   20  O   UNK N   1       1.209   1.872   0.317  0.00  0.00    -0.312 OA
BRANCH  20  21
HETATM   21  C   UNK N   1       2.493   1.968  -0.136  0.00  0.00     0.259 C 
HETATM   22  O   UNK N   1       2.842   1.378  -1.150  0.00  0.00    -0.265 OA
BRANCH  21  23
HETATM   23  C   UNK N   1       3.493   2.769   0.649  0.00  0.00     0.111 C 
BRANCH  23  24
HETATM   24  C   UNK N   1       4.892   2.685   0.049  0.00  0.00     0.005 C 
HETATM   25  C   UNK N   1       5.885   3.402   0.938  0.00  0.00     0.005 C 
ENDBRANCH  23  24
ENDBRANCH  21  23
ENDBRANCH  20  21
ENDBRANCH   1  20
TORSDOF 16
