REMARK  8 active torsions:
REMARK  status: ('A' for Active; 'I' for Inactive)
REMARK    1  A    between atoms: C_1  and  C_2 
REMARK    2  A    between atoms: C_2  and  C_3 
REMARK    3  A    between atoms: C_3  and  C_4 
REMARK    4  A    between atoms: C_4  and  N_5 
REMARK    5  A    between atoms: C_4  and  C_12 
REMARK       I    between atoms: N_5  and  C_6 
REMARK    6  A    between atoms: C_6  and  C_7 
REMARK    7  A    between atoms: C_7  and  N_8 
REMARK       I    between atoms: N_8  and  C_9 
REMARK    8  A    between atoms: C_12  and  C_13 
ROOT
HETATM    1  C   UNK N   1      -0.460  -1.449  -0.124  0.00  0.00     0.158 C 
ENDROOT
BRANCH   1   2
HETATM    2  C   UNK N   1      -1.427  -0.296   0.030  0.00  0.00     0.150 C 
HETATM    3  O   UNK N   1      -2.084   0.062  -0.937  0.00  0.00    -0.296 OA
BRANCH   2   4
HETATM    4  C   UNK N   1      -1.576   0.405   1.356  0.00  0.00     0.095 C 
BRANCH   4   5
HETATM    5  C   UNK N   1      -2.597   1.538   1.326  0.00  0.00     0.122 C 
HETATM    6 Cl   UNK N   1      -1.993   2.912   0.362  0.00  0.00    -0.130 Cl
ENDBRANCH   4   5
ENDBRANCH   2   4
ENDBRANCH   1   2
BRANCH   1   7
HETATM    7  N   UNK N   1       0.896  -1.053   0.213  0.00  0.00    -0.348 N 
HETATM    8  C   UNK N   1       1.529   0.033  -0.312  0.00  0.00     0.240 C 
HETATM    9  O   UNK N   1       0.939   0.790  -1.069  0.00  0.00    -0.271 OA
HETATM   10  H   UNK N   1       1.388  -1.604   0.863  0.00  0.00     0.163 HD
BRANCH   8  11
HETATM   11  C   UNK N   1       2.953   0.318   0.084  0.00  0.00     0.172 C 
HETATM   12  C   UNK N   1       3.858  -0.755  -0.505  0.00  0.00     0.042 C 
BRANCH  11  13
HETATM   13  N   UNK N   1       3.350   1.635  -0.380  0.00  0.00    -0.349 N 
HETATM   14  C   UNK N   1       4.549   2.201  -0.090  0.00  0.00     0.214 C 
HETATM   15  C   UNK N   1       4.841   3.582  -0.563  0.00  0.00     0.117 C 
HETATM   16  O   UNK N   1       5.383   1.601   0.570  0.00  0.00    -0.274 OA
HETATM   17  H   UNK N   1       2.716   2.145  -0.934  0.00  0.00     0.163 HD
ENDBRANCH  11  13
ENDBRANCH   8  11
ENDBRANCH   1   7
BRANCH   1  18
HETATM   18  C   UNK N   1      -0.856  -2.633   0.766  0.00  0.00     0.071 C 
BRANCH  18  19
HETATM   19  C   UNK N   1      -2.223  -3.162   0.457  0.00  0.00    -0.056 A 
HETATM   20  C   UNK N   1      -2.361  -4.332  -0.297  0.00  0.00     0.007 A 
HETATM   21  C   UNK N   1      -3.634  -4.822  -0.603  0.00  0.00     0.001 A 
HETATM   22  C   UNK N   1      -4.772  -4.146  -0.151  0.00  0.00     0.000 A 
HETATM   23  C   UNK N   1      -4.638  -2.982   0.611  0.00  0.00     0.001 A 
HETATM   24  C   UNK N   1      -3.366  -2.492   0.916  0.00  0.00     0.007 A 
ENDBRANCH  18  19
ENDBRANCH   1  18
TORSDOF 8
