REMARK  5 active torsions:
REMARK  status: ('A' for Active; 'I' for Inactive)
REMARK    1  A    between atoms: N_7  and  C_14 
REMARK    2  A    between atoms: N_7  and  C_17 
REMARK    3  A    between atoms: C_12  and  C_13 
REMARK    4  A    between atoms: C_17  and  C_18 
REMARK    5  A    between atoms: C_18  and  C_19 
ROOT
HETATM    1  N   UNK N   1      -0.599  -0.733   0.003  0.00  0.00    -0.326 N 
ATOM      2  HN  UNK N   1       0.318  -0.286   0.004  1.00  0.00     0.169 HD
HETATM    3  N   UNK N   1      -1.871  -2.696  -0.001  0.00  0.00    -0.343 N 
ATOM      4  HN  UNK N   1      -1.918  -3.715  -0.002  1.00  0.00     0.167 HD
HETATM    5  C   UNK N   1      -0.661  -2.080   0.001  0.00  0.00     0.134 A 
HETATM    6  C   UNK N   1      -1.698   0.048   0.003  0.00  0.00     0.126 A 
HETATM    7  C   UNK N   1      -3.025  -1.968  -0.001  0.00  0.00     0.032 A 
HETATM    8  C   UNK N   1      -2.971  -0.556   0.000  0.00  0.00     0.100 A 
HETATM    9  C   UNK N   1      -4.331  -2.685  -0.002  0.00  0.00     0.070 C 
HETATM   10 Cl   UNK N   1      -4.463   0.388   0.001  0.00  0.00    -0.078 Cl
ENDROOT
BRANCH   6  11
HETATM   11  N   UNK N   1      -1.461   1.439   0.006  0.00  0.00    -0.374 N 
HETATM   12  H   UNK N   1      -0.506   1.677   0.018  0.00  0.00     0.161 HD
BRANCH  11  13
HETATM   13  C   UNK N   1      -2.333   2.570  -0.005  0.00  0.00     0.126 C 
BRANCH  13  14
HETATM   14  C   UNK N   1      -1.505   3.884   0.001  0.00  0.00     0.058 C 
BRANCH  14  15
HETATM   15  C   UNK N   1       0.027   3.880  -0.001  0.00  0.00    -0.057 A 
HETATM   16  C   UNK N   1       0.692   5.112   0.001  0.00  0.00     0.007 A 
HETATM   17  C   UNK N   1       2.092   5.167   0.001  0.00  0.00     0.001 A 
HETATM   18  C   UNK N   1       2.844   3.990  -0.001  0.00  0.00     0.000 A 
HETATM   19  C   UNK N   1       2.198   2.755  -0.003  0.00  0.00     0.001 A 
HETATM   20  C   UNK N   1       0.805   2.705  -0.003  0.00  0.00     0.007 A 
ENDBRANCH  14  15
ENDBRANCH  13  14
ENDBRANCH  11  13
ENDBRANCH   6  11
BRANCH   5  21
HETATM   21  C   UNK N   1       0.605  -2.828   0.000  0.00  0.00     0.076 A 
HETATM   22  N   UNK N   1       1.780  -2.136   0.001  0.00  0.00    -0.363 N 
HETATM   23  C   UNK N   1       2.986  -2.763   0.001  0.00  0.00     0.088 A 
ATOM     24  HN  UNK N   1       1.754  -1.116   0.001  1.00  0.00     0.165 HD
HETATM   25  C   UNK N   1       3.044  -4.156  -0.000  0.00  0.00     0.017 A 
HETATM   26  C   UNK N   1       1.856  -4.889  -0.001  0.00  0.00     0.004 A 
HETATM   27  C   UNK N   1       0.626  -4.227  -0.000  0.00  0.00     0.033 A 
ENDBRANCH   5  21
TORSDOF 5
