REMARK  4 active torsions:
REMARK  status: ('A' for Active; 'I' for Inactive)
REMARK    1  A    between atoms: C_1  and  O_20 
REMARK    2  A    between atoms: C_3  and  O_19 
REMARK    3  A    between atoms: C_9  and  C_12 
REMARK    4  A    between atoms: C_15  and  O_18 
ROOT
HETATM    1  C   UNK N   1      -4.189   0.190   0.000  0.00  0.00     0.071 A 
HETATM    2  C   UNK N   1      -4.252  -1.204   0.000  0.00  0.00     0.074 A 
HETATM    3  C   UNK N   1      -3.079  -1.970   0.000  0.00  0.00     0.085 A 
HETATM    4  C   UNK N   1      -1.818  -1.324   0.000  0.00  0.00     0.081 A 
HETATM    5  C   UNK N   1      -1.775   0.089  -0.000  0.00  0.00     0.095 A 
HETATM    6  C   UNK N   1      -2.954   0.832   0.000  0.00  0.00     0.075 A 
HETATM    7  C   UNK N   1      -0.588  -2.020   0.000  0.00  0.00     0.190 A 
HETATM    8  C   UNK N   1       0.606  -1.294  -0.000  0.00  0.00     0.094 A 
HETATM    9  C   UNK N   1       0.558   0.107  -0.000  0.00  0.00     0.090 A 
HETATM   10  O   UNK N   1      -0.616   0.730  -0.000  0.00  0.00    -0.309 OA
HETATM   11  O   UNK N   1      -0.548  -3.237   0.000  0.00  0.00    -0.287 OA
ENDROOT
BRANCH   9  12
HETATM   12  C   UNK N   1       1.780   0.931  -0.000  0.00  0.00    -0.002 A 
HETATM   13  C   UNK N   1       3.063   0.360  -0.000  0.00  0.00     0.017 A 
HETATM   14  C   UNK N   1       4.195   1.186  -0.000  0.00  0.00     0.037 A 
HETATM   15  C   UNK N   1       4.049   2.578  -0.000  0.00  0.00     0.065 A 
HETATM   16  C   UNK N   1       2.776   3.146  -0.000  0.00  0.00     0.037 A 
HETATM   17  C   UNK N   1       1.649   2.327  -0.000  0.00  0.00     0.017 A 
BRANCH  15  18
HETATM   18  O   UNK N   1       5.133   3.370  -0.000  0.00  0.00    -0.361 OA
HETATM   19  H   UNK N   1       5.990   2.991  -0.000  0.00  0.00     0.217 HD
ENDBRANCH  15  18
ENDBRANCH   9  12
BRANCH   3  20
HETATM   20  O   UNK N   1      -3.178  -3.310   0.000  0.00  0.00    -0.360 OA
HETATM   21  H   UNK N   1      -4.022  -3.718   0.000  0.00  0.00     0.217 HD
ENDBRANCH   3  20
BRANCH   1  22
HETATM   22  O   UNK N   1      -5.318   0.917   0.000  0.00  0.00    -0.361 OA
HETATM   23  H   UNK N   1      -5.273   1.853   0.000  0.00  0.00     0.217 HD
ENDBRANCH   1  22
TORSDOF 4
