REMARK  3 active torsions:
REMARK  status: ('A' for Active; 'I' for Inactive)
REMARK    1  A    between atoms: C_2  and  C_10 
REMARK    2  A    between atoms: C_6  and  N_12 
REMARK    3  A    between atoms: O_9  and  C_10 
ROOT
HETATM    1  C   UNK N   1      -0.400  -1.283   0.534  0.00  0.00     0.066 C 
HETATM    2  C   UNK N   1      -1.580  -0.727  -0.293  0.00  0.00     0.104 C 
HETATM    3  C   UNK N   1      -0.637   1.475   0.419  0.00  0.00     0.153 C 
HETATM    4  C   UNK N   1       1.867   1.689   0.093  0.00  0.00     0.045 A 
HETATM    5  C   UNK N   1       3.134   1.087  -0.020  0.00  0.00     0.103 A 
HETATM    6  C   UNK N   1       3.233  -0.317  -0.001  0.00  0.00     0.037 A 
HETATM    7  C   UNK N   1       2.088  -1.106   0.150  0.00  0.00     0.010 A 
HETATM    8  C   UNK N   1       0.842  -0.494   0.292  0.00  0.00    -0.048 A 
HETATM    9  C   UNK N   1       0.729   0.891   0.254  0.00  0.00    -0.032 A 
HETATM   10  N   UNK N   1      -1.606   0.752  -0.421  0.00  0.00    -0.411 N 
HETATM   11  H   UNK N   1      -2.252   1.234  -1.047  0.00  0.00     0.154 HD
ENDROOT
BRANCH   2  12
HETATM   12  C   UNK N   1      -2.890  -1.202   0.324  0.00  0.00     0.189 C 
BRANCH  12  13
HETATM   13  O   UNK N   1      -2.972  -2.596   0.299  0.00  0.00    -0.399 OA
HETATM   14  H   UNK N   1      -3.838  -3.031   0.281  0.00  0.00     0.209 HD
ENDBRANCH  12  13
ENDBRANCH   2  12
BRANCH   5  15
HETATM   15  N   UNK N   1       4.305   1.891  -0.104  0.00  0.00    -0.116 N 
HETATM   16  O   UNK N   1       4.213   3.203  -0.075  0.00  0.00    -0.532 OA
HETATM   17  O   UNK N   1       5.386   1.380  -0.131  0.00  0.00    -0.532 OA
ENDBRANCH   5  15
TORSDOF 3
