REMARK  5 active torsions:
REMARK  status: ('A' for Active; 'I' for Inactive)
REMARK    1  A    between atoms: C_2  and  N_1 
REMARK    2  A    between atoms: C_2  and  C_3 
REMARK    3  A    between atoms: C_2  and  C_5 
REMARK    4  A    between atoms: C_5  and  C_6 
REMARK    5  A    between atoms: C_6  and  C_7 
ROOT
HETATM    1  C   UNK N   1       1.333   0.594  -0.429  0.00  0.00     0.037 C 
ENDROOT
BRANCH   1   2
HETATM    2  C   UNK N   1      -0.109   0.883   0.006  0.00  0.00     0.144 C 
BRANCH   2   3
HETATM    3  N   UNK N   1      -0.665   1.895  -0.876  0.00  0.00    -0.420 N 
HETATM    4  H   UNK N   1      -0.245   2.588  -1.495  0.00  0.00     0.150 HD
HETATM    5  H   UNK N   1      -1.685   1.916  -0.876  0.00  0.00     0.150 HD
ENDBRANCH   2   3
BRANCH   2   6
HETATM    6  C   UNK N   1      -1.010  -0.333  -0.011  0.00  0.00     0.145 C 
HETATM    7  O   UNK N   1      -2.173  -0.219   0.344  0.00  0.00    -0.296 OA
HETATM    8  C   UNK N   1      -0.523  -1.676  -0.454  0.00  0.00     0.093 C 
ENDBRANCH   2   6
ENDBRANCH   1   2
BRANCH   1   9
HETATM    9  C   UNK N   1       2.047  -0.272   0.604  0.00  0.00     0.041 C 
BRANCH   9  10
HETATM   10  C   UNK N   1       3.477  -0.516   0.257  0.00  0.00    -0.058 A 
HETATM   11  C   UNK N   1       4.383   0.550   0.176  0.00  0.00     0.007 A 
HETATM   12  C   UNK N   1       5.734   0.302  -0.091  0.00  0.00     0.001 A 
HETATM   13  C   UNK N   1       6.183  -1.010  -0.268  0.00  0.00     0.000 A 
HETATM   14  C   UNK N   1       5.281  -2.075  -0.185  0.00  0.00     0.001 A 
HETATM   15  C   UNK N   1       3.930  -1.828   0.080  0.00  0.00     0.007 A 
ENDBRANCH   9  10
ENDBRANCH   1   9
TORSDOF 5
