REMARK  14 active torsions:
REMARK  status: ('A' for Active; 'I' for Inactive)
REMARK    1  A    between atoms: C_2  and  C_3 
REMARK    2  A    between atoms: C_3  and  C_4 
REMARK    3  A    between atoms: C_3  and  N_8 
REMARK    4  A    between atoms: C_4  and  C_5 
REMARK    5  A    between atoms: C_5  and  O_7 
REMARK       I    between atoms: N_8  and  C_9 
REMARK    6  A    between atoms: C_9  and  C_11 
REMARK    7  A    between atoms: C_11  and  C_12 
REMARK    8  A    between atoms: C_11  and  C_17 
REMARK    9  A    between atoms: C_17  and  C_18 
REMARK   10  A    between atoms: C_18  and  C_19 
REMARK   11  A    between atoms: C_19  and  C_20 
REMARK   12  A    between atoms: C_20  and  N_21 
REMARK       I    between atoms: N_21  and  C_22 
REMARK   13  A    between atoms: C_22  and  C_24 
REMARK   14  A    between atoms: C_32  and  O_33 
ROOT
HETATM    1  C   UNK N   1       0.082  -1.142  -0.384  0.00  0.00     0.003 C 
ENDROOT
BRANCH   1   2
HETATM    2  C   UNK N   1      -0.437   0.152  -1.014  0.00  0.00     0.019 C 
BRANCH   2   3
HETATM    3  C   UNK N   1      -1.599   0.792  -0.241  0.00  0.00     0.117 C 
BRANCH   3   4
HETATM    4  C   UNK N   1      -2.906   0.137  -0.571  0.00  0.00     0.227 C 
HETATM    5  N   UNK N   1      -3.720  -0.254   0.442  0.00  0.00    -0.349 N 
HETATM    6  H   UNK N   1      -3.362  -0.243   1.359  0.00  0.00     0.163 HD
HETATM    7  O   UNK N   1      -3.273   0.064  -1.737  0.00  0.00    -0.273 OA
BRANCH   5   8
HETATM    8  C   UNK N   1      -5.085  -0.686   0.245  0.00  0.00     0.155 C 
BRANCH   8   9
HETATM    9  C   UNK N   1      -5.296  -2.021   0.883  0.00  0.00     0.256 C 
HETATM   10  O   UNK N   1      -4.662  -2.994   0.507  0.00  0.00    -0.305 OA
ENDBRANCH   8   9
BRANCH   8  11
HETATM   11  C   UNK N   1      -5.979   0.355   0.913  0.00  0.00     0.142 C 
BRANCH  11  12
HETATM   12  C   UNK N   1      -7.288   0.536   0.214  0.00  0.00     0.141 C 
HETATM   13  O   UNK N   1      -7.584   1.631  -0.234  0.00  0.00    -0.650 OA
BRANCH  12  14
HETATM   14  O   UNK N   1      -8.135  -0.499   0.072  0.00  0.00    -0.776 OA
HETATM   15  H   UNK N   1      -9.055  -0.349  -0.027  0.00  0.00     0.167 HD
ENDBRANCH  12  14
ENDBRANCH  11  12
ENDBRANCH   8  11
ENDBRANCH   5   8
ENDBRANCH   3   4
BRANCH   3  16
HETATM   16  C   UNK N   1      -1.645   2.272  -0.496  0.00  0.00    -0.004 A 
HETATM   17  S   UNK N   1      -2.933   3.172  -1.026  0.00  0.00    -0.106 SA
HETATM   18  C   UNK N   1      -2.277   4.692  -0.944  0.00  0.00     0.050 A 
HETATM   19  C   UNK N   1      -0.968   4.523  -0.473  0.00  0.00     0.008 A 
HETATM   20  C   UNK N   1      -0.615   3.169  -0.215  0.00  0.00     0.016 A 
ENDBRANCH   3  16
ENDBRANCH   2   3
ENDBRANCH   1   2
BRANCH   1  21
HETATM   21  C   UNK N   1       0.346  -0.981   1.115  0.00  0.00     0.020 C 
BRANCH  21  22
HETATM   22  C   UNK N   1       1.478  -0.024   1.491  0.00  0.00     0.123 C 
BRANCH  22  23
HETATM   23  N   UNK N   1       1.520   1.200   0.708  0.00  0.00    -0.356 N 
HETATM   24  C   UNK N   1       2.604   1.544  -0.037  0.00  0.00     0.268 C 
HETATM   25  O   UNK N   1       2.669   2.670  -0.517  0.00  0.00    -0.266 OA
HETATM   26  H   UNK N   1       0.738   1.798   0.716  0.00  0.00     0.162 HD
BRANCH  24  27
HETATM   27  C   UNK N   1       3.740   0.613  -0.200  0.00  0.00     0.101 A 
HETATM   28  N   UNK N   1       3.508  -0.728  -0.134  0.00  0.00    -0.349 N 
HETATM   29  C   UNK N   1       4.506  -1.637  -0.150  0.00  0.00     0.076 A 
ATOM     30  HN  UNK N   1       2.544  -1.057  -0.069  1.00  0.00     0.166 HD
HETATM   31  C   UNK N   1       5.842  -1.202  -0.213  0.00  0.00    -0.007 A 
HETATM   32  C   UNK N   1       4.210  -3.005  -0.084  0.00  0.00     0.093 A 
HETATM   33  C   UNK N   1       6.110   0.166  -0.325  0.00  0.00     0.016 A 
HETATM   34  C   UNK N   1       6.878  -2.137  -0.171  0.00  0.00     0.014 A 
HETATM   35  C   UNK N   1       5.051   1.082  -0.335  0.00  0.00     0.036 A 
HETATM   36  C   UNK N   1       6.581  -3.502  -0.076  0.00  0.00     0.004 A 
HETATM   37  C   UNK N   1       5.251  -3.935  -0.047  0.00  0.00     0.039 A 
BRANCH  32  38
HETATM   38  O   UNK N   1       2.933  -3.426  -0.059  0.00  0.00    -0.358 OA
HETATM   39  H   UNK N   1       2.234  -2.802  -0.041  0.00  0.00     0.217 HD
ENDBRANCH  32  38
ENDBRANCH  24  27
ENDBRANCH  22  23
ENDBRANCH  21  22
ENDBRANCH   1  21
TORSDOF 14
