REMARK  13 active torsions:
REMARK  status: ('A' for Active; 'I' for Inactive)
REMARK    1  A    between atoms: C_2  and  C_3 
REMARK    2  A    between atoms: C_3  and  C_4 
REMARK    3  A    between atoms: C_4  and  C_5 
REMARK    4  A    between atoms: C_5  and  C_6 
REMARK    5  A    between atoms: C_6  and  C_7 
REMARK    6  A    between atoms: C_7  and  C_8 
REMARK    7  A    between atoms: C_8  and  O_9 
REMARK    8  A    between atoms: C_10  and  O_9 
REMARK    9  A    between atoms: C_12  and  C_13 
REMARK   10  A    between atoms: C_13  and  O_14 
REMARK   11  A    between atoms: C_15  and  O_16 
REMARK   12  A    between atoms: C_17  and  O_18 
REMARK   13  A    between atoms: C_19  and  O_20 
ROOT
HETATM    1  C   UNK N   1       2.330   0.572   0.178  0.00  0.00     0.291 C 
HETATM    2  O   UNK N   1       3.479   0.997   0.905  0.00  0.00    -0.348 OA
HETATM    3  C   UNK N   1       4.687   0.441   0.393  0.00  0.00     0.179 C 
HETATM    4  C   UNK N   1       4.650  -1.103   0.438  0.00  0.00     0.180 C 
HETATM    5  C   UNK N   1       3.423  -1.647  -0.298  0.00  0.00     0.183 C 
HETATM    6  C   UNK N   1       2.176  -0.967   0.275  0.00  0.00     0.204 C 
ENDROOT
BRANCH   1   7
HETATM    7  O   UNK N   1       1.207   1.208   0.761  0.00  0.00    -0.359 OA
BRANCH   7   8
HETATM    8  C   UNK N   1       0.244   1.461  -0.234  0.00  0.00     0.171 C 
BRANCH   8   9
HETATM    9  C   UNK N   1      -1.157   1.206   0.299  0.00  0.00     0.026 C 
BRANCH   9  10
HETATM   10  C   UNK N   1      -1.285  -0.227   0.788  0.00  0.00     0.002 C 
BRANCH  10  11
HETATM   11  C   UNK N   1      -2.735  -0.624   0.985  0.00  0.00     0.000 C 
BRANCH  11  12
HETATM   12  C   UNK N   1      -3.409  -0.865  -0.358  0.00  0.00     0.000 C 
BRANCH  12  13
HETATM   13  C   UNK N   1      -4.321   0.299  -0.696  0.00  0.00    -0.000 C 
BRANCH  13  14
HETATM   14  C   UNK N   1      -5.563   0.246   0.173  0.00  0.00    -0.005 C 
HETATM   15  C   UNK N   1      -6.165   1.630   0.276  0.00  0.00     0.005 C 
ENDBRANCH  13  14
ENDBRANCH  12  13
ENDBRANCH  11  12
ENDBRANCH  10  11
ENDBRANCH   9  10
ENDBRANCH   8   9
ENDBRANCH   7   8
ENDBRANCH   1   7
BRANCH   6  16
HETATM   16  O   UNK N   1       1.052  -1.405  -0.428  0.00  0.00    -0.388 OA
HETATM   17  H   UNK N   1       0.398  -0.881  -0.916  0.00  0.00     0.210 HD
ENDBRANCH   6  16
BRANCH   3  18
HETATM   18  C   UNK N   1       5.032   1.010  -0.988  0.00  0.00     0.198 C 
BRANCH  18  19
HETATM   19  O   UNK N   1       5.143   2.400  -0.921  0.00  0.00    -0.398 OA
HETATM   20  H   UNK N   1       6.019   2.815  -0.874  0.00  0.00     0.209 HD
ENDBRANCH  18  19
ENDBRANCH   3  18
BRANCH   5  21
HETATM   21  O   UNK N   1       3.521  -1.395  -1.671  0.00  0.00    -0.390 OA
HETATM   22  H   UNK N   1       3.706  -1.366  -2.623  0.00  0.00     0.210 HD
ENDBRANCH   5  21
BRANCH   4  23
HETATM   23  O   UNK N   1       5.824  -1.646  -0.092  0.00  0.00    -0.390 OA
HETATM   24  H   UNK N   1       5.905  -2.540  -0.460  0.00  0.00     0.210 HD
ENDBRANCH   4  23
TORSDOF 13
