REMARK  11 active torsions:
REMARK  status: ('A' for Active; 'I' for Inactive)
REMARK    1  A    between atoms: C_1  and  C_2 
REMARK       I    between atoms: C_1  and  N_20 
REMARK    2  A    between atoms: C_2  and  C_3 
REMARK    3  A    between atoms: C_3  and  C_4 
REMARK    4  A    between atoms: C_3  and  C_5 
REMARK       I    between atoms: C_4  and  N_21 
REMARK    5  A    between atoms: C_5  and  C_6 
REMARK    6  A    between atoms: C_9  and  C_10 
REMARK    7  A    between atoms: C_9  and  C_11 
REMARK    8  A    between atoms: C_9  and  N_21 
REMARK       I    between atoms: C_10  and  N_22 
REMARK    9  A    between atoms: C_11  and  C_12 
REMARK   10  A    between atoms: C_17  and  O_27 
REMARK   11  A    between atoms: N_20  and  O_23 
ROOT
HETATM    1  C   UNK N   1       2.028  -0.488   0.428  0.00  0.00     0.223 C 
HETATM    2  N   UNK N   1       0.944  -0.269  -0.353  0.00  0.00    -0.347 N 
HETATM    3  O   UNK N   1       1.993  -1.295   1.347  0.00  0.00    -0.273 OA
HETATM    4  H   UNK N   1       1.095   0.231  -1.188  0.00  0.00     0.163 HD
ENDROOT
BRANCH   2   5
HETATM    5  C   UNK N   1      -0.412  -0.691  -0.089  0.00  0.00     0.180 C 
BRANCH   5   6
HETATM    6  C   UNK N   1      -0.863  -1.701  -1.138  0.00  0.00     0.240 C 
HETATM    7  N   UNK N   1      -0.343  -2.954  -1.188  0.00  0.00    -0.364 N 
HETATM    8  C   UNK N   1       0.638  -3.441  -0.253  0.00  0.00     0.149 C 
HETATM    9  H   UNK N   1      -0.652  -3.561  -1.900  0.00  0.00     0.161 HD
HETATM   10  O   UNK N   1      -1.729  -1.398  -1.944  0.00  0.00    -0.271 OA
ENDBRANCH   5   6
BRANCH   5  11
HETATM   11  C   UNK N   1      -1.189   0.633  -0.111  0.00  0.00     0.073 C 
BRANCH  11  12
HETATM   12  C   UNK N   1      -2.675   0.579  -0.084  0.00  0.00    -0.056 A 
HETATM   13  C   UNK N   1      -3.365  -0.017   0.974  0.00  0.00     0.010 A 
HETATM   14  C   UNK N   1      -4.763  -0.005   0.983  0.00  0.00     0.037 A 
HETATM   15  C   UNK N   1      -5.475   0.613  -0.064  0.00  0.00     0.068 A 
HETATM   16  C   UNK N   1      -4.773   1.211  -1.113  0.00  0.00     0.037 A 
HETATM   17  C   UNK N   1      -3.379   1.197  -1.121  0.00  0.00     0.010 A 
BRANCH  15  18
HETATM   18  O   UNK N   1      -6.828   0.645  -0.083  0.00  0.00    -0.356 OA
HETATM   19  C   UNK N   1      -7.609   0.083   0.899  0.00  0.00     0.210 C 
ENDBRANCH  15  18
ENDBRANCH  11  12
ENDBRANCH   5  11
ENDBRANCH   2   5
BRANCH   1  20
HETATM   20  C   UNK N   1       3.225   0.400   0.213  0.00  0.00     0.087 C 
BRANCH  20  21
HETATM   21  C   UNK N   1       4.469   0.003   1.010  0.00  0.00     0.119 C 
BRANCH  21  22
HETATM   22  C   UNK N   1       5.194  -1.159   0.401  0.00  0.00     0.241 C 
HETATM   23  N   UNK N   1       4.633  -2.388   0.393  0.00  0.00    -0.237 N 
HETATM   24  H   UNK N   1       3.738  -2.516   0.783  0.00  0.00     0.197 HD
HETATM   25  O   UNK N   1       6.305  -0.987  -0.081  0.00  0.00    -0.271 OA
BRANCH  23  26
HETATM   26  O   UNK N   1       5.278  -3.434  -0.139  0.00  0.00    -0.287 OA
HETATM   27  H   UNK N   1       4.855  -4.218  -0.525  0.00  0.00     0.244 HD
ENDBRANCH  23  26
ENDBRANCH  21  22
ENDBRANCH  20  21
BRANCH  20  28
HETATM   28  C   UNK N   1       2.771   1.779   0.699  0.00  0.00     0.018 C 
BRANCH  28  29
HETATM   29  C   UNK N   1       2.909   2.882  -0.332  0.00  0.00    -0.022 C 
HETATM   30  C   UNK N   1       1.882   3.955  -0.031  0.00  0.00     0.009 C 
HETATM   31  C   UNK N   1       4.295   3.485  -0.244  0.00  0.00     0.009 C 
ENDBRANCH  28  29
ENDBRANCH  20  28
ENDBRANCH   1  20
TORSDOF 11
