REMARK  8 active torsions:
REMARK  status: ('A' for Active; 'I' for Inactive)
REMARK    1  A    between atoms: N_1  and  S_2 
REMARK    2  A    between atoms: N_1  and  C_13 
REMARK    3  A    between atoms: S_2  and  C_5 
REMARK    4  A    between atoms: C_9  and  C_10 
REMARK    5  A    between atoms: C_10  and  O_11 
REMARK    6  A    between atoms: C_14  and  O_19 
REMARK    7  A    between atoms: C_16  and  C_20 
REMARK    8  A    between atoms: C_20  and  O_21 
ROOT
HETATM    1  N   UNK N   1      -0.871   0.897   0.419  0.00  0.00    -0.278 N 
HETATM    2  H   UNK N   1      -1.525   1.305   1.031  0.00  0.00     0.179 HD
ENDROOT
BRANCH   1   3
HETATM    3  S   UNK N   1      -1.351  -0.527  -0.495  0.00  0.00     0.264 S 
HETATM    4  O   UNK N   1      -0.829  -0.215  -1.905  0.00  0.00    -0.200 OA
HETATM    5  O   UNK N   1      -2.851  -0.325  -0.732  0.00  0.00    -0.200 OA
BRANCH   3   6
HETATM    6  C   UNK N   1      -0.844  -2.207  -0.052  0.00  0.00     0.104 A 
HETATM    7  C   UNK N   1       0.541  -2.530   0.016  0.00  0.00     0.034 A 
HETATM    8  C   UNK N   1       0.804  -3.879   0.284  0.00  0.00     0.052 A 
HETATM    9  S   UNK N   1      -0.674  -4.615   0.414  0.00  0.00    -0.094 SA
HETATM   10  C   UNK N   1      -1.683  -3.326   0.161  0.00  0.00     0.101 A 
BRANCH  10  11
HETATM   11  C   UNK N   1      -3.158  -3.454   0.162  0.00  0.00     0.184 C 
HETATM   12  O   UNK N   1      -3.878  -2.478   0.070  0.00  0.00    -0.646 OA
BRANCH  11  13
HETATM   13  O   UNK N   1      -3.719  -4.673   0.286  0.00  0.00    -0.772 OA
HETATM   14  H   UNK N   1      -4.648  -4.758   0.372  0.00  0.00     0.167 HD
ENDBRANCH  11  13
ENDBRANCH  10  11
ENDBRANCH   3   6
ENDBRANCH   1   3
BRANCH   1  15
HETATM   15  C   UNK N   1       0.415   1.484   0.314  0.00  0.00     0.075 A 
HETATM   16  C   UNK N   1       0.544   2.880   0.383  0.00  0.00     0.093 A 
HETATM   17  C   UNK N   1       1.800   3.477   0.253  0.00  0.00     0.057 A 
HETATM   18  C   UNK N   1       2.944   2.691   0.067  0.00  0.00     0.040 A 
HETATM   19  C   UNK N   1       2.816   1.295   0.006  0.00  0.00     0.021 A 
HETATM   20  C   UNK N   1       1.557   0.695   0.119  0.00  0.00     0.034 A 
BRANCH  16  21
HETATM   21  O   UNK N   1      -0.543   3.655   0.546  0.00  0.00    -0.358 OA
HETATM   22  H   UNK N   1      -0.454   4.581   0.659  0.00  0.00     0.217 HD
ENDBRANCH  16  21
BRANCH  18  23
HETATM   23  C   UNK N   1       4.265   3.336  -0.074  0.00  0.00     0.176 C 
HETATM   24  O   UNK N   1       5.273   2.657  -0.200  0.00  0.00    -0.646 OA
BRANCH  23  25
HETATM   25  O   UNK N   1       4.368   4.680  -0.070  0.00  0.00    -0.773 OA
HETATM   26  H   UNK N   1       5.213   5.085  -0.068  0.00  0.00     0.167 HD
ENDBRANCH  23  25
ENDBRANCH  18  23
ENDBRANCH   1  15
TORSDOF 8
