REMARK  4 active torsions:
REMARK  status: ('A' for Active; 'I' for Inactive)
REMARK    1  A    between atoms: C_3  and  C_20 
REMARK    2  A    between atoms: C_12  and  C_21 
REMARK       I    between atoms: C_20  and  N_22 
REMARK       I    between atoms: C_21  and  N_23 
REMARK    3  A    between atoms: N_22  and  N_23 
REMARK    4  A    between atoms: N_22  and  C_26 
ROOT
HETATM    1  C   UNK N   1       0.750  -1.774  -0.166  0.00  0.00     0.273 C 
HETATM    2  N   UNK N   1       0.777  -0.396  -0.002  0.00  0.00    -0.245 N 
HETATM    3  O   UNK N   1      -0.337  -2.293  -0.396  0.00  0.00    -0.266 OA
ENDROOT
BRANCH   2   4
HETATM    4  N   UNK N   1      -0.451   0.237  -0.101  0.00  0.00    -0.260 N 
HETATM    5  C   UNK N   1      -0.706   1.427  -0.707  0.00  0.00     0.270 C 
HETATM    6  O   UNK N   1       0.161   2.003  -1.351  0.00  0.00    -0.266 OA
HETATM    7  H   UNK N   1      -1.219  -0.222   0.309  0.00  0.00     0.190 HD
BRANCH   5   8
HETATM    8  C   UNK N   1      -2.029   2.065  -0.500  0.00  0.00     0.042 A 
HETATM    9  C   UNK N   1      -2.135   3.456  -0.657  0.00  0.00     0.020 A 
HETATM   10  C   UNK N   1      -3.325   4.120  -0.349  0.00  0.00     0.040 A 
HETATM   11  C   UNK N   1      -4.427   3.397   0.106  0.00  0.00     0.102 A 
HETATM   12  C   UNK N   1      -4.361   2.002   0.212  0.00  0.00     0.109 A 
HETATM   13  O   UNK N   1      -5.567   4.034   0.461  0.00  0.00    -0.346 OA
HETATM   14  C   UNK N   1      -3.169   1.327  -0.078  0.00  0.00    -0.010 A 
HETATM   15  O   UNK N   1      -5.463   1.317   0.606  0.00  0.00    -0.346 OA
HETATM   16  C   UNK N   1      -3.150  -0.165   0.053  0.00  0.00     0.052 C 
HETATM   17  C   UNK N   1      -6.704   1.923   0.701  0.00  0.00     0.202 C 
HETATM   18  C   UNK N   1      -6.571   3.381   1.160  0.00  0.00     0.202 C 
ENDBRANCH   5   8
ENDBRANCH   2   4
BRANCH   2  19
HETATM   19  C   UNK N   1       1.978   0.367   0.431  0.00  0.00     0.046 C 
HETATM   20  C   UNK N   1       1.687   1.805   0.840  0.00  0.00     0.040 C 
HETATM   21  C   UNK N   1       2.560  -0.214   1.712  0.00  0.00     0.040 C 
HETATM   22  C   UNK N   1       3.012   0.437  -0.681  0.00  0.00     0.040 C 
ENDBRANCH   2  19
BRANCH   1  23
HETATM   23  C   UNK N   1       1.916  -2.723  -0.068  0.00  0.00     0.034 A 
HETATM   24  C   UNK N   1       1.640  -4.103  -0.046  0.00  0.00     0.024 A 
HETATM   25  C   UNK N   1       2.668  -5.045   0.038  0.00  0.00    -0.061 A 
HETATM   26  C   UNK N   1       3.996  -4.622   0.090  0.00  0.00     0.013 A 
HETATM   27  C   UNK N   1       2.347  -6.495   0.072  0.00  0.00     0.048 C 
HETATM   28  C   UNK N   1       4.291  -3.259   0.057  0.00  0.00    -0.061 A 
HETATM   29  C   UNK N   1       3.258  -2.324  -0.024  0.00  0.00     0.024 A 
HETATM   30  C   UNK N   1       5.702  -2.799   0.103  0.00  0.00     0.048 C 
ENDBRANCH   1  23
TORSDOF 4
