REMARK  3 active torsions:
REMARK  status: ('A' for Active; 'I' for Inactive)
REMARK    1  A    between atoms: C_4  and  O_12 
REMARK    2  A    between atoms: C_16  and  C_17 
REMARK    3  A    between atoms: C_19  and  O_20 
ROOT
HETATM    1  C   UNK N   1       0.431  -4.619   0.614  0.00  0.00     0.028 C 
HETATM    2  C   UNK N   1      -1.025  -4.490   0.192  0.00  0.00    -0.018 A 
HETATM    3  C   UNK N   1      -1.903  -5.573   0.333  0.00  0.00     0.046 A 
HETATM    4  C   UNK N   1      -3.246  -5.443  -0.035  0.00  0.00     0.066 A 
HETATM    5  C   UNK N   1      -3.716  -4.235  -0.558  0.00  0.00     0.039 A 
HETATM    6  C   UNK N   1       1.782  -5.159  -1.349  0.00  0.00     0.001 C 
HETATM    7  C   UNK N   1       1.601  -3.652  -1.246  0.00  0.00     0.008 C 
HETATM    8  C   UNK N   1       1.262  -3.395   0.214  0.00  0.00     0.028 C 
HETATM    9  C   UNK N   1      -2.853  -3.144  -0.688  0.00  0.00     0.040 A 
HETATM   10  C   UNK N   1      -1.516  -3.258  -0.296  0.00  0.00     0.076 A 
HETATM   11  O   UNK N   1      -0.707  -2.173  -0.351  0.00  0.00    -0.340 OA
HETATM   12  C   UNK N   1       0.449  -2.099   0.413  0.00  0.00     0.166 C 
HETATM   13  C   UNK N   1       1.135  -5.762  -0.106  0.00  0.00     0.010 C 
ENDROOT
BRANCH  12  14
HETATM   14  C   UNK N   1       1.177  -0.809   0.118  0.00  0.00    -0.028 A 
HETATM   15  C   UNK N   1       2.531  -0.786  -0.257  0.00  0.00     0.012 A 
HETATM   16  C   UNK N   1       3.181   0.433  -0.477  0.00  0.00     0.037 A 
HETATM   17  C   UNK N   1       2.484   1.635  -0.326  0.00  0.00     0.065 A 
HETATM   18  C   UNK N   1       1.137   1.620   0.042  0.00  0.00     0.037 A 
HETATM   19  C   UNK N   1       0.489   0.404   0.269  0.00  0.00     0.012 A 
BRANCH  17  20
HETATM   20  O   UNK N   1       3.110   2.805  -0.532  0.00  0.00    -0.361 OA
HETATM   21  H   UNK N   1       4.035   2.836  -0.675  0.00  0.00     0.217 HD
ENDBRANCH  17  20
ENDBRANCH  12  14
BRANCH   4  22
HETATM   22  O   UNK N   1      -4.086  -6.479   0.116  0.00  0.00    -0.361 OA
HETATM   23  H   UNK N   1      -5.006  -6.333   0.221  0.00  0.00     0.217 HD
ENDBRANCH   4  22
TORSDOF 3
