REMARK  10 active torsions:
REMARK  status: ('A' for Active; 'I' for Inactive)
REMARK    1  A    between atoms: C_3  and  S_7 
REMARK    2  A    between atoms: S_7  and  N_10 
REMARK    3  A    between atoms: N_10  and  C_11 
REMARK    4  A    between atoms: C_11  and  C_12 
REMARK       I    between atoms: C_12  and  N_14 
REMARK    5  A    between atoms: C_15  and  N_14 
REMARK    6  A    between atoms: C_15  and  C_16 
REMARK    7  A    between atoms: C_15  and  C_25 
REMARK    8  A    between atoms: C_16  and  C_17 
REMARK    9  A    between atoms: C_17  and  N_18 
REMARK   10  A    between atoms: N_18  and  C_19 
REMARK       I    between atoms: C_25  and  N_27 
ROOT
HETATM    1  C   UNK N   1       0.565   0.845   0.411  0.00  0.00     0.178 C 
ENDROOT
BRANCH   1   2
HETATM    2  N   UNK N   1      -0.673   0.412   1.046  0.00  0.00    -0.346 N 
HETATM    3  C   UNK N   1      -1.564  -0.538   0.650  0.00  0.00     0.236 C 
HETATM    4  O   UNK N   1      -2.446  -0.857   1.430  0.00  0.00    -0.272 OA
HETATM    5  H   UNK N   1      -0.899   0.876   1.885  0.00  0.00     0.163 HD
BRANCH   3   6
HETATM    6  C   UNK N   1      -1.486  -1.243  -0.696  0.00  0.00     0.234 C 
BRANCH   6   7
HETATM    7  N   UNK N   1      -2.567  -0.867  -1.641  0.00  0.00    -0.310 N 
HETATM    8  H   UNK N   1      -2.366  -0.275  -2.448  0.00  0.00     0.172 HD
BRANCH   7   9
HETATM    9  S   UNK N   1      -4.246  -1.475  -1.343  0.00  0.00     0.231 S 
HETATM   10  O   UNK N   1      -3.574  -2.602  -0.541  0.00  0.00    -0.206 OA
HETATM   11  O   UNK N   1      -4.009  -0.243  -0.463  0.00  0.00    -0.206 OA
BRANCH   9  12
HETATM   12  C   UNK N   1      -5.283  -1.341   0.218  0.00  0.00     0.129 C 
HETATM   13  C   UNK N   1      -6.530  -0.429   0.054  0.00  0.00     0.022 C 
HETATM   14  C   UNK N   1      -7.847  -1.133   0.363  0.00  0.00     0.001 C 
HETATM   15  C   UNK N   1      -7.875  -2.494  -0.324  0.00  0.00     0.000 C 
HETATM   16  C   UNK N   1      -6.739  -3.413   0.149  0.00  0.00     0.001 C 
HETATM   17  C   UNK N   1      -5.654  -2.667   0.925  0.00  0.00     0.022 C 
ENDBRANCH   9  12
ENDBRANCH   7   9
ENDBRANCH   6   7
ENDBRANCH   3   6
ENDBRANCH   1   2
BRANCH   1  18
HETATM   18  C   UNK N   1       1.031  -0.048  -0.739  0.00  0.00     0.054 C 
BRANCH  18  19
HETATM   19  C   UNK N   1       1.354  -1.436  -0.203  0.00  0.00     0.122 C 
BRANCH  19  20
HETATM   20  N   UNK N   1       2.340  -2.043  -1.040  0.00  0.00    -0.390 N 
HETATM   21  H   UNK N   1       2.098  -2.415  -1.919  0.00  0.00     0.159 HD
BRANCH  20  22
HETATM   22  C   UNK N   1       3.662  -2.094  -0.574  0.00  0.00     0.030 A 
HETATM   23  C   UNK N   1       4.563  -1.110  -0.973  0.00  0.00     0.046 A 
HETATM   24  C   UNK N   1       5.854  -1.117  -0.449  0.00  0.00     0.089 A 
HETATM   25  N   UNK N   1       6.221  -2.075   0.445  0.00  0.00    -0.375 N 
HETATM   26  C   UNK N   1       5.353  -3.041   0.850  0.00  0.00     0.089 A 
HETATM   27  H   UNK N   1       7.137  -2.069   0.806  0.00  0.00     0.164 HD
HETATM   28  C   UNK N   1       4.049  -3.063   0.354  0.00  0.00     0.046 A 
ENDBRANCH  20  22
ENDBRANCH  19  20
ENDBRANCH  18  19
ENDBRANCH   1  18
BRANCH   1  29
HETATM   29  C   UNK N   1       0.523   2.307   0.017  0.00  0.00     0.242 C 
HETATM   30  O   UNK N   1      -0.525   2.937   0.139  0.00  0.00    -0.271 OA
HETATM   31  N   UNK N   1       1.655   2.953  -0.400  0.00  0.00    -0.350 N 
HETATM   32  C   UNK N   1       1.648   4.385  -0.616  0.00  0.00     0.126 C 
HETATM   33  C   UNK N   1       2.912   2.223  -0.540  0.00  0.00     0.126 C 
HETATM   34  C   UNK N   1       2.699   5.051   0.286  0.00  0.00     0.020 C 
HETATM   35  C   UNK N   1       3.999   4.235   0.408  0.00  0.00     0.003 C 
HETATM   36  C   UNK N   1       4.105   3.163  -0.671  0.00  0.00     0.020 C 
ENDBRANCH   1  29
TORSDOF 10
