REMARK  2 active torsions:
REMARK  status: ('A' for Active; 'I' for Inactive)
REMARK    1  A    between atoms: C_2  and  O_5 
REMARK    2  A    between atoms: O_5  and  C_12 
ROOT
HETATM    1  C   UNK N   1      -4.362  -5.610   0.124  0.00  0.00     0.079 C 
HETATM    2  C   UNK N   1      -5.624  -6.025   0.491  0.00  0.00     0.060 C 
HETATM    3  C   UNK N   1      -4.141  -4.231  -0.092  0.00  0.00     0.060 C 
HETATM    4  C   UNK N   1      -6.708  -5.158   0.463  0.00  0.00     0.048 C 
HETATM    5  C   UNK N   1      -5.222  -3.322  -0.012  0.00  0.00     0.048 C 
HETATM    6  C   UNK N   1      -6.515  -3.804   0.211  0.00  0.00     0.045 C 
HETATM    7  C   UNK N   1      -8.022  -5.731   0.447  0.00  0.00     0.099 C 
HETATM    8  C   UNK N   1      -5.034  -1.907  -0.237  0.00  0.00     0.099 C 
HETATM    9  N   UNK N   1      -4.898  -0.766  -0.415  0.00  0.00    -0.191 NA
HETATM   10  N   UNK N   1      -9.079  -6.204   0.436  0.00  0.00    -0.191 NA
ENDROOT
BRANCH   1  11
HETATM   11  O   UNK N   1      -3.382  -6.521  -0.144  0.00  0.00    -0.307 OA
BRANCH  11  12
HETATM   12  C   UNK N   1      -3.414  -7.902  -0.109  0.00  0.00     0.129 C 
HETATM   13  C   UNK N   1      -4.578  -8.759  -0.183  0.00  0.00     0.053 A 
HETATM   14  C   UNK N   1      -4.447 -10.099   0.137  0.00  0.00     0.063 A 
HETATM   15  C   UNK N   1      -5.935  -8.670  -0.562  0.00  0.00     0.037 A 
HETATM   16  N   UNK N   1      -5.635 -10.720   0.099  0.00  0.00    -0.300 N 
HETATM   17  C   UNK N   1      -3.225 -10.717   0.361  0.00  0.00     0.035 C 
HETATM   18  N   UNK N   1      -6.538  -9.854  -0.337  0.00  0.00    -0.304 N 
HETATM   19  H   UNK N   1      -5.807 -11.656   0.350  0.00  0.00     0.187 HD
ATOM     20  HN  UNK N   1      -7.529 -10.051  -0.478  1.00  0.00     0.186 HD
HETATM   21  C   UNK N   1      -2.073  -9.938   0.263  0.00  0.00     0.047 C 
HETATM   22  C   UNK N   1      -2.165  -8.548   0.060  0.00  0.00     0.151 C 
HETATM   23  F   UNK N   1      -1.024  -7.817   0.040  0.00  0.00    -0.203 F 
HETATM   24  C   UNK N   1      -6.633  -7.616  -1.363  0.00  0.00     0.070 C 
ENDBRANCH  11  12
ENDBRANCH   1  11
TORSDOF 2
