REMARK  10 active torsions:
REMARK  status: ('A' for Active; 'I' for Inactive)
REMARK    1  A    between atoms: C_3  and  O_14 
REMARK    2  A    between atoms: C_6  and  N_13 
REMARK    3  A    between atoms: N_12  and  C_27 
REMARK    4  A    between atoms: N_13  and  C_15 
REMARK    5  A    between atoms: O_14  and  C_23 
REMARK    6  A    between atoms: C_15  and  C_16 
REMARK    7  A    between atoms: C_16  and  N_17 
REMARK    8  A    between atoms: C_23  and  C_24 
REMARK    9  A    between atoms: C_24  and  C_25 
REMARK   10  A    between atoms: C_27  and  C_28 
ROOT
HETATM    1  N   UNK N   1       6.284  27.847   0.027  0.00  0.00    -0.306 N 
ATOM      2  HN  UNK N   1       6.259  28.866   0.081  1.00  0.00     0.171 HD
HETATM    3  C   UNK N   1       7.454  27.156   0.231  0.00  0.00     0.226 A 
HETATM    4  N   UNK N   1       7.453  25.779   0.222  0.00  0.00    -0.306 N 
ATOM      5  HN  UNK N   1       8.316  25.278   0.432  1.00  0.00     0.171 HD
HETATM    6  C   UNK N   1       6.319  25.066  -0.064  0.00  0.00     0.135 A 
HETATM    7  C   UNK N   1       5.163  27.136  -0.248  0.00  0.00     0.142 A 
HETATM    8  C   UNK N   1       5.166  25.794  -0.344  0.00  0.00     0.122 A 
HETATM    9  N   UNK N   1       3.948  25.369  -0.711  0.00  0.00    -0.346 N 
ATOM     10  HN  UNK N   1       3.646  24.409  -0.877  1.00  0.00     0.167 HD
HETATM   11  C   UNK N   1       3.206  26.499  -0.814  0.00  0.00     0.185 A 
HETATM   12  N   UNK N   1       3.926  27.598  -0.484  0.00  0.00    -0.323 N 
ENDROOT
BRANCH   6  13
HETATM   13  N   UNK N   1       6.356  23.640  -0.069  0.00  0.00    -0.373 N 
HETATM   14  H   UNK N   1       7.203  23.202   0.177  0.00  0.00     0.161 HD
BRANCH  13  15
HETATM   15  C   UNK N   1       5.231  22.793  -0.414  0.00  0.00     0.151 C 
BRANCH  15  16
HETATM   16  C   UNK N   1       4.138  22.819   0.654  0.00  0.00     0.292 C 
BRANCH  16  17
HETATM   17  N   UNK N   1       2.837  22.758  -0.001  0.00  0.00     0.094 N 
HETATM   18  C   UNK N   1       2.282  21.411   0.123  0.00  0.00     0.298 C 
HETATM   19  C   UNK N   1       0.880  21.401  -0.501  0.00  0.00     0.198 C 
HETATM   20  O   UNK N   1       0.044  22.303   0.188  0.00  0.00    -0.388 OA
HETATM   21  C   UNK N   1       0.558  23.596  -0.028  0.00  0.00     0.198 C 
HETATM   22  C   UNK N   1       1.929  23.707   0.643  0.00  0.00     0.298 C 
ENDBRANCH  16  17
ENDBRANCH  15  16
ENDBRANCH  13  15
ENDBRANCH   6  13
BRANCH   3  23
HETATM   23  O   UNK N   1       8.629  27.814   0.386  0.00  0.00    -0.322 OA
BRANCH  23  24
HETATM   24  C   UNK N   1       8.817  29.116  -0.037  0.00  0.00     0.178 C 
BRANCH  24  25
HETATM   25  C   UNK N   1       8.198  30.114   0.924  0.00  0.00     0.026 C 
BRANCH  25  26
HETATM   26  C   UNK N   1       7.648  31.304   0.155  0.00  0.00    -0.002 C 
HETATM   27  C   UNK N   1       8.738  32.317  -0.138  0.00  0.00     0.005 C 
ENDBRANCH  25  26
ENDBRANCH  24  25
ENDBRANCH  23  24
ENDBRANCH   3  23
BRANCH  12  28
HETATM   28  C   UNK N   1       3.491  28.994  -0.438  0.00  0.00     0.176 C 
BRANCH  28  29
HETATM   29  C   UNK N   1       2.029  29.318  -0.112  0.00  0.00     0.037 A 
HETATM   30  C   UNK N   1       1.054  28.413   0.408  0.00  0.00     0.127 A 
HETATM   31  C   UNK N   1      -0.258  28.846   0.628  0.00  0.00     0.043 A 
HETATM   32  F   UNK N   1       1.335  27.137   0.744  0.00  0.00    -0.205 F 
HETATM   33  C   UNK N   1      -0.628  30.160   0.361  0.00  0.00     0.006 A 
HETATM   34  C   UNK N   1       0.321  31.063  -0.108  0.00  0.00     0.043 A 
HETATM   35  C   UNK N   1       1.635  30.651  -0.341  0.00  0.00     0.127 A 
HETATM   36  F   UNK N   1       2.535  31.561  -0.790  0.00  0.00    -0.205 F 
ENDBRANCH  28  29
ENDBRANCH  12  28
TORSDOF 10
