REMARK  3 active torsions:
REMARK  status: ('A' for Active; 'I' for Inactive)
REMARK    1  A    between atoms: C_5  and  N_16 
REMARK    2  A    between atoms: N_16  and  C_18 
REMARK    3  A    between atoms: C_18  and  C_19 
ROOT
HETATM    1  C   UNK N   1       1.734   3.603  -0.108  0.00  0.00     0.057 C 
HETATM    2  C   UNK N   1       3.003   2.784   0.124  0.00  0.00     0.006 C 
HETATM    3  C   UNK N   1       2.923   1.454  -0.600  0.00  0.00     0.005 C 
HETATM    4  C   UNK N   1       1.783   0.634  -0.014  0.00  0.00     0.043 C 
HETATM    5  C   UNK N   1      -0.757   0.686   0.051  0.00  0.00     0.049 A 
HETATM    6  C   UNK N   1      -3.196   0.759   0.125  0.00  0.00     0.016 A 
HETATM    7  C   UNK N   1      -4.382   1.499   0.116  0.00  0.00     0.001 A 
HETATM    8  C   UNK N   1      -4.336   2.894   0.055  0.00  0.00     0.002 A 
HETATM    9  C   UNK N   1      -3.105   3.555   0.010  0.00  0.00     0.030 A 
HETATM   10  N   UNK N   1      -0.722   3.468  -0.038  0.00  0.00    -0.358 N 
ATOM     11  HN  UNK N   1      -0.714   4.487  -0.080  1.00  0.00     0.166 HD
HETATM   12  C   UNK N   1       0.460   2.800  -0.043  0.00  0.00     0.018 A 
HETATM   13  C   UNK N   1       0.474   1.384  -0.008  0.00  0.00    -0.008 A 
HETATM   14  C   UNK N   1      -1.955   1.413   0.078  0.00  0.00     0.018 A 
HETATM   15  C   UNK N   1      -1.915   2.821   0.022  0.00  0.00     0.044 A 
ENDROOT
BRANCH   5  16
HETATM   16  N   UNK N   1      -0.810  -0.735   0.042  0.00  0.00    -0.384 N 
HETATM   17  H   UNK N   1      -1.408  -1.203   0.670  0.00  0.00     0.160 HD
BRANCH  16  18
HETATM   18  C   UNK N   1      -0.002  -1.501  -0.873  0.00  0.00     0.158 C 
BRANCH  18  19
HETATM   19  C   UNK N   1       0.196  -2.896  -0.406  0.00  0.00    -0.039 A 
HETATM   20  C   UNK N   1       1.497  -3.382  -0.269  0.00  0.00     0.027 A 
HETATM   21  C   UNK N   1       1.716  -4.704   0.118  0.00  0.00     0.007 A 
HETATM   22  I   UNK N   1       3.684  -5.420   0.294  0.00  0.00    -0.045 I 
HETATM   23  C   UNK N   1       0.629  -5.547   0.371  0.00  0.00     0.018 A 
HETATM   24  C   UNK N   1      -0.677  -5.064   0.234  0.00  0.00     0.002 A 
HETATM   25  C   UNK N   1      -0.896  -3.740  -0.162  0.00  0.00     0.009 A 
ENDBRANCH  18  19
ENDBRANCH  16  18
ENDBRANCH   5  16
TORSDOF 3
