REMARK  5 active torsions:
REMARK  status: ('A' for Active; 'I' for Inactive)
REMARK    1  A    between atoms: C_7  and  C_1 
REMARK    2  A    between atoms: C_5  and  C_9 
REMARK    3  A    between atoms: C_6  and  C_8 
REMARK       I    between atoms: N_24  and  C_28 
REMARK    4  A    between atoms: C_28  and  C_30 
REMARK    5  A    between atoms: C_30  and  O_31 
ROOT
HETATM    1  C   UNK N   1       2.465   1.538   0.036  0.00  0.00     0.072 A 
HETATM    2  N   UNK N   1       3.526   0.703   0.020  0.00  0.00    -0.299 N 
HETATM    3  N   UNK N   1       3.098  -0.551   0.021  0.00  0.00    -0.303 N 
ATOM      4  HN  UNK N   1       3.692  -1.380   0.014  1.00  0.00     0.186 HD
HETATM    5  C   UNK N   1       1.753  -0.553   0.031  0.00  0.00     0.045 A 
HETATM    6  C   UNK N   1       1.288   0.766   0.060  0.00  0.00     0.044 A 
HETATM    7  H   UNK N   1       4.470   0.983   0.010  0.00  0.00     0.187 HD
ENDROOT
BRANCH   5   8
HETATM    8  C   UNK N   1       0.925  -1.811   0.074  0.00  0.00     0.041 C 
HETATM    9  C   UNK N   1       1.721  -3.087   0.253  0.00  0.00     0.030 C 
HETATM   10  C   UNK N   1       0.777  -4.277   0.477  0.00  0.00     0.126 C 
HETATM   11  N   UNK N   1      -0.548  -4.165  -0.146  0.00  0.00    -0.350 N 
HETATM   12  C   UNK N   1      -1.473  -5.140   0.098  0.00  0.00     0.243 C 
HETATM   13  C   UNK N   1      -0.937  -3.026  -0.976  0.00  0.00     0.126 C 
HETATM   14  O   UNK N   1      -1.181  -6.105   0.792  0.00  0.00    -0.271 OA
HETATM   15  C   UNK N   1       0.166  -2.008  -1.214  0.00  0.00     0.030 C 
BRANCH  12  16
HETATM   16  C   UNK N   1      -2.869  -5.035  -0.468  0.00  0.00     0.267 C 
BRANCH  16  17
HETATM   17  O   UNK N   1      -3.667  -6.106  -0.061  0.00  0.00    -0.392 OA
HETATM   18  H   UNK N   1      -4.588  -5.998   0.223  0.00  0.00     0.210 HD
ENDBRANCH  16  17
ENDBRANCH  12  16
ENDBRANCH   5   8
BRANCH   6  19
HETATM   19  C   UNK N   1      -0.149   1.193   0.151  0.00  0.00     0.049 A 
HETATM   20  C   UNK N   1      -1.186   0.284  -0.080  0.00  0.00     0.047 A 
HETATM   21  C   UNK N   1      -2.507   0.706   0.026  0.00  0.00     0.091 A 
HETATM   22  N   UNK N   1      -2.780   1.988   0.375  0.00  0.00    -0.362 N 
HETATM   23  C   UNK N   1      -1.773   2.862   0.624  0.00  0.00     0.180 A 
ATOM     24  HN  UNK N   1      -3.749   2.298   0.450  1.00  0.00     0.165 HD
HETATM   25  N   UNK N   1      -0.479   2.460   0.512  0.00  0.00    -0.352 N 
ATOM     26  HN  UNK N   1       0.266   3.130   0.705  1.00  0.00     0.166 HD
ENDBRANCH   6  19
BRANCH   1  27
HETATM   27  C   UNK N   1       2.660   3.018  -0.004  0.00  0.00    -0.007 A 
HETATM   28  C   UNK N   1       1.600   3.904  -0.221  0.00  0.00     0.015 A 
HETATM   29  C   UNK N   1       1.805   5.282  -0.269  0.00  0.00     0.024 A 
HETATM   30  C   UNK N   1       3.089   5.798  -0.110  0.00  0.00     0.034 A 
HETATM   31  C   UNK N   1       4.167   4.931   0.087  0.00  0.00     0.024 A 
HETATM   32 Cl   UNK N   1       3.342   7.529  -0.157  0.00  0.00    -0.084 Cl
HETATM   33  C   UNK N   1       3.954   3.547   0.133  0.00  0.00     0.015 A 
ENDBRANCH   1  27
TORSDOF 5
