REMARK  5 active torsions:
REMARK  status: ('A' for Active; 'I' for Inactive)
REMARK    1  A    between atoms: C_2  and  O_1 
REMARK    2  A    between atoms: C_2  and  C_4 
REMARK    3  A    between atoms: C_18  and  N_17 
REMARK    4  A    between atoms: C_19  and  C_18 
REMARK    5  A    between atoms: C_22  and  C_21 
REMARK       I    between atoms: N_23  and  C_22 
ROOT
HETATM    1  C   UNK N   1       3.363  -0.642   0.152  0.00  0.00     0.065 A 
HETATM    2  C   UNK N   1       1.993  -1.033  -0.020  0.00  0.00     0.063 A 
HETATM    3  C   UNK N   1       1.706  -2.334  -0.398  0.00  0.00     0.000 A 
HETATM    4  C   UNK N   1       0.346  -2.446  -0.511  0.00  0.00    -0.023 A 
HETATM    5  C   UNK N   1      -0.421  -3.677  -0.885  0.00  0.00     0.041 C 
HETATM    6  C   UNK N   1      -1.377  -4.087   0.228  0.00  0.00     0.005 C 
HETATM    7  C   UNK N   1      -2.632  -3.221   0.228  0.00  0.00     0.001 C 
HETATM    8  C   UNK N   1      -2.371  -1.859   0.858  0.00  0.00     0.006 C 
HETATM    9  C   UNK N   1      -1.647  -0.941  -0.112  0.00  0.00     0.058 C 
HETATM   10  C   UNK N   1      -0.181  -1.216  -0.162  0.00  0.00     0.019 A 
HETATM   11  C   UNK N   1       2.675  -3.312  -0.579  0.00  0.00     0.014 A 
HETATM   12  C   UNK N   1       4.008  -2.962  -0.365  0.00  0.00     0.002 A 
HETATM   13  C   UNK N   1       4.345  -1.644  -0.018  0.00  0.00     0.021 A 
HETATM   14  N   UNK N   1       0.825  -0.343   0.157  0.00  0.00    -0.344 N 
ENDROOT
BRANCH  14  15
HETATM   15  C   UNK N   1       0.689   0.981   0.798  0.00  0.00     0.167 C 
BRANCH  15  16
HETATM   16  C   UNK N   1      -0.290   2.015   0.299  0.00  0.00    -0.039 A 
HETATM   17  C   UNK N   1       0.168   3.312   0.022  0.00  0.00     0.026 A 
HETATM   18  C   UNK N   1      -0.745   4.357  -0.222  0.00  0.00     0.032 A 
HETATM   19  C   UNK N   1      -2.120   4.091  -0.189  0.00  0.00     0.017 A 
HETATM   20  C   UNK N   1      -2.580   2.807   0.095  0.00  0.00     0.002 A 
HETATM   21  C   UNK N   1      -1.668   1.790   0.370  0.00  0.00     0.009 A 
BRANCH  18  22
HETATM   22  C   UNK N   1      -0.271   5.739  -0.449  0.00  0.00     0.249 C 
HETATM   23  O   UNK N   1       0.924   5.986  -0.459  0.00  0.00    -0.268 OA
HETATM   24  N   UNK N   1      -1.157   6.744  -0.616  0.00  0.00    -0.366 N 
HETATM   25  H   UNK N   1      -0.846   7.670  -0.738  0.00  0.00     0.159 HD
HETATM   26  H   UNK N   1      -2.122   6.549  -0.616  0.00  0.00     0.159 HD
ENDBRANCH  18  22
ENDBRANCH  15  16
ENDBRANCH  14  15
BRANCH   1  27
HETATM   27  C   UNK N   1       3.870   0.732   0.424  0.00  0.00     0.178 C 
HETATM   28  O   UNK N   1       3.147   1.707   0.365  0.00  0.00    -0.646 OA
BRANCH  27  29
HETATM   29  O   UNK N   1       5.191   0.920   0.628  0.00  0.00    -0.773 OA
HETATM   30  H   UNK N   1       5.762   0.191   0.770  0.00  0.00     0.167 HD
ENDBRANCH  27  29
ENDBRANCH   1  27
TORSDOF 5
