REMARK  10 active torsions:
REMARK  status: ('A' for Active; 'I' for Inactive)
REMARK       I    between atoms: C_1  and  N_17 
REMARK       I    between atoms: N_18  and  C_1 
REMARK    1  A    between atoms: O_2  and  N_18 
REMARK    2  A    between atoms: C_19  and  O_2 
REMARK    3  A    between atoms: C_3  and  N_20 
REMARK    4  A    between atoms: C_3  and  C_19 
REMARK    5  A    between atoms: C_4  and  C_5 
REMARK       I    between atoms: C_4  and  N_20 
REMARK    6  A    between atoms: C_5  and  C_6 
REMARK    7  A    between atoms: C_8  and  N_25 
REMARK    8  A    between atoms: C_11  and  C_12 
REMARK    9  A    between atoms: N_25  and  C_11 
REMARK   10  A    between atoms: C_26  and  C_12 
ROOT
HETATM    1  C   UNK N   1      -0.650  -0.865  -0.297  0.00  0.00     0.013 A 
HETATM    2  C   UNK N   1       0.675  -0.496   0.019  0.00  0.00     0.151 A 
HETATM    3  C   UNK N   1       1.602  -1.471   0.448  0.00  0.00     0.068 A 
HETATM    4  C   UNK N   1       1.188  -2.801   0.562  0.00  0.00     0.034 A 
HETATM    5  C   UNK N   1      -0.121  -3.171   0.254  0.00  0.00     0.027 A 
HETATM    6  C   UNK N   1      -1.042  -2.217  -0.179  0.00  0.00     0.043 A 
HETATM    7 Cl   UNK N   1      -2.659  -2.763  -0.608  0.00  0.00    -0.084 Cl
HETATM    8  F   UNK N   1       1.052   0.801  -0.115  0.00  0.00    -0.203 F 
ENDROOT
BRANCH   1   9
HETATM    9  C   UNK N   1      -1.586   0.192  -0.825  0.00  0.00     0.146 C 
BRANCH   9  10
HETATM   10  C   UNK N   1      -2.756   0.578   0.039  0.00  0.00     0.222 C 
HETATM   11  N   UNK N   1      -3.310   1.803  -0.135  0.00  0.00    -0.359 N 
HETATM   12  H   UNK N   1      -2.909   2.413  -0.795  0.00  0.00     0.162 HD
HETATM   13  O   UNK N   1      -3.225  -0.206   0.852  0.00  0.00    -0.273 OA
BRANCH  11  14
HETATM   14  C   UNK N   1      -4.466   2.250   0.606  0.00  0.00     0.151 C 
BRANCH  14  15
HETATM   15  C   UNK N   1      -5.734   1.860  -0.133  0.00  0.00     0.221 C 
BRANCH  15  16
HETATM   16  O   UNK N   1      -5.973   0.497   0.040  0.00  0.00    -0.265 OA
BRANCH  16  17
HETATM   17  N   UNK N   1      -7.304   0.374   0.009  0.00  0.00    -0.097 N 
HETATM   18  C   UNK N   1      -7.906  -0.905  -0.032  0.00  0.00     0.689 C 
HETATM   19  N   UNK N   1      -7.102  -2.069  -0.000  0.00  0.00    -0.233 N 
HETATM   20  N   UNK N   1      -9.177  -1.012  -0.103  0.00  0.00    -0.233 N 
HETATM   21  H   UNK N   1      -7.523  -2.959   0.022  0.00  0.00     0.174 HD
HETATM   22  H   UNK N   1      -6.120  -1.989  -0.000  0.00  0.00     0.174 HD
HETATM   23  H   UNK N   1      -9.738  -0.205  -0.158  0.00  0.00     0.174 HD
ATOM     24  HN  UNK N   1      -9.611  -1.935  -0.103  1.00  0.00     0.174 HD
HETATM   25  H   UNK N   1      -7.869   1.180   0.016  0.00  0.00     0.213 HD
ENDBRANCH  16  17
ENDBRANCH  15  16
ENDBRANCH  14  15
ENDBRANCH  11  14
ENDBRANCH   9  10
ENDBRANCH   1   9
BRANCH   3  26
HETATM   26  N   UNK N   1       2.961  -1.167   0.748  0.00  0.00    -0.381 N 
HETATM   27  H   UNK N   1       3.545  -1.921   0.991  0.00  0.00     0.160 HD
BRANCH  26  28
HETATM   28  C   UNK N   1       3.564   0.152   0.727  0.00  0.00     0.204 C 
BRANCH  28  29
HETATM   29  C   UNK N   1       4.501   0.314  -0.478  0.00  0.00     0.286 C 
HETATM   30  F   UNK N   1       4.874  -0.934  -0.957  0.00  0.00    -0.199 F 
HETATM   31  F   UNK N   1       3.820   0.973  -1.486  0.00  0.00    -0.199 F 
BRANCH  29  32
HETATM   32  C   UNK N   1       5.741   1.100  -0.119  0.00  0.00     0.015 A 
HETATM   33  C   UNK N   1       5.661   2.464   0.205  0.00  0.00     0.013 A 
HETATM   34  C   UNK N   1       6.825   3.191   0.487  0.00  0.00     0.001 A 
HETATM   35  C   UNK N   1       8.072   2.559   0.463  0.00  0.00     0.000 A 
HETATM   36  C   UNK N   1       8.159   1.200   0.154  0.00  0.00     0.001 A 
HETATM   37  C   UNK N   1       7.001   0.477  -0.145  0.00  0.00     0.013 A 
ENDBRANCH  29  32
ENDBRANCH  28  29
ENDBRANCH  26  28
ENDBRANCH   3  26
TORSDOF 10
