REMARK  8 active torsions:
REMARK  status: ('A' for Active; 'I' for Inactive)
REMARK    1  A    between atoms: O_1  and  C_2 
REMARK    2  A    between atoms: C_2  and  C_4 
REMARK    3  A    between atoms: C_4  and  C_5 
REMARK    4  A    between atoms: C_5  and  C_6 
REMARK    5  A    between atoms: C_5  and  N_9 
REMARK    6  A    between atoms: C_6  and  O_8 
REMARK       I    between atoms: N_9  and  C_10 
REMARK    7  A    between atoms: C_10  and  C_12 
REMARK    8  A    between atoms: C_12  and  C_13 
ROOT
HETATM    1  N   UNK N   1      -2.019   0.125   0.734  0.00  0.00    -0.346 N 
HETATM    2  C   UNK N   1      -0.763   0.621   0.913  0.00  0.00     0.222 C 
HETATM    3  O   UNK N   1      -0.384   0.893   2.041  0.00  0.00    -0.273 OA
HETATM    4  H   UNK N   1      -2.595   0.034   1.527  0.00  0.00     0.163 HD
ENDROOT
BRANCH   2   5
HETATM    5  C   UNK N   1       0.152   0.890  -0.253  0.00  0.00     0.143 C 
BRANCH   5   6
HETATM    6  C   UNK N   1       1.436   0.124  -0.198  0.00  0.00    -0.022 A 
HETATM    7  C   UNK N   1       1.593  -1.260  -0.183  0.00  0.00     0.097 A 
HETATM    8  N   UNK N   1       2.917  -1.566  -0.174  0.00  0.00    -0.365 N 
HETATM    9  C   UNK N   1       3.573  -0.389  -0.188  0.00  0.00     0.042 A 
HETATM   10  H   UNK N   1       3.316  -2.466  -0.159  0.00  0.00     0.165 HD
HETATM   11  C   UNK N   1       2.698   0.658  -0.203  0.00  0.00    -0.001 A 
HETATM   12  C   UNK N   1       4.952  -0.197  -0.200  0.00  0.00     0.030 A 
HETATM   13  C   UNK N   1       3.134   1.982  -0.230  0.00  0.00     0.014 A 
HETATM   14  C   UNK N   1       4.522   2.213  -0.240  0.00  0.00     0.001 A 
HETATM   15  C   UNK N   1       5.428   1.128  -0.226  0.00  0.00     0.002 A 
ENDBRANCH   5   6
ENDBRANCH   2   5
BRANCH   1  16
HETATM   16  C   UNK N   1      -2.566  -0.277  -0.553  0.00  0.00     0.192 C 
BRANCH  16  17
HETATM   17  C   UNK N   1      -3.720   0.658  -0.965  0.00  0.00     0.146 C 
BRANCH  17  18
HETATM   18  C   UNK N   1      -4.909   0.706  -0.047  0.00  0.00     0.141 C 
HETATM   19  O   UNK N   1      -5.735  -0.192  -0.057  0.00  0.00    -0.650 OA
BRANCH  18  20
HETATM   20  O   UNK N   1      -5.124   1.797   0.710  0.00  0.00    -0.776 OA
HETATM   21  H   UNK N   1      -4.540   2.306   1.237  0.00  0.00     0.167 HD
ENDBRANCH  18  20
ENDBRANCH  17  18
ENDBRANCH  16  17
BRANCH  16  22
HETATM   22  C   UNK N   1      -2.919  -1.744  -0.507  0.00  0.00     0.164 C 
HETATM   23  O   UNK N   1      -2.055  -2.559  -0.224  0.00  0.00    -0.648 OA
BRANCH  22  24
HETATM   24  O   UNK N   1      -4.159  -2.177  -0.800  0.00  0.00    -0.775 OA
HETATM   25  H   UNK N   1      -4.852  -1.580  -1.004  0.00  0.00     0.167 HD
ENDBRANCH  22  24
ENDBRANCH  16  22
ENDBRANCH   1  16
TORSDOF 8
