REMARK  6 active torsions:
REMARK  status: ('A' for Active; 'I' for Inactive)
REMARK       I    between atoms: C_2  and  N_3 
REMARK    1  A    between atoms: C_2  and  C_11 
REMARK    2  A    between atoms: C_4  and  N_3 
REMARK    3  A    between atoms: C_4  and  C_5 
REMARK    4  A    between atoms: C_4  and  C_8 
REMARK    5  A    between atoms: C_5  and  O_7 
REMARK    6  A    between atoms: C_11  and  C_12 
ROOT
HETATM    1  O   UNK N   1      -0.510  -0.533  -1.366  0.00  0.00    -0.273 OA
HETATM    2  C   UNK N   1      -0.415  -0.850  -0.189  0.00  0.00     0.222 C 
HETATM    3  N   UNK N   1      -1.496  -1.280   0.511  0.00  0.00    -0.346 N 
HETATM    4  H   UNK N   1      -1.364  -1.514   1.458  0.00  0.00     0.163 HD
ENDROOT
BRANCH   2   5
HETATM    5  C   UNK N   1       0.910  -0.793   0.504  0.00  0.00     0.143 C 
BRANCH   5   6
HETATM    6  C   UNK N   1       1.609   0.525   0.373  0.00  0.00    -0.022 A 
HETATM    7  C   UNK N   1       1.060   1.801   0.484  0.00  0.00     0.097 A 
HETATM    8  N   UNK N   1       2.040   2.730   0.331  0.00  0.00    -0.365 N 
HETATM    9  C   UNK N   1       3.182   2.040   0.139  0.00  0.00     0.042 A 
HETATM   10  H   UNK N   1       1.937   3.708   0.355  0.00  0.00     0.165 HD
HETATM   11  C   UNK N   1       4.459   2.564  -0.045  0.00  0.00     0.030 A 
HETATM   12  C   UNK N   1       2.950   0.696   0.160  0.00  0.00    -0.001 A 
HETATM   13  C   UNK N   1       5.521   1.654  -0.209  0.00  0.00     0.002 A 
HETATM   14  C   UNK N   1       5.281   0.261  -0.186  0.00  0.00     0.001 A 
HETATM   15  C   UNK N   1       3.977  -0.233   0.001  0.00  0.00     0.014 A 
ENDBRANCH   5   6
ENDBRANCH   2   5
BRANCH   3  16
HETATM   16  C   UNK N   1      -2.834  -1.418  -0.037  0.00  0.00     0.185 C 
BRANCH  16  17
HETATM   17  C   UNK N   1      -3.295  -2.852   0.131  0.00  0.00     0.163 C 
HETATM   18  O   UNK N   1      -4.389  -3.199  -0.286  0.00  0.00    -0.648 OA
BRANCH  17  19
HETATM   19  O   UNK N   1      -2.495  -3.764   0.720  0.00  0.00    -0.775 OA
HETATM   20  H   UNK N   1      -2.766  -4.561   1.130  0.00  0.00     0.167 HD
ENDBRANCH  17  19
ENDBRANCH  16  17
BRANCH  16  21
HETATM   21  C   UNK N   1      -3.761  -0.435   0.703  0.00  0.00     0.010 C 
HETATM   22  C   UNK N   1      -5.190  -0.475   0.185  0.00  0.00     0.012 C 
HETATM   23  C   UNK N   1      -3.254   0.993   0.570  0.00  0.00     0.012 C 
ENDBRANCH  16  21
ENDBRANCH   3  16
TORSDOF 6
