REMARK  7 active torsions:
REMARK  status: ('A' for Active; 'I' for Inactive)
REMARK    1  A    between atoms: C_1  and  C_4 
REMARK    2  A    between atoms: C_3  and  C_11 
REMARK    3  A    between atoms: C_6  and  N_9 
REMARK    4  A    between atoms: C_10  and  C_11 
REMARK    5  A    between atoms: C_10  and  O_12 
REMARK    6  A    between atoms: O_12  and  C_15 
REMARK    7  A    between atoms: C_14  and  C_15 
ROOT
HETATM    1  C   UNK N   1      -0.579   0.137  -0.544  0.00  0.00    -0.035 A 
HETATM    2  C   UNK N   1      -1.567  -0.770  -0.103  0.00  0.00     0.010 A 
HETATM    3  C   UNK N   1      -2.830  -0.285   0.273  0.00  0.00     0.044 A 
HETATM    4  C   UNK N   1      -3.113   1.082   0.207  0.00  0.00     0.026 A 
HETATM    5  C   UNK N   1      -2.141   1.975  -0.241  0.00  0.00     0.029 A 
HETATM    6  C   UNK N   1      -0.883   1.504  -0.616  0.00  0.00     0.011 A 
ENDROOT
BRANCH   1   7
HETATM    7  C   UNK N   1       0.801  -0.315  -0.937  0.00  0.00     0.150 C 
BRANCH   7   8
HETATM    8  C   UNK N   1       1.829   0.149   0.067  0.00  0.00     0.263 C 
HETATM    9  O   UNK N   1       1.834   1.315   0.431  0.00  0.00    -0.265 OA
BRANCH   8  10
HETATM   10  O   UNK N   1       2.750  -0.697   0.583  0.00  0.00    -0.320 OA
BRANCH  10  11
HETATM   11  C   UNK N   1       3.104  -1.876  -0.028  0.00  0.00     0.189 C 
BRANCH  11  12
HETATM   12  C   UNK N   1       4.623  -1.999  -0.045  0.00  0.00     0.112 C 
HETATM   13 Br   UNK N   1       5.477  -0.375  -0.690  0.00  0.00    -0.094 Br
ENDBRANCH  11  12
ENDBRANCH  10  11
ENDBRANCH   8  10
ENDBRANCH   7   8
ENDBRANCH   1   7
BRANCH   2  14
HETATM   14  C   UNK N   1      -1.284  -2.215  -0.020  0.00  0.00     0.270 C 
HETATM   15  O   UNK N   1      -2.136  -3.001   0.367  0.00  0.00    -0.301 OA
ENDBRANCH   2  14
BRANCH   4  16
HETATM   16  N   UNK N   1      -4.379   1.560   0.598  0.00  0.00    -0.399 N 
HETATM   17  H   UNK N   1      -4.532   2.494   0.870  0.00  0.00     0.156 HD
HETATM   18  H   UNK N   1      -5.141   0.937   0.598  0.00  0.00     0.156 HD
ENDBRANCH   4  16
TORSDOF 7
