REMARK  7 active torsions:
REMARK  status: ('A' for Active; 'I' for Inactive)
REMARK    1  A    between atoms: C_1  and  C_3 
REMARK    2  A    between atoms: C_9  and  N_10 
REMARK       I    between atoms: N_10  and  C_11 
REMARK    3  A    between atoms: C_11  and  C_13 
REMARK    4  A    between atoms: C_13  and  C_14 
REMARK    5  A    between atoms: C_13  and  N_17 
REMARK       I    between atoms: N_17  and  C_18 
REMARK    6  A    between atoms: C_18  and  O_20 
REMARK    7  A    between atoms: O_20  and  C_21 
ROOT
HETATM    1  N   UNK N   1      -2.142   0.010   0.853  0.00  0.00    -0.324 N 
HETATM    2  C   UNK N   1      -1.019   0.208   0.111  0.00  0.00     0.245 C 
HETATM    3  O   UNK N   1      -0.980  -0.129  -1.064  0.00  0.00    -0.271 OA
HETATM    4  H   UNK N   1      -2.144   0.370   1.770  0.00  0.00     0.169 HD
ENDROOT
BRANCH   2   5
HETATM    5  C   UNK N   1       0.169   0.890   0.768  0.00  0.00     0.182 C 
BRANCH   5   6
HETATM    6  C   UNK N   1       0.363   2.366   0.348  0.00  0.00     0.009 C 
HETATM    7  C   UNK N   1       0.610   2.597  -1.130  0.00  0.00     0.012 C 
HETATM    8  C   UNK N   1      -0.834   3.208   0.768  0.00  0.00     0.012 C 
ENDBRANCH   5   6
BRANCH   5   9
HETATM    9  N   UNK N   1       1.392   0.094   0.702  0.00  0.00    -0.323 N 
HETATM   10  C   UNK N   1       2.110  -0.232  -0.408  0.00  0.00     0.362 C 
HETATM   11  O   UNK N   1       1.759   0.143  -1.517  0.00  0.00    -0.238 OA
HETATM   12  H   UNK N   1       1.737  -0.245   1.559  0.00  0.00     0.165 HD
BRANCH  10  13
HETATM   13  O   UNK N   1       3.192  -1.041  -0.296  0.00  0.00    -0.294 OA
BRANCH  13  14
HETATM   14  C   UNK N   1       4.475  -0.598  -0.013  0.00  0.00     0.061 C 
HETATM   15  C   UNK N   1       4.972   0.347  -1.094  0.00  0.00     0.046 C 
HETATM   16  C   UNK N   1       5.399  -1.797   0.029  0.00  0.00     0.046 C 
HETATM   17  C   UNK N   1       4.533   0.097   1.337  0.00  0.00     0.046 C 
ENDBRANCH  13  14
ENDBRANCH  10  13
ENDBRANCH   5   9
ENDBRANCH   2   5
BRANCH   1  18
HETATM   18  C   UNK N   1      -3.313  -0.671   0.421  0.00  0.00     0.049 A 
HETATM   19  C   UNK N   1      -3.331  -2.072   0.168  0.00  0.00     0.050 A 
HETATM   20  C   UNK N   1      -4.555  -2.688  -0.173  0.00  0.00     0.049 A 
HETATM   21 Cl   UNK N   1      -4.661  -4.422  -0.453  0.00  0.00    -0.083 Cl
HETATM   22  C   UNK N   1      -5.727  -1.934  -0.259  0.00  0.00     0.025 A 
HETATM   23  C   UNK N   1      -5.704  -0.565  -0.005  0.00  0.00     0.004 A 
HETATM   24  C   UNK N   1      -4.507   0.058   0.345  0.00  0.00     0.030 A 
BRANCH  19  25
HETATM   25  C   UNK N   1      -2.129  -2.933   0.294  0.00  0.00     0.274 C 
HETATM   26  O   UNK N   1      -1.059  -2.517   0.704  0.00  0.00    -0.301 OA
ENDBRANCH  19  25
ENDBRANCH   1  18
TORSDOF 7
