REMARK  8 active torsions:
REMARK  status: ('A' for Active; 'I' for Inactive)
REMARK    1  A    between atoms: C_1  and  O_3 
REMARK    2  A    between atoms: C_1  and  C_4 
REMARK    3  A    between atoms: C_6  and  N_7 
REMARK    4  A    between atoms: C_10  and  C_11 
REMARK    5  A    between atoms: C_11  and  O_12 
REMARK    6  A    between atoms: C_11  and  C_16 
REMARK    7  A    between atoms: O_12  and  C_13 
REMARK    8  A    between atoms: C_16  and  O_18 
ROOT
HETATM    1  C   UNK N   1       0.436  -1.630   0.060  0.00  0.00     0.049 A 
HETATM    2  C   UNK N   1       0.141  -2.999  -0.097  0.00  0.00     0.048 A 
HETATM    3  C   UNK N   1      -1.161  -3.458  -0.251  0.00  0.00     0.026 A 
HETATM    4  C   UNK N   1      -2.212  -2.557  -0.279  0.00  0.00     0.029 A 
HETATM    5  C   UNK N   1      -1.959  -1.197  -0.136  0.00  0.00     0.013 A 
HETATM    6  C   UNK N   1      -0.655  -0.686   0.046  0.00  0.00    -0.002 A 
ENDROOT
BRANCH   6   7
HETATM    7  C   UNK N   1      -0.566   0.834   0.293  0.00  0.00     0.265 C 
BRANCH   7   8
HETATM    8  O   UNK N   1      -1.800   1.403  -0.016  0.00  0.00    -0.301 OA
BRANCH   8   9
HETATM    9  C   UNK N   1      -2.152   2.705   0.154  0.00  0.00     0.255 C 
HETATM   10  O   UNK N   1      -1.378   3.509   0.649  0.00  0.00    -0.266 OA
HETATM   11  C   UNK N   1      -3.502   3.157  -0.284  0.00  0.00     0.126 C 
ENDBRANCH   8   9
ENDBRANCH   7   8
BRANCH   7  12
HETATM   12  C   UNK N   1       0.506   1.572  -0.495  0.00  0.00     0.292 C 
HETATM   13  O   UNK N   1       0.501   1.513  -1.714  0.00  0.00    -0.262 OA
BRANCH  12  14
HETATM   14  O   UNK N   1       1.450   2.339   0.122  0.00  0.00    -0.324 OA
HETATM   15  C   UNK N   1       1.526   2.528   1.487  0.00  0.00     0.213 C 
ENDBRANCH  12  14
ENDBRANCH   7  12
ENDBRANCH   6   7
BRANCH   1  16
HETATM   16  C   UNK N   1       1.886  -1.322   0.219  0.00  0.00     0.176 C 
HETATM   17  O   UNK N   1       2.286  -0.188   0.405  0.00  0.00    -0.646 OA
BRANCH  16  18
HETATM   18  O   UNK N   1       2.790  -2.318   0.147  0.00  0.00    -0.773 OA
HETATM   19  H   UNK N   1       2.504  -3.209   0.097  0.00  0.00     0.167 HD
ENDBRANCH  16  18
ENDBRANCH   1  16
BRANCH   3  20
HETATM   20  N   UNK N   1      -1.413  -4.839  -0.372  0.00  0.00    -0.399 N 
HETATM   21  H   UNK N   1      -2.337  -5.169  -0.456  0.00  0.00     0.156 HD
HETATM   22  H   UNK N   1      -0.663  -5.476  -0.372  0.00  0.00     0.156 HD
ENDBRANCH   3  20
TORSDOF 8
