REMARK  7 active torsions:
REMARK  status: ('A' for Active; 'I' for Inactive)
REMARK       I    between atoms: N_1  and  C_2 
REMARK    1  A    between atoms: C_2  and  C_4 
REMARK    2  A    between atoms: C_4  and  C_5 
REMARK    3  A    between atoms: C_11  and  C_12 
REMARK    4  A    between atoms: C_12  and  C_13 
REMARK    5  A    between atoms: C_16  and  C_17 
REMARK    6  A    between atoms: C_17  and  C_18 
REMARK    7  A    between atoms: C_18  and  O_20 
ROOT
HETATM    1  C   UNK N   1      -2.833   0.566  -0.000  0.00  0.00     0.019 A 
HETATM    2  N   UNK N   1      -1.981  -0.482  -0.000  0.00  0.00    -0.358 N 
HETATM    3  C   UNK N   1      -0.753   0.049  -0.000  0.00  0.00     0.049 A 
HETATM    4  C   UNK N   1      -0.809   1.413   0.000  0.00  0.00    -0.006 A 
HETATM    5  C   UNK N   1      -2.140   1.780   0.000  0.00  0.00     0.039 A 
HETATM    6  C   UNK N   1       0.352   2.190   0.000  0.00  0.00     0.021 A 
HETATM    7  C   UNK N   1       1.596   1.520   0.000  0.00  0.00    -0.057 A 
HETATM    8  C   UNK N   1       1.631   0.102  -0.000  0.00  0.00     0.017 A 
HETATM    9  C   UNK N   1       0.444  -0.653  -0.000  0.00  0.00    -0.020 A 
HETATM   10  H   UNK N   1      -2.216  -1.438  -0.000  0.00  0.00     0.166 HD
ENDROOT
BRANCH   1  11
HETATM   11  C   UNK N   1      -4.332   0.427   0.000  0.00  0.00     0.159 C 
BRANCH  11  12
HETATM   12  C   UNK N   1      -4.872  -0.988   0.000  0.00  0.00     0.221 C 
HETATM   13  N   UNK N   1      -6.204  -1.182   0.000  0.00  0.00    -0.370 N 
HETATM   14  H   UNK N   1      -6.813  -0.409  -0.000  0.00  0.00     0.159 HD
HETATM   15  H   UNK N   1      -6.568  -2.096   0.000  0.00  0.00     0.159 HD
HETATM   16  O   UNK N   1      -4.129  -1.958   0.000  0.00  0.00    -0.273 OA
ENDBRANCH  11  12
ENDBRANCH   1  11
BRANCH   9  17
HETATM   17  C   UNK N   1       0.410  -2.162  -0.000  0.00  0.00     0.150 C 
BRANCH  17  18
HETATM   18  C   UNK N   1       1.703  -2.932  -0.000  0.00  0.00     0.143 C 
HETATM   19  O   UNK N   1       2.786  -2.369   0.000  0.00  0.00    -0.650 OA
BRANCH  18  20
HETATM   20  O   UNK N   1       1.658  -4.276  -0.000  0.00  0.00    -0.776 OA
HETATM   21  H   UNK N   1       0.831  -4.717  -0.000  0.00  0.00     0.167 HD
ENDBRANCH  18  20
ENDBRANCH  17  18
ENDBRANCH   9  17
BRANCH   7  22
HETATM   22  C   UNK N   1       2.867   2.323   0.000  0.00  0.00     0.038 C 
BRANCH  22  23
HETATM   23  C   UNK N   1       4.122   1.454   0.000  0.00  0.00     0.000 C 
HETATM   24  C   UNK N   1       5.361   2.322   0.000  0.00  0.00     0.005 C 
ENDBRANCH  22  23
ENDBRANCH   7  22
TORSDOF 7
