REMARK  7 active torsions:
REMARK  status: ('A' for Active; 'I' for Inactive)
REMARK    1  A    between atoms: C_3  and  C_4 
REMARK    2  A    between atoms: C_4  and  O_5 
REMARK    3  A    between atoms: O_5  and  C_6 
REMARK    4  A    between atoms: C_9  and  S_12 
REMARK    5  A    between atoms: S_12  and  N_15 
REMARK    6  A    between atoms: C_20  and  C_21 
REMARK       I    between atoms: C_21  and  N_23 
REMARK    7  A    between atoms: N_23  and  O_24 
ROOT
HETATM    1  C   UNK N   1      -1.982   8.366  -1.306  0.00  0.00     0.112 C 
HETATM    2  C   UNK N   1      -1.613   7.166  -0.554  0.00  0.00    -0.109 C 
HETATM    3  C   UNK N   1      -1.316   6.182   0.075  0.00  0.00    -0.080 C 
ENDROOT
BRANCH   3   4
HETATM    4  C   UNK N   1      -0.974   5.000   0.866  0.00  0.00     0.269 C 
BRANCH   4   5
HETATM    5  O   UNK N   1       0.310   4.590   0.581  0.00  0.00    -0.340 OA
BRANCH   5   6
HETATM    6  C   UNK N   1       0.640   3.293   0.374  0.00  0.00     0.070 A 
HETATM    7  C   UNK N   1       1.984   2.951   0.200  0.00  0.00     0.038 A 
HETATM    8  C   UNK N   1       2.352   1.613   0.025  0.00  0.00     0.027 A 
HETATM    9  C   UNK N   1       1.382   0.604   0.026  0.00  0.00     0.074 A 
HETATM   10  C   UNK N   1       0.040   0.945   0.180  0.00  0.00     0.027 A 
HETATM   11  C   UNK N   1      -0.335   2.279   0.357  0.00  0.00     0.038 A 
BRANCH   9  12
HETATM   12  S   UNK N   1       1.897  -1.101  -0.225  0.00  0.00     0.244 S 
HETATM   13  O   UNK N   1       2.264  -1.356  -1.696  0.00  0.00    -0.206 OA
HETATM   14  O   UNK N   1       3.301  -1.197   0.400  0.00  0.00    -0.206 OA
BRANCH  12  15
HETATM   15  N   UNK N   1       1.111  -2.607   0.366  0.00  0.00    -0.191 NA
HETATM   16  C   UNK N   1       2.076  -3.653  -0.014  0.00  0.00     0.118 C 
HETATM   17  C   UNK N   1       1.642  -5.040   0.386  0.00  0.00     0.090 C 
HETATM   18  S   UNK N   1       0.319  -5.517  -0.743  0.00  0.00    -0.156 SA
HETATM   19  C   UNK N   1      -0.800  -4.266  -0.043  0.00  0.00     0.026 C 
HETATM   20  C   UNK N   1      -0.232  -2.815  -0.252  0.00  0.00     0.186 C 
HETATM   21  C   UNK N   1      -2.120  -4.412  -0.788  0.00  0.00     0.029 C 
HETATM   22  C   UNK N   1      -1.071  -4.613   1.419  0.00  0.00     0.029 C 
BRANCH  20  23
HETATM   23  C   UNK N   1      -1.234  -1.829   0.321  0.00  0.00     0.261 C 
HETATM   24  O   UNK N   1      -1.420  -1.777   1.531  0.00  0.00    -0.270 OA
HETATM   25  N   UNK N   1      -1.961  -1.044  -0.505  0.00  0.00    -0.236 N 
HETATM   26  H   UNK N   1      -1.811  -1.090  -1.477  0.00  0.00     0.197 HD
BRANCH  25  27
HETATM   27  O   UNK N   1      -2.883  -0.203  -0.016  0.00  0.00    -0.287 OA
HETATM   28  H   UNK N   1      -2.689   0.679   0.338  0.00  0.00     0.244 HD
ENDBRANCH  25  27
ENDBRANCH  20  23
ENDBRANCH  12  15
ENDBRANCH   9  12
ENDBRANCH   5   6
ENDBRANCH   4   5
ENDBRANCH   3   4
TORSDOF 7
