REMARK  8 active torsions:
REMARK  status: ('A' for Active; 'I' for Inactive)
REMARK    1  A    between atoms: N_6  and  C_14 
REMARK    2  A    between atoms: C_7  and  N_13 
REMARK    3  A    between atoms: N_13  and  C_20 
REMARK    4  A    between atoms: C_25  and  O_26 
REMARK    5  A    between atoms: O_26  and  C_27 
REMARK    6  A    between atoms: C_27  and  C_29 
REMARK    7  A    between atoms: C_29  and  C_30 
REMARK    8  A    between atoms: C_30  and  N_31 
ROOT
HETATM    1  C   UNK N   1       2.287  -0.464  -0.112  0.00  0.00     0.185 A 
HETATM    2  N   UNK N   1       3.191  -1.484  -0.009  0.00  0.00    -0.346 N 
ATOM      3  HN  UNK N   1       3.004  -2.486   0.029  1.00  0.00     0.167 HD
HETATM    4  C   UNK N   1       4.387  -0.862   0.030  0.00  0.00     0.122 A 
HETATM    5  C   UNK N   1       4.210   0.470  -0.014  0.00  0.00     0.142 A 
HETATM    6  N   UNK N   1       2.907   0.748  -0.105  0.00  0.00    -0.322 N 
HETATM    7  C   UNK N   1       5.678  -1.370   0.049  0.00  0.00     0.139 A 
HETATM    8  N   UNK N   1       5.247   1.351  -0.033  0.00  0.00    -0.318 N 
ATOM      9  HN  UNK N   1       5.081   2.356  -0.080  1.00  0.00     0.169 HD
HETATM   10  N   UNK N   1       6.708  -0.488   0.049  0.00  0.00    -0.318 N 
ATOM     11  HN  UNK N   1       7.663  -0.845   0.077  1.00  0.00     0.169 HD
HETATM   12  C   UNK N   1       6.512   0.849   0.013  0.00  0.00     0.191 A 
HETATM   13  N   UNK N   1       8.627   2.332  -0.002  0.00  0.00    -0.188 NA
HETATM   14  C   UNK N   1       7.662   1.696   0.004  0.00  0.00     0.137 C 
ENDROOT
BRANCH   7  15
HETATM   15  N   UNK N   1       5.943  -2.748   0.041  0.00  0.00    -0.338 N 
HETATM   16  H   UNK N   1       5.179  -3.368   0.052  0.00  0.00     0.167 HD
BRANCH  15  17
HETATM   17  C   UNK N   1       7.261  -3.301   0.018  0.00  0.00     0.067 A 
HETATM   18  C   UNK N   1       8.411  -2.518  -0.181  0.00  0.00     0.032 A 
HETATM   19  C   UNK N   1       9.677  -3.102  -0.166  0.00  0.00     0.002 A 
HETATM   20  C   UNK N   1       9.809  -4.467   0.088  0.00  0.00     0.003 A 
HETATM   21  C   UNK N   1       8.673  -5.253   0.275  0.00  0.00     0.039 A 
HETATM   22  C   UNK N   1       7.408  -4.675   0.209  0.00  0.00     0.095 A 
BRANCH  22  23
HETATM   23  O   UNK N   1       6.332  -5.463   0.253  0.00  0.00    -0.349 OA
BRANCH  23  24
HETATM   24  C   UNK N   1       5.387  -5.328  -0.740  0.00  0.00     0.177 C 
BRANCH  24  25
HETATM   25  C   UNK N   1       4.027  -5.575  -0.194  0.00  0.00     0.047 C 
BRANCH  25  26
HETATM   26  C   UNK N   1       4.077  -6.972   0.360  0.00  0.00     0.131 C 
BRANCH  26  27
HETATM   27  N   UNK N   1       2.832  -7.659   0.143  0.00  0.00    -0.352 N 
HETATM   28  C   UNK N   1       2.700  -8.987   0.071  0.00  0.00     0.182 A 
HETATM   29  N   UNK N   1       1.408  -9.327  -0.073  0.00  0.00    -0.361 N 
HETATM   30  C   UNK N   1       0.717  -8.167  -0.084  0.00  0.00     0.106 A 
ATOM     31  HN  UNK N   1       1.028 -10.270  -0.157  1.00  0.00     0.166 HD
HETATM   32  C   UNK N   1       1.605  -7.125   0.056  0.00  0.00     0.108 A 
ENDBRANCH  26  27
ENDBRANCH  25  26
ENDBRANCH  24  25
ENDBRANCH  23  24
ENDBRANCH  22  23
ENDBRANCH  15  17
ENDBRANCH   7  15
BRANCH   6  33
HETATM   33  C   UNK N   1       2.335   2.068  -0.386  0.00  0.00     0.092 C 
HETATM   34  C   UNK N   1       1.009   2.353   0.255  0.00  0.00     0.026 C 
HETATM   35  C   UNK N   1       0.887   3.861   0.080  0.00  0.00     0.002 C 
HETATM   36  C   UNK N   1       2.308   4.410   0.011  0.00  0.00     0.002 C 
HETATM   37  C   UNK N   1       3.208   3.206   0.095  0.00  0.00     0.026 C 
ENDBRANCH   6  33
TORSDOF 8
