REMARK  4 active torsions:
REMARK  status: ('A' for Active; 'I' for Inactive)
REMARK    1  A    between atoms: O_2  and  C_3 
REMARK    2  A    between atoms: C_6  and  O_7 
REMARK    3  A    between atoms: C_9  and  N_10 
REMARK       I    between atoms: N_10  and  C_11 
REMARK       I    between atoms: C_11  and  N_13 
REMARK       I    between atoms: N_13  and  C_14 
REMARK    4  A    between atoms: C_14  and  C_16 
ROOT
HETATM    1  N   UNK N   1      -0.603  -0.104  -0.002  0.00  0.00    -0.306 N 
HETATM    2  C   UNK N   1       0.548   0.614   0.001  0.00  0.00     0.327 C 
HETATM    3  O   UNK N   1       0.534   1.838   0.005  0.00  0.00    -0.247 OA
HETATM    4  N   UNK N   1       1.715  -0.070  -0.001  0.00  0.00    -0.275 N 
HETATM    5  C   UNK N   1       2.973   0.435   0.001  0.00  0.00     0.261 C 
HETATM    6  O   UNK N   1       3.159   1.645   0.003  0.00  0.00    -0.267 OA
HETATM    7  H   UNK N   1      -0.506  -1.084  -0.004  0.00  0.00     0.171 HD
HETATM    8  H   UNK N   1       1.642  -1.052  -0.003  0.00  0.00     0.173 HD
ENDROOT
BRANCH   1   9
HETATM    9  C   UNK N   1      -1.932   0.397  -0.001  0.00  0.00     0.072 A 
HETATM   10  C   UNK N   1      -2.997  -0.519   0.000  0.00  0.00     0.095 A 
HETATM   11  C   UNK N   1      -4.320  -0.043   0.001  0.00  0.00     0.042 A 
HETATM   12  C   UNK N   1      -4.576   1.330  -0.001  0.00  0.00     0.039 A 
HETATM   13  C   UNK N   1      -3.515   2.238  -0.002  0.00  0.00     0.068 A 
HETATM   14  C   UNK N   1      -2.200   1.774  -0.002  0.00  0.00     0.069 A 
BRANCH  10  15
HETATM   15  O   UNK N   1      -2.727  -1.849   0.001  0.00  0.00    -0.354 OA
HETATM   16  C   UNK N   1      -3.701  -2.822   0.003  0.00  0.00     0.210 C 
ENDBRANCH  10  15
BRANCH  13  17
HETATM   17  O   UNK N   1      -3.759   3.557  -0.003  0.00  0.00    -0.361 OA
HETATM   18  H   UNK N   1      -3.047   4.166  -0.004  0.00  0.00     0.217 HD
ENDBRANCH  13  17
ENDBRANCH   1   9
BRANCH   5  19
HETATM   19  C   UNK N   1       4.135  -0.497   0.000  0.00  0.00     0.054 A 
HETATM   20  C   UNK N   1       5.429   0.050   0.001  0.00  0.00     0.022 A 
HETATM   21  C   UNK N   1       6.555  -0.774   0.000  0.00  0.00     0.043 A 
HETATM   22  C   UNK N   1       6.406  -2.160  -0.000  0.00  0.00     0.118 A 
HETATM   23  F   UNK N   1       7.497  -2.962  -0.000  0.00  0.00    -0.206 F 
HETATM   24  C   UNK N   1       5.135  -2.724  -0.001  0.00  0.00     0.067 A 
HETATM   25  C   UNK N   1       3.996  -1.918  -0.001  0.00  0.00     0.052 A 
HETATM   26 Cl   UNK N   1       2.448  -2.762  -0.001  0.00  0.00    -0.083 Cl
ENDBRANCH   5  19
TORSDOF 4
