REMARK  4 active torsions:
REMARK  status: ('A' for Active; 'I' for Inactive)
REMARK    1  A    between atoms: C_4  and  C_7 
REMARK    2  A    between atoms: C_5  and  O_20 
REMARK    3  A    between atoms: C_10  and  C_17 
REMARK    4  A    between atoms: C_11  and  N_13 
ROOT
HETATM    1  C   UNK N   1      -3.061   0.475   0.006  0.00  0.00     0.004 A 
HETATM    2  C   UNK N   1      -1.858   1.225   0.021  0.00  0.00     0.072 A 
HETATM    3  C   UNK N   1      -4.276   1.172  -0.100  0.00  0.00     0.030 A 
HETATM    4  C   UNK N   1      -4.308   2.572  -0.198  0.00  0.00     0.051 A 
HETATM    5  C   UNK N   1       0.508   1.293   0.218  0.00  0.00     0.119 A 
HETATM    6  C   UNK N   1       0.483   2.685   0.045  0.00  0.00     0.137 A 
HETATM    7  C   UNK N   1      -3.106   3.294  -0.218  0.00  0.00     0.048 A 
HETATM    8  C   UNK N   1      -1.886   2.627  -0.111  0.00  0.00     0.060 A 
HETATM    9  N   UNK N   1      -0.712   3.321  -0.112  0.00  0.00    -0.360 N 
ATOM     10  HN  UNK N   1      -0.729   4.334  -0.232  1.00  0.00     0.165 HD
HETATM   11  N   UNK N   1      -0.664   0.614   0.186  0.00  0.00    -0.339 N 
ATOM     12  HN  UNK N   1      -0.645  -0.400   0.291  1.00  0.00     0.167 HD
ENDROOT
BRANCH   1  13
HETATM   13  C   UNK N   1      -3.075  -1.023   0.108  0.00  0.00    -0.021 A 
HETATM   14  C   UNK N   1      -4.294  -1.723   0.138  0.00  0.00     0.012 A 
HETATM   15  C   UNK N   1      -4.311  -3.120   0.228  0.00  0.00     0.004 A 
HETATM   16  C   UNK N   1      -3.111  -3.836   0.282  0.00  0.00     0.036 A 
HETATM   17  C   UNK N   1      -1.894  -3.155   0.247  0.00  0.00     0.066 A 
HETATM   18  C   UNK N   1      -1.881  -1.765   0.161  0.00  0.00     0.049 A 
BRANCH  17  19
HETATM   19  O   UNK N   1      -0.737  -3.835   0.295  0.00  0.00    -0.361 OA
HETATM   20  H   UNK N   1      -0.743  -4.771   0.329  0.00  0.00     0.217 HD
ENDBRANCH  17  19
ENDBRANCH   1  13
BRANCH   4  21
HETATM   21  C   UNK N   1      -5.619   3.303  -0.246  0.00  0.00     0.417 C 
HETATM   22  F   UNK N   1      -5.711   4.147   0.847  0.00  0.00    -0.166 F 
HETATM   23  F   UNK N   1      -5.698   4.053  -1.404  0.00  0.00    -0.166 F 
HETATM   24  F   UNK N   1      -6.686   2.420  -0.211  0.00  0.00    -0.166 F 
ENDBRANCH   4  21
BRANCH   5  25
HETATM   25  N   UNK N   1       1.707   0.581   0.493  0.00  0.00    -0.363 N 
HETATM   26  C   UNK N   1       3.009   1.208   0.436  0.00  0.00     0.154 C 
HETATM   27  C   UNK N   1       3.937   0.320  -0.402  0.00  0.00     0.291 C 
HETATM   28  N   UNK N   1       3.933  -1.049   0.125  0.00  0.00     0.087 N 
HETATM   29  C   UNK N   1       2.590  -1.611  -0.000  0.00  0.00     0.291 C 
HETATM   30  C   UNK N   1       4.809  -1.849  -0.709  0.00  0.00     0.310 C 
HETATM   31  C   UNK N   1       1.637  -0.813   0.874  0.00  0.00     0.154 C 
ENDBRANCH   5  25
TORSDOF 4
