REMARK  6 active torsions:
REMARK  status: ('A' for Active; 'I' for Inactive)
REMARK    1  A    between atoms: C_2  and  C_5 
REMARK    2  A    between atoms: C_10  and  N_11 
REMARK       I    between atoms: N_11  and  C_12 
REMARK    3  A    between atoms: C_12  and  C_14 
REMARK    4  A    between atoms: C_20  and  N_21 
REMARK    5  A    between atoms: N_21  and  C_22 
REMARK    6  A    between atoms: C_28  and  C_29 
REMARK       I    between atoms: C_29  and  N_31 
ROOT
HETATM    1  C   UNK N   1      -0.710  -0.867   0.400  0.00  0.00     0.034 A 
HETATM    2  C   UNK N   1       0.520  -0.235   0.195  0.00  0.00     0.047 A 
HETATM    3  C   UNK N   1      -1.000  -2.053  -0.287  0.00  0.00     0.018 A 
HETATM    4  C   UNK N   1      -0.064  -2.606  -1.162  0.00  0.00     0.010 A 
HETATM    5  C   UNK N   1       1.153  -1.958  -1.387  0.00  0.00    -0.035 A 
HETATM    6  C   UNK N   1       2.113  -2.533  -2.369  0.00  0.00     0.050 C 
HETATM    7  C   UNK N   1       1.449  -0.771  -0.696  0.00  0.00     0.039 A 
ENDROOT
BRANCH   1   8
HETATM    8  C   UNK N   1      -1.776  -0.136   1.096  0.00  0.00     0.256 C 
HETATM    9  N   UNK N   1      -3.061  -0.525   0.884  0.00  0.00    -0.323 N 
HETATM   10  H   UNK N   1      -3.269  -1.487   0.868  0.00  0.00     0.169 HD
HETATM   11  O   UNK N   1      -1.528   0.942   1.620  0.00  0.00    -0.267 OA
BRANCH   9  12
HETATM   12  C   UNK N   1      -4.113   0.405   0.685  0.00  0.00     0.035 A 
HETATM   13  C   UNK N   1      -3.809   1.723   0.317  0.00  0.00     0.045 A 
HETATM   14  C   UNK N   1      -4.793   2.593  -0.139  0.00  0.00     0.050 A 
HETATM   15  C   UNK N   1      -6.116   2.140  -0.232  0.00  0.00     0.016 A 
HETATM   16  C   UNK N   1      -6.435   0.826   0.136  0.00  0.00     0.003 A 
HETATM   17  C   UNK N   1      -5.430  -0.048   0.570  0.00  0.00     0.029 A 
BRANCH  14  18
HETATM   18  C   UNK N   1      -4.392   3.973  -0.568  0.00  0.00     0.417 C 
HETATM   19  F   UNK N   1      -3.426   3.884  -1.556  0.00  0.00    -0.166 F 
HETATM   20  F   UNK N   1      -5.473   4.677  -1.066  0.00  0.00    -0.166 F 
HETATM   21  F   UNK N   1      -3.865   4.657   0.512  0.00  0.00    -0.166 F 
ENDBRANCH  14  18
ENDBRANCH   9  12
ENDBRANCH   1   8
BRANCH   7  22
HETATM   22  N   UNK N   1       2.659  -0.077  -0.927  0.00  0.00    -0.355 N 
HETATM   23  H   UNK N   1       2.717   0.539  -1.693  0.00  0.00     0.166 HD
BRANCH  22  24
HETATM   24  C   UNK N   1       3.786  -0.243  -0.092  0.00  0.00     0.049 A 
HETATM   25  C   UNK N   1       4.891   0.590  -0.255  0.00  0.00     0.049 A 
HETATM   26  C   UNK N   1       6.014   0.429   0.563  0.00  0.00     0.049 A 
HETATM   27  C   UNK N   1       6.006  -0.584   1.532  0.00  0.00     0.104 A 
HETATM   28  N   UNK N   1       4.920  -1.389   1.676  0.00  0.00    -0.372 N 
HETATM   29  C   UNK N   1       3.819  -1.238   0.894  0.00  0.00     0.117 A 
ATOM     30  HN  UNK N   1       4.932  -2.121   2.385  1.00  0.00     0.164 HD
BRANCH  26  31
HETATM   31  C   UNK N   1       7.185   1.315   0.411  0.00  0.00     0.250 C 
HETATM   32  O   UNK N   1       7.177   2.208  -0.422  0.00  0.00    -0.268 OA
HETATM   33  N   UNK N   1       8.270   1.151   1.196  0.00  0.00    -0.366 N 
HETATM   34  H   UNK N   1       8.561   0.405   1.769  0.00  0.00     0.159 HD
HETATM   35  H   UNK N   1       8.884   1.919   1.196  0.00  0.00     0.159 HD
ENDBRANCH  26  31
ENDBRANCH  22  24
ENDBRANCH   7  22
TORSDOF 6
