REMARK  5 active torsions:
REMARK  status: ('A' for Active; 'I' for Inactive)
REMARK    1  A    between atoms: C_5  and  N_6 
REMARK    2  A    between atoms: N_10  and  C_13 
REMARK    3  A    between atoms: C_16  and  S_19 
REMARK    4  A    between atoms: S_19  and  C_20 
REMARK    5  A    between atoms: C_23  and  N_24 
ROOT
HETATM    1  C   UNK N   1       0.289  -1.192   0.208  0.00  0.00     0.046 A 
HETATM    2  C   UNK N   1      -0.326  -2.309  -0.387  0.00  0.00     0.031 A 
HETATM    3  C   UNK N   1      -1.724  -2.400  -0.443  0.00  0.00     0.021 A 
HETATM    4  C   UNK N   1      -2.517  -1.395   0.125  0.00  0.00     0.005 A 
HETATM    5  C   UNK N   1      -1.905  -0.321   0.774  0.00  0.00     0.021 A 
HETATM    6  C   UNK N   1      -0.521  -0.211   0.796  0.00  0.00     0.031 A 
ENDROOT
BRANCH   1   7
HETATM    7  N   UNK N   1       1.710  -1.011   0.158  0.00  0.00    -0.244 N 
HETATM    8  C   UNK N   1       2.356   0.174   0.332  0.00  0.00     0.266 A 
HETATM    9  O   UNK N   1       1.805   1.244   0.551  0.00  0.00    -0.267 OA
HETATM   10  C   UNK N   1       3.787  -0.016   0.163  0.00  0.00     0.050 A 
HETATM   11  C   UNK N   1       4.845   0.885   0.215  0.00  0.00     0.047 A 
HETATM   12  C   UNK N   1       3.977  -1.352  -0.102  0.00  0.00     0.048 A 
HETATM   13  C   UNK N   1       6.140   0.387  -0.005  0.00  0.00     0.026 A 
HETATM   14  C   UNK N   1       6.342  -0.989  -0.263  0.00  0.00     0.030 A 
HETATM   15  C   UNK N   1       5.249  -1.877  -0.316  0.00  0.00     0.020 A 
HETATM   16  C   UNK N   1       2.646  -1.962  -0.108  0.00  0.00     0.266 A 
HETATM   17  O   UNK N   1       2.401  -3.143  -0.307  0.00  0.00    -0.267 OA
BRANCH  13  18
HETATM   18  N   UNK N   1       7.240   1.265   0.029  0.00  0.00    -0.399 N 
HETATM   19  H   UNK N   1       8.156   0.906   0.052  0.00  0.00     0.156 HD
HETATM   20  H   UNK N   1       7.093   2.239   0.029  0.00  0.00     0.156 HD
ENDBRANCH  13  18
ENDBRANCH   1   7
BRANCH   4  21
HETATM   21  S   UNK N   1      -4.311  -1.455  -0.059  0.00  0.00    -0.091 SA
BRANCH  21  22
HETATM   22  C   UNK N   1      -4.592   0.329  -0.165  0.00  0.00     0.005 A 
HETATM   23  C   UNK N   1      -5.587   0.913   0.625  0.00  0.00     0.021 A 
HETATM   24  C   UNK N   1      -5.784   2.298   0.600  0.00  0.00     0.030 A 
HETATM   25  C   UNK N   1      -4.978   3.105  -0.207  0.00  0.00     0.025 A 
HETATM   26  C   UNK N   1      -3.989   2.527  -1.008  0.00  0.00     0.030 A 
HETATM   27  C   UNK N   1      -3.801   1.141  -0.994  0.00  0.00     0.021 A 
BRANCH  25  28
HETATM   28  N   UNK N   1      -5.160   4.502  -0.212  0.00  0.00    -0.399 N 
HETATM   29  H   UNK N   1      -4.378   5.100  -0.215  0.00  0.00     0.156 HD
HETATM   30  H   UNK N   1      -6.069   4.880  -0.212  0.00  0.00     0.156 HD
ENDBRANCH  25  28
ENDBRANCH  21  22
ENDBRANCH   4  21
TORSDOF 5
