REMARK  2 active torsions:
REMARK  status: ('A' for Active; 'I' for Inactive)
REMARK    1  A    between atoms: C_1  and  N_11 
REMARK    2  A    between atoms: N_7  and  C_16 
ROOT
HETATM    1  C   UNK N   1       2.500  -2.537  -0.000  0.00  0.00     0.028 A 
HETATM    2  C   UNK N   1       1.253  -3.196   0.000  0.00  0.00     0.060 A 
HETATM    3  C   UNK N   1       0.107  -2.404   0.000  0.00  0.00     0.062 A 
HETATM    4  C   UNK N   1       0.168  -1.048  -0.000  0.00  0.00     0.067 A 
HETATM    5  C   UNK N   1       1.383  -0.363  -0.000  0.00  0.00     0.035 A 
HETATM    6  N   UNK N   1      -1.084  -0.557   0.000  0.00  0.00    -0.306 N 
HETATM    7  C   UNK N   1      -1.896  -1.646   0.000  0.00  0.00     0.189 A 
HETATM    8  N   UNK N   1      -1.178  -2.803   0.000  0.00  0.00    -0.350 N 
ATOM      9  HN  UNK N   1      -1.535  -3.759   0.000  1.00  0.00     0.166 HD
HETATM   10  C   UNK N   1       2.562  -1.125  -0.000  0.00  0.00     0.031 A 
ENDROOT
BRANCH   6  11
HETATM   11  C   UNK N   1      -1.492   0.826  -0.000  0.00  0.00     0.041 A 
HETATM   12  C   UNK N   1      -0.530   1.847  -0.000  0.00  0.00     0.036 A 
HETATM   13  C   UNK N   1      -0.911   3.187  -0.000  0.00  0.00    -0.060 A 
HETATM   14  C   UNK N   1       0.130   4.247  -0.000  0.00  0.00     0.048 C 
HETATM   15  C   UNK N   1      -2.265   3.525  -0.000  0.00  0.00     0.007 A 
HETATM   16  C   UNK N   1      -3.236   2.518   0.000  0.00  0.00     0.003 A 
HETATM   17  C   UNK N   1      -2.853   1.172   0.000  0.00  0.00     0.030 A 
ENDBRANCH   6  11
BRANCH   1  18
HETATM   18  N   UNK N   1       3.692  -3.286  -0.000  0.00  0.00    -0.399 N 
HETATM   19  H   UNK N   1       3.655  -4.270  -0.000  0.00  0.00     0.156 HD
HETATM   20  H   UNK N   1       4.562  -2.826  -0.000  0.00  0.00     0.156 HD
ENDBRANCH   1  18
TORSDOF 2
