REMARK  8 active torsions:
REMARK  status: ('A' for Active; 'I' for Inactive)
REMARK    1  A    between atoms: C_2  and  O_21 
REMARK    2  A    between atoms: C_6  and  C_18 
REMARK    3  A    between atoms: C_8  and  C_11 
REMARK       I    between atoms: C_8  and  N_20 
REMARK    4  A    between atoms: C_18  and  C_19 
REMARK       I    between atoms: C_19  and  N_26 
REMARK    5  A    between atoms: O_24  and  C_28 
REMARK    6  A    between atoms: C_27  and  N_26 
REMARK    7  A    between atoms: C_27  and  C_28 
REMARK    8  A    between atoms: C_27  and  C_29 
ROOT
HETATM    1  C   UNK N   1       2.024   0.050  -0.021  0.00  0.00     0.051 A 
HETATM    2  C   UNK N   1       2.387  -1.287   0.219  0.00  0.00     0.069 A 
HETATM    3  C   UNK N   1       1.377  -2.267   0.372  0.00  0.00     0.039 A 
HETATM    4  C   UNK N   1       0.026  -1.916   0.271  0.00  0.00     0.034 A 
HETATM    5  C   UNK N   1       0.044   1.576  -0.297  0.00  0.00    -0.014 A 
HETATM    6  C   UNK N   1      -1.321   1.317  -0.274  0.00  0.00     0.024 A 
HETATM    7  C   UNK N   1      -2.817  -0.617  -0.037  0.00  0.00     0.263 C 
HETATM    8  C   UNK N   1      -0.315  -0.590   0.002  0.00  0.00     0.053 A 
HETATM    9  C   UNK N   1       0.667   0.364  -0.115  0.00  0.00     0.003 A 
HETATM   10  C   UNK N   1      -2.370   2.372  -0.433  0.00  0.00     0.069 C 
HETATM   11  N   UNK N   1      -1.552  -0.023  -0.110  0.00  0.00    -0.281 N 
HETATM   12  O   UNK N   1      -3.805   0.097   0.066  0.00  0.00    -0.267 OA
ENDROOT
BRANCH   5  13
HETATM   13  C   UNK N   1       0.694   2.919  -0.467  0.00  0.00     0.144 C 
BRANCH  13  14
HETATM   14  C   UNK N   1       1.520   3.277   0.737  0.00  0.00     0.222 C 
HETATM   15  O   UNK N   1       0.980   3.344   1.829  0.00  0.00    -0.273 OA
HETATM   16  N   UNK N   1       2.857   3.500   0.645  0.00  0.00    -0.354 N 
HETATM   17  H   UNK N   1       3.353   3.650   1.482  0.00  0.00     0.162 HD
BRANCH  16  18
HETATM   18  C   UNK N   1       3.606   3.531  -0.599  0.00  0.00     0.107 C 
BRANCH  18  19
HETATM   19  C   UNK N   1       4.561   4.725  -0.599  0.00  0.00     0.189 C 
BRANCH  19  20
HETATM   20  O   UNK N   1       5.434   4.683   0.491  0.00  0.00    -0.399 OA
HETATM   21  H   UNK N   1       5.712   4.144   1.248  0.00  0.00     0.209 HD
ENDBRANCH  19  20
ENDBRANCH  18  19
BRANCH  18  22
HETATM   22  C   UNK N   1       4.340   2.206  -0.827  0.00  0.00     0.023 C 
HETATM   23  C   UNK N   1       5.220   1.786   0.340  0.00  0.00     0.007 C 
ENDBRANCH  18  22
ENDBRANCH  16  18
ENDBRANCH  13  14
ENDBRANCH   5  13
BRANCH   7  24
HETATM   24  C   UNK N   1      -3.053  -2.093  -0.092  0.00  0.00     0.033 A 
HETATM   25  C   UNK N   1      -2.224  -2.940  -0.840  0.00  0.00     0.018 A 
HETATM   26  C   UNK N   1      -2.477  -4.309  -0.922  0.00  0.00     0.025 A 
HETATM   27  C   UNK N   1      -3.585  -4.849  -0.272  0.00  0.00     0.034 A 
HETATM   28  C   UNK N   1      -4.452  -4.014   0.439  0.00  0.00     0.025 A 
HETATM   29 Cl   UNK N   1      -3.885  -6.570  -0.355  0.00  0.00    -0.084 Cl
HETATM   30  C   UNK N   1      -4.197  -2.639   0.513  0.00  0.00     0.018 A 
ENDBRANCH   7  24
BRANCH   2  31
HETATM   31  O   UNK N   1       3.698  -1.611   0.307  0.00  0.00    -0.356 OA
HETATM   32  C   UNK N   1       4.140  -2.895   0.538  0.00  0.00     0.210 C 
ENDBRANCH   2  31
TORSDOF 8
