REMARK  8 active torsions:
REMARK  status: ('A' for Active; 'I' for Inactive)
REMARK    1  A    between atoms: C_2  and  O_21 
REMARK    2  A    between atoms: C_6  and  C_18 
REMARK    3  A    between atoms: C_8  and  C_11 
REMARK       I    between atoms: C_8  and  N_20 
REMARK    4  A    between atoms: C_18  and  C_19 
REMARK       I    between atoms: C_19  and  N_26 
REMARK    5  A    between atoms: O_24  and  C_28 
REMARK    6  A    between atoms: C_27  and  N_26 
REMARK    7  A    between atoms: C_27  and  C_28 
REMARK    8  A    between atoms: C_27  and  C_29 
ROOT
HETATM    1  C   UNK N   1       1.687   0.086   0.336  0.00  0.00     0.051 A 
HETATM    2  C   UNK N   1       2.120  -1.232   0.112  0.00  0.00     0.069 A 
HETATM    3  C   UNK N   1       1.168  -2.240  -0.162  0.00  0.00     0.039 A 
HETATM    4  C   UNK N   1      -0.198  -1.935  -0.196  0.00  0.00     0.034 A 
HETATM    5  C   UNK N   1      -0.357   1.546   0.412  0.00  0.00    -0.014 A 
HETATM    6  C   UNK N   1      -1.703   1.246   0.238  0.00  0.00     0.024 A 
HETATM    7  C   UNK N   1      -3.104  -0.738  -0.145  0.00  0.00     0.263 C 
HETATM    8  C   UNK N   1      -0.612  -0.626   0.057  0.00  0.00     0.053 A 
HETATM    9  C   UNK N   1       0.320   0.355   0.290  0.00  0.00     0.003 A 
HETATM   10  C   UNK N   1      -2.798   2.264   0.298  0.00  0.00     0.069 C 
HETATM   11  N   UNK N   1      -1.872  -0.101   0.047  0.00  0.00    -0.281 N 
HETATM   12  O   UNK N   1      -4.101  -0.058  -0.341  0.00  0.00    -0.267 OA
ENDROOT
BRANCH   5  13
HETATM   13  C   UNK N   1       0.231   2.907   0.669  0.00  0.00     0.144 C 
BRANCH  13  14
HETATM   14  C   UNK N   1       1.469   3.143  -0.139  0.00  0.00     0.222 C 
HETATM   15  O   UNK N   1       1.432   3.045  -1.358  0.00  0.00    -0.273 OA
HETATM   16  N   UNK N   1       2.627   3.453   0.498  0.00  0.00    -0.354 N 
HETATM   17  H   UNK N   1       2.602   3.592   1.473  0.00  0.00     0.162 HD
BRANCH  16  18
HETATM   18  C   UNK N   1       3.897   3.590  -0.184  0.00  0.00     0.107 C 
BRANCH  18  19
HETATM   19  C   UNK N   1       4.890   4.284   0.742  0.00  0.00     0.189 C 
BRANCH  19  20
HETATM   20  O   UNK N   1       6.104   4.497   0.086  0.00  0.00    -0.399 OA
HETATM   21  H   UNK N   1       6.654   3.841  -0.371  0.00  0.00     0.209 HD
ENDBRANCH  19  20
ENDBRANCH  18  19
BRANCH  18  22
HETATM   22  C   UNK N   1       4.424   2.216  -0.616  0.00  0.00     0.023 C 
HETATM   23  C   UNK N   1       4.709   1.307   0.573  0.00  0.00     0.007 C 
ENDBRANCH  18  22
ENDBRANCH  16  18
ENDBRANCH  13  14
ENDBRANCH   5  13
BRANCH   7  24
HETATM   24  C   UNK N   1      -3.296  -2.222  -0.095  0.00  0.00     0.033 A 
HETATM   25  C   UNK N   1      -2.488  -3.038   0.710  0.00  0.00     0.018 A 
HETATM   26  C   UNK N   1      -2.700  -4.413   0.787  0.00  0.00     0.025 A 
HETATM   27  C   UNK N   1      -3.748  -4.994   0.077  0.00  0.00     0.034 A 
HETATM   28  C   UNK N   1      -4.599  -4.192  -0.689  0.00  0.00     0.025 A 
HETATM   29 Cl   UNK N   1      -3.994  -6.724   0.157  0.00  0.00    -0.084 Cl
HETATM   30  C   UNK N   1      -4.384  -2.809  -0.761  0.00  0.00     0.018 A 
ENDBRANCH   7  24
BRANCH   2  31
HETATM   31  O   UNK N   1       3.444  -1.507   0.152  0.00  0.00    -0.356 OA
HETATM   32  C   UNK N   1       3.957  -2.766  -0.062  0.00  0.00     0.210 C 
ENDBRANCH   2  31
TORSDOF 8
