REMARK  5 active torsions:
REMARK  status: ('A' for Active; 'I' for Inactive)
REMARK       I    between atoms: N_1  and  C_10 
REMARK    1  A    between atoms: C_3  and  C_18 
REMARK    2  A    between atoms: C_6  and  O_22 
REMARK    3  A    between atoms: C_10  and  C_11 
REMARK    4  A    between atoms: C_18  and  C_19 
REMARK    5  A    between atoms: C_19  and  O_24 
ROOT
HETATM    1  N   UNK N   1       0.183  -0.461   0.171  0.00  0.00    -0.281 N 
HETATM    2  C   UNK N   1      -0.606   0.626   0.472  0.00  0.00     0.024 A 
HETATM    3  C   UNK N   1       0.169   1.779   0.540  0.00  0.00    -0.013 A 
HETATM    4  C   UNK N   1       1.460   1.391   0.299  0.00  0.00     0.003 A 
HETATM    5  C   UNK N   1       2.634   2.141   0.283  0.00  0.00     0.051 A 
HETATM    6  C   UNK N   1       3.847   1.474   0.039  0.00  0.00     0.069 A 
HETATM    7  C   UNK N   1       3.843   0.073  -0.191  0.00  0.00     0.039 A 
HETATM    8  C   UNK N   1       2.640  -0.655  -0.171  0.00  0.00     0.034 A 
HETATM    9  C   UNK N   1       1.450   0.036   0.088  0.00  0.00     0.053 A 
HETATM   10  C   UNK N   1      -0.144  -1.814   0.020  0.00  0.00     0.263 C 
HETATM   11  C   UNK N   1      -2.057   0.634   0.812  0.00  0.00     0.069 C 
HETATM   12  O   UNK N   1       0.762  -2.636  -0.042  0.00  0.00    -0.267 OA
ENDROOT
BRANCH  10  13
HETATM   13  C   UNK N   1      -1.536  -2.350  -0.090  0.00  0.00     0.033 A 
HETATM   14  C   UNK N   1      -1.783  -3.693   0.247  0.00  0.00     0.018 A 
HETATM   15  C   UNK N   1      -3.065  -4.237   0.117  0.00  0.00     0.019 A 
HETATM   16  C   UNK N   1      -4.108  -3.454  -0.382  0.00  0.00     0.006 A 
HETATM   17  C   UNK N   1      -3.865  -2.137  -0.768  0.00  0.00     0.019 A 
HETATM   18  I   UNK N   1      -6.046  -4.252  -0.556  0.00  0.00    -0.045 I 
HETATM   19  C   UNK N   1      -2.585  -1.597  -0.632  0.00  0.00     0.018 A 
ENDBRANCH  10  13
BRANCH   3  20
HETATM   20  C   UNK N   1      -0.286   3.172   0.877  0.00  0.00     0.151 C 
BRANCH  20  21
HETATM   21  C   UNK N   1      -1.317   3.740  -0.062  0.00  0.00     0.143 C 
HETATM   22  O   UNK N   1      -1.787   3.069  -0.968  0.00  0.00    -0.650 OA
BRANCH  21  23
HETATM   23  O   UNK N   1      -1.732   5.008   0.108  0.00  0.00    -0.776 OA
HETATM   24  H   UNK N   1      -1.112   5.700   0.226  0.00  0.00     0.167 HD
ENDBRANCH  21  23
ENDBRANCH  20  21
ENDBRANCH   3  20
BRANCH   6  25
HETATM   25  O   UNK N   1       4.997   2.189   0.041  0.00  0.00    -0.356 OA
HETATM   26  C   UNK N   1       6.238   1.621  -0.139  0.00  0.00     0.210 C 
ENDBRANCH   6  25
TORSDOF 5
