REMARK  11 active torsions:
REMARK  status: ('A' for Active; 'I' for Inactive)
REMARK    1  A    between atoms: C_4  and  C_7 
REMARK    2  A    between atoms: C_6  and  C_11 
REMARK    3  A    between atoms: C_7  and  C_8 
REMARK    4  A    between atoms: C_7  and  C_24 
REMARK    5  A    between atoms: C_8  and  C_9 
REMARK    6  A    between atoms: C_9  and  C_10 
REMARK    7  A    between atoms: C_11  and  N_14 
REMARK    8  A    between atoms: C_17  and  C_18 
REMARK    9  A    between atoms: C_18  and  N_23 
REMARK   10  A    between atoms: C_24  and  C_25 
REMARK   11  A    between atoms: C_25  and  O_27 
ROOT
HETATM    1  C   UNK N   1       1.278   0.233  -0.460  0.00  0.00     0.028 C 
ENDROOT
BRANCH   1   2
HETATM    2  C   UNK N   1       1.032  -1.256  -0.240  0.00  0.00    -0.053 A 
HETATM    3  C   UNK N   1      -0.263  -1.785  -0.087  0.00  0.00     0.007 A 
HETATM    4  C   UNK N   1      -0.455  -3.156   0.104  0.00  0.00     0.002 A 
HETATM    5  C   UNK N   1       0.645  -4.017   0.142  0.00  0.00     0.015 A 
HETATM    6  C   UNK N   1       1.941  -3.508  -0.013  0.00  0.00     0.007 A 
HETATM    7  C   UNK N   1       2.119  -2.135  -0.208  0.00  0.00     0.022 A 
BRANCH   6   8
HETATM    8  C   UNK N   1       3.121  -4.396   0.032  0.00  0.00     0.102 C 
HETATM    9  N   UNK N   1       2.977  -5.661   0.190  0.00  0.00    -0.385 N 
HETATM   10  H   UNK N   1       2.081  -6.051   0.310  0.00  0.00     0.157 HD
ATOM     11  HN  UNK N   1       3.797  -6.268   0.190  1.00  0.00     0.157 HD
BRANCH   8  12
HETATM   12  N   UNK N   1       4.422  -3.855  -0.085  0.00  0.00    -0.385 N 
HETATM   13  H   UNK N   1       5.202  -4.451  -0.166  0.00  0.00     0.157 HD
HETATM   14  H   UNK N   1       4.549  -2.879  -0.085  0.00  0.00     0.157 HD
ENDBRANCH   8  12
ENDBRANCH   6   8
ENDBRANCH   1   2
BRANCH   1  15
HETATM   15  C   UNK N   1      -0.013   1.063  -0.524  0.00  0.00     0.014 C 
BRANCH  15  16
HETATM   16  C   UNK N   1      -0.848   1.001   0.751  0.00  0.00     0.039 C 
BRANCH  16  17
HETATM   17  C   UNK N   1      -2.213   1.534   0.492  0.00  0.00    -0.058 A 
HETATM   18  C   UNK N   1      -3.302   0.657   0.435  0.00  0.00     0.008 A 
HETATM   19  C   UNK N   1      -4.588   1.152   0.201  0.00  0.00     0.016 A 
HETATM   20  C   UNK N   1      -4.798   2.529   0.032  0.00  0.00     0.007 A 
HETATM   21  C   UNK N   1      -3.701   3.402   0.090  0.00  0.00     0.016 A 
HETATM   22  C   UNK N   1      -2.414   2.906   0.315  0.00  0.00     0.008 A 
BRANCH  20  23
HETATM   23  C   UNK N   1      -6.158   3.065  -0.190  0.00  0.00     0.102 C 
HETATM   24  N   UNK N   1      -7.167   2.272  -0.245  0.00  0.00    -0.385 N 
HETATM   25  H   UNK N   1      -8.080   2.639  -0.288  0.00  0.00     0.157 HD
ATOM     26  HN  UNK N   1      -7.022   1.263  -0.245  1.00  0.00     0.157 HD
BRANCH  23  27
HETATM   27  N   UNK N   1      -6.363   4.457  -0.313  0.00  0.00    -0.385 N 
HETATM   28  H   UNK N   1      -5.595   5.067  -0.398  0.00  0.00     0.157 HD
HETATM   29  H   UNK N   1      -7.279   4.820  -0.313  0.00  0.00     0.157 HD
ENDBRANCH  23  27
ENDBRANCH  20  23
ENDBRANCH  16  17
ENDBRANCH  15  16
ENDBRANCH   1  15
BRANCH   1  30
HETATM   30  C   UNK N   1       2.209   0.840   0.606  0.00  0.00     0.120 C 
BRANCH  30  31
HETATM   31  C   UNK N   1       3.677   0.714   0.287  0.00  0.00     0.259 C 
HETATM   32  O   UNK N   1       4.201  -0.387   0.198  0.00  0.00    -0.265 OA
BRANCH  31  33
HETATM   33  O   UNK N   1       4.415   1.837   0.118  0.00  0.00    -0.326 OA
HETATM   34  C   UNK N   1       5.759   1.797  -0.175  0.00  0.00     0.213 C 
ENDBRANCH  31  33
ENDBRANCH  30  31
ENDBRANCH   1  30
TORSDOF 11
