REMARK  7 active torsions:
REMARK  status: ('A' for Active; 'I' for Inactive)
REMARK    1  A    between atoms: C_1  and  N_14 
REMARK    2  A    between atoms: C_7  and  S_10 
REMARK    3  A    between atoms: O_9  and  C_25 
REMARK    4  A    between atoms: S_10  and  N_23 
REMARK    5  A    between atoms: C_11  and  C_19 
REMARK    6  A    between atoms: N_23  and  C_24 
REMARK    7  A    between atoms: C_24  and  C_25 
ROOT
HETATM    1  C   UNK N   1       0.124   0.326  -0.325  0.00  0.00     0.030 A 
HETATM    2  C   UNK N   1       0.217   1.674   0.057  0.00  0.00     0.031 A 
HETATM    3  C   UNK N   1       1.450   2.330   0.044  0.00  0.00     0.027 A 
HETATM    4  C   UNK N   1       1.292  -0.352  -0.708  0.00  0.00     0.031 A 
HETATM    5  C   UNK N   1       2.633   1.646  -0.347  0.00  0.00     0.079 A 
HETATM    6  C   UNK N   1       2.527   0.301  -0.723  0.00  0.00     0.027 A 
ENDROOT
BRANCH   1   7
HETATM    7  N   UNK N   1      -1.135  -0.350  -0.309  0.00  0.00    -0.381 N 
HETATM    8  C   UNK N   1      -2.345   0.318   0.117  0.00  0.00     0.123 C 
HETATM    9  C   UNK N   1      -2.888  -0.379   1.366  0.00  0.00     0.029 C 
HETATM   10  C   UNK N   1      -2.984  -1.911   1.195  0.00  0.00     0.021 C 
HETATM   11  C   UNK N   1      -1.688  -2.503   0.618  0.00  0.00     0.029 C 
HETATM   12  C   UNK N   1      -1.226  -1.755  -0.628  0.00  0.00     0.123 C 
BRANCH  10  13
HETATM   13  C   UNK N   1      -4.222  -2.420   0.496  0.00  0.00    -0.054 A 
HETATM   14  C   UNK N   1      -5.189  -1.548  -0.031  0.00  0.00     0.007 A 
HETATM   15  C   UNK N   1      -6.348  -2.059  -0.626  0.00  0.00     0.001 A 
HETATM   16  C   UNK N   1      -6.550  -3.440  -0.697  0.00  0.00     0.000 A 
HETATM   17  C   UNK N   1      -5.593  -4.313  -0.174  0.00  0.00     0.001 A 
HETATM   18  C   UNK N   1      -4.437  -3.804   0.424  0.00  0.00     0.007 A 
ENDBRANCH  10  13
ENDBRANCH   1   7
BRANCH   5  19
HETATM   19  S   UNK N   1       4.299   2.422  -0.471  0.00  0.00     0.259 S 
HETATM   20  O   UNK N   1       3.478   3.665  -0.852  0.00  0.00    -0.201 OA
HETATM   21  O   UNK N   1       3.923   2.314   1.017  0.00  0.00    -0.201 OA
BRANCH  19  22
HETATM   22  N   UNK N   1       5.274   3.634   0.368  0.00  0.00    -0.305 N 
HETATM   23  H   UNK N   1       5.038   4.096   1.247  0.00  0.00     0.172 HD
BRANCH  22  24
HETATM   24  C   UNK N   1       6.474   3.852  -0.426  0.00  0.00     0.242 C 
BRANCH  24  25
HETATM   25  C   UNK N   1       7.595   3.015   0.094  0.00  0.00     0.158 C 
HETATM   26  O   UNK N   1       8.610   3.548   0.510  0.00  0.00    -0.649 OA
BRANCH  25  27
HETATM   27  O   UNK N   1       7.494   1.672   0.093  0.00  0.00    -0.775 OA
HETATM   28  H   UNK N   1       6.650   1.266   0.093  0.00  0.00     0.167 HD
ENDBRANCH  25  27
ENDBRANCH  24  25
ENDBRANCH  22  24
ENDBRANCH  19  22
ENDBRANCH   5  19
TORSDOF 7
