REMARK  9 active torsions:
REMARK  status: ('A' for Active; 'I' for Inactive)
REMARK    1  A    between atoms: C_1  and  N_20 
REMARK    2  A    between atoms: C_2  and  S_21 
REMARK       I    between atoms: C_3  and  N_20 
REMARK    3  A    between atoms: C_3  and  C_23 
REMARK    4  A    between atoms: C_9  and  O_26 
REMARK       I    between atoms: C_9  and  N_28 
REMARK    5  A    between atoms: C_10  and  O_26 
REMARK    6  A    between atoms: C_10  and  C_29 
REMARK    7  A    between atoms: C_23  and  C_24 
REMARK    8  A    between atoms: C_24  and  C_25 
REMARK    9  A    between atoms: C_24  and  N_28 
ROOT
HETATM    1  C   UNK N   1      -0.062  -0.491  -0.463  0.00  0.00     0.128 C 
ENDROOT
BRANCH   1   2
HETATM    2  C   UNK N   1      -1.165  -1.443   0.068  0.00  0.00     0.133 C 
BRANCH   2   3
HETATM    3  C   UNK N   1      -2.534  -1.120  -0.472  0.00  0.00     0.225 C 
HETATM    4  N   UNK N   1      -3.611  -1.242   0.344  0.00  0.00    -0.306 N 
HETATM    5  H   UNK N   1      -3.557  -1.851   1.116  0.00  0.00     0.171 HD
HETATM    6  O   UNK N   1      -2.654  -0.627  -1.587  0.00  0.00    -0.273 OA
BRANCH   4   7
HETATM    7  C   UNK N   1      -4.809  -0.520   0.120  0.00  0.00     0.168 A 
HETATM    8  S   UNK N   1      -6.313  -0.923   0.659  0.00  0.00    -0.026 SA
HETATM    9  C   UNK N   1      -7.014   0.503   0.207  0.00  0.00     0.127 A 
HETATM   10  N   UNK N   1      -6.067   1.307  -0.345  0.00  0.00    -0.286 N 
HETATM   11  N   UNK N   1      -4.843   0.743  -0.387  0.00  0.00    -0.278 N 
ATOM     12  HN  UNK N   1      -6.263   2.245  -0.695  1.00  0.00     0.188 HD
ATOM     13  HN  UNK N   1      -4.021   1.218  -0.761  1.00  0.00     0.189 HD
BRANCH   9  14
HETATM   14  S   UNK N   1      -8.726   0.961   0.419  0.00  0.00    -0.117 SA
HETATM   15  H   UNK N   1      -9.077   2.265   0.581  0.00  0.00     0.109 HD
ENDBRANCH   9  14
ENDBRANCH   4   7
ENDBRANCH   2   3
ENDBRANCH   1   2
BRANCH   1  16
HETATM   16  C   UNK N   1      -0.384   1.002  -0.414  0.00  0.00    -0.035 A 
HETATM   17  C   UNK N   1      -1.538   1.497   0.222  0.00  0.00     0.009 A 
HETATM   18  C   UNK N   1      -1.781   2.869   0.293  0.00  0.00     0.001 A 
HETATM   19  C   UNK N   1      -0.865   3.766  -0.258  0.00  0.00     0.000 A 
HETATM   20  C   UNK N   1       0.289   3.290  -0.886  0.00  0.00     0.001 A 
HETATM   21  C   UNK N   1       0.529   1.915  -0.962  0.00  0.00     0.009 A 
ENDBRANCH   1  16
BRANCH   1  22
HETATM   22  N   UNK N   1       1.196  -0.734   0.237  0.00  0.00    -0.328 N 
HETATM   23  C   UNK N   1       1.453  -0.268   1.498  0.00  0.00     0.361 C 
HETATM   24  O   UNK N   1       0.611   0.371   2.103  0.00  0.00    -0.238 OA
HETATM   25  H   UNK N   1       1.892  -1.259  -0.221  0.00  0.00     0.165 HD
BRANCH  23  26
HETATM   26  O   UNK N   1       2.668  -0.455   2.077  0.00  0.00    -0.299 OA
BRANCH  26  27
HETATM   27  C   UNK N   1       3.538  -1.482   1.782  0.00  0.00     0.219 C 
BRANCH  27  28
HETATM   28  C   UNK N   1       4.232  -1.379   0.462  0.00  0.00    -0.034 A 
HETATM   29  C   UNK N   1       4.019  -2.388  -0.480  0.00  0.00     0.009 A 
HETATM   30  C   UNK N   1       4.729  -2.393  -1.682  0.00  0.00     0.001 A 
HETATM   31  C   UNK N   1       5.670  -1.393  -1.940  0.00  0.00     0.000 A 
HETATM   32  C   UNK N   1       5.892  -0.382  -0.999  0.00  0.00     0.001 A 
HETATM   33  C   UNK N   1       5.178  -0.376   0.207  0.00  0.00     0.009 A 
ENDBRANCH  27  28
ENDBRANCH  26  27
ENDBRANCH  23  26
ENDBRANCH   1  22
TORSDOF 9
