REMARK  6 active torsions:
REMARK  status: ('A' for Active; 'I' for Inactive)
REMARK       I    between atoms: C_2  and  N_4 
REMARK    1  A    between atoms: N_4  and  O_5 
REMARK    2  A    between atoms: C_6  and  N_4 
REMARK    3  A    between atoms: C_6  and  C_7 
REMARK    4  A    between atoms: C_6  and  C_11 
REMARK    5  A    between atoms: C_7  and  C_8 
REMARK    6  A    between atoms: C_11  and  O_13 
ROOT
HETATM    1  C   UNK N   1      -0.034  -0.344   0.200  0.00  0.00     0.217 C 
ENDROOT
BRANCH   1   2
HETATM    2  N   UNK N   1      -0.195  -1.772  -0.093  0.00  0.00    -0.214 N 
HETATM    3  C   UNK N   1       0.712  -2.697   0.342  0.00  0.00     0.240 C 
HETATM    4  C   UNK N   1       0.523  -4.147   0.032  0.00  0.00     0.119 C 
HETATM    5  O   UNK N   1       1.687  -2.356   0.995  0.00  0.00    -0.272 OA
BRANCH   2   6
HETATM    6  O   UNK N   1      -1.270  -2.193  -0.783  0.00  0.00    -0.284 OA
HETATM    7  H   UNK N   1      -1.920  -1.673  -1.280  0.00  0.00     0.245 HD
ENDBRANCH   2   6
ENDBRANCH   1   2
BRANCH   1   8
HETATM    8  C   UNK N   1      -1.281   0.433  -0.274  0.00  0.00     0.042 C 
BRANCH   8   9
HETATM    9  C   UNK N   1      -1.252   1.951  -0.104  0.00  0.00    -0.020 C 
HETATM   10  C   UNK N   1      -2.578   2.515  -0.569  0.00  0.00     0.009 C 
HETATM   11  C   UNK N   1      -1.023   2.359   1.339  0.00  0.00     0.009 C 
ENDBRANCH   8   9
ENDBRANCH   1   8
BRANCH   1  12
HETATM   12  C   UNK N   1       1.227   0.217  -0.436  0.00  0.00     0.284 C 
HETATM   13  O   UNK N   1       1.906  -0.475  -1.184  0.00  0.00    -0.263 OA
BRANCH  12  14
HETATM   14  O   UNK N   1       1.612   1.484  -0.142  0.00  0.00    -0.325 OA
HETATM   15  C   UNK N   1       2.774   2.037  -0.629  0.00  0.00     0.213 C 
ENDBRANCH  12  14
ENDBRANCH   1  12
TORSDOF 6
