REMARK  6 active torsions:
REMARK  status: ('A' for Active; 'I' for Inactive)
REMARK    1  A    between atoms: P_1  and  O_5 
REMARK    2  A    between atoms: C_6  and  O_5 
REMARK    3  A    between atoms: C_6  and  C_7 
REMARK    4  A    between atoms: C_6  and  C_9 
REMARK    5  A    between atoms: C_9  and  O_10 
REMARK    6  A    between atoms: O_10  and  C_15 
ROOT
HETATM    1  C   UNK N   1      -1.024  -0.593  -0.170  0.00  0.00     0.154 C 
ENDROOT
BRANCH   1   2
HETATM    2  O   UNK N   1      -1.939   0.483  -0.144  0.00  0.00    -0.316 OA
BRANCH   2   3
HETATM    3  P   UNK N   1      -3.441  -0.037   0.591  0.00  0.00     0.284 P 
HETATM    4 Cl   UNK N   1      -4.463  -1.774  -0.061  0.00  0.00    -0.027 Cl
HETATM    5  C   UNK N   1      -3.934   0.073  -1.200  0.00  0.00     0.135 C 
HETATM    6  O   UNK N   1      -4.325   1.236   0.674  0.00  0.00    -0.274 OA
ENDBRANCH   2   3
ENDBRANCH   1   2
BRANCH   1   7
HETATM    7  C   UNK N   1      -0.614  -1.027   1.244  0.00  0.00     0.030 C 
HETATM    8  C   UNK N   1       0.221  -2.298   1.215  0.00  0.00     0.007 C 
ENDBRANCH   1   7
BRANCH   1   9
HETATM    9  C   UNK N   1       0.209  -0.136  -0.947  0.00  0.00     0.208 C 
BRANCH   9  10
HETATM   10  O   UNK N   1       0.726   1.019  -0.394  0.00  0.00    -0.349 OA
BRANCH  10  11
HETATM   11  C   UNK N   1       2.048   1.243  -0.206  0.00  0.00     0.068 A 
HETATM   12  C   UNK N   1       3.020   0.300  -0.587  0.00  0.00     0.037 A 
HETATM   13  C   UNK N   1       4.378   0.573  -0.395  0.00  0.00     0.003 A 
HETATM   14  C   UNK N   1       4.774   1.786   0.178  0.00  0.00     0.000 A 
HETATM   15  C   UNK N   1       3.812   2.725   0.561  0.00  0.00     0.003 A 
HETATM   16  C   UNK N   1       2.454   2.453   0.368  0.00  0.00     0.037 A 
ENDBRANCH  10  11
ENDBRANCH   9  10
ENDBRANCH   1   9
TORSDOF 6
