REMARK  8 active torsions:
REMARK  status: ('A' for Active; 'I' for Inactive)
REMARK    1  A    between atoms: C_1  and  C_8 
REMARK    2  A    between atoms: C_4  and  O_5 
REMARK    3  A    between atoms: C_8  and  C_9 
REMARK    4  A    between atoms: C_9  and  C_10 
REMARK    5  A    between atoms: C_10  and  N_12 
REMARK       I    between atoms: N_12  and  C_13 
REMARK    6  A    between atoms: C_13  and  C_15 
REMARK    7  A    between atoms: C_15  and  C_16 
REMARK    8  A    between atoms: C_17  and  C_25 
ROOT
HETATM    1  C   UNK N   1      -0.922   3.770  -1.136  0.00  0.00     0.144 C 
ENDROOT
BRANCH   1   2
HETATM    2  C   UNK N   1      -1.855   3.168  -0.125  0.00  0.00     0.222 C 
HETATM    3  N   UNK N   1      -3.168   3.500  -0.050  0.00  0.00    -0.357 N 
HETATM    4  H   UNK N   1      -3.679   2.999   0.626  0.00  0.00     0.162 HD
HETATM    5  O   UNK N   1      -1.429   2.332   0.653  0.00  0.00    -0.273 OA
BRANCH   3   6
HETATM    6  C   UNK N   1      -3.950   4.473  -0.802  0.00  0.00     0.080 C 
HETATM    7  C   UNK N   1      -3.197   5.235  -1.880  0.00  0.00     0.032 C 
BRANCH   6   8
HETATM    8  C   UNK N   1      -4.538   5.477   0.189  0.00  0.00     0.029 C 
BRANCH   8   9
HETATM    9  C   UNK N   1      -5.186   4.784   1.393  0.00  0.00     0.040 C 
BRANCH   9  10
HETATM   10  C   UNK N   1      -6.337   3.939   0.969  0.00  0.00    -0.058 A 
HETATM   11  C   UNK N   1      -6.236   2.543   1.016  0.00  0.00     0.010 A 
HETATM   12  C   UNK N   1      -7.299   1.752   0.571  0.00  0.00     0.037 A 
HETATM   13  C   UNK N   1      -8.463   2.356   0.083  0.00  0.00     0.065 A 
HETATM   14  C   UNK N   1      -8.564   3.750   0.045  0.00  0.00     0.037 A 
HETATM   15  C   UNK N   1      -7.501   4.540   0.484  0.00  0.00     0.010 A 
BRANCH  13  16
HETATM   16  O   UNK N   1      -9.483   1.600  -0.350  0.00  0.00    -0.361 OA
HETATM   17  H   UNK N   1     -10.296   1.952  -0.652  0.00  0.00     0.217 HD
ENDBRANCH  13  16
ENDBRANCH   9  10
ENDBRANCH   8   9
ENDBRANCH   6   8
ENDBRANCH   3   6
ENDBRANCH   1   2
BRANCH   1  18
HETATM   18  C   UNK N   1       0.266   4.444  -0.516  0.00  0.00    -0.009 A 
HETATM   19  C   UNK N   1       0.403   5.796  -0.296  0.00  0.00    -0.000 A 
HETATM   20  C   UNK N   1       1.649   5.988   0.239  0.00  0.00     0.043 A 
HETATM   21  C   UNK N   1      -0.468   6.857  -0.531  0.00  0.00     0.014 A 
HETATM   22  N   UNK N   1       2.312   4.826   0.367  0.00  0.00    -0.354 N 
HETATM   23  C   UNK N   1       2.114   7.257   0.579  0.00  0.00     0.030 A 
HETATM   24  C   UNK N   1       1.469   3.864  -0.094  0.00  0.00     0.050 A 
HETATM   25  H   UNK N   1       3.222   4.698   0.722  0.00  0.00     0.166 HD
HETATM   26  C   UNK N   1       1.257   8.351   0.357  0.00  0.00     0.002 A 
HETATM   27  C   UNK N   1      -0.029   8.152  -0.196  0.00  0.00     0.001 A 
BRANCH  24  28
HETATM   28  C   UNK N   1       1.840   2.429  -0.122  0.00  0.00    -0.009 A 
HETATM   29  C   UNK N   1       3.132   2.035   0.254  0.00  0.00     0.014 A 
HETATM   30  C   UNK N   1       3.487   0.682   0.256  0.00  0.00     0.001 A 
HETATM   31  C   UNK N   1       2.548  -0.290  -0.101  0.00  0.00     0.000 A 
HETATM   32  C   UNK N   1       1.260   0.093  -0.477  0.00  0.00     0.001 A 
HETATM   33  C   UNK N   1       0.915   1.445  -0.498  0.00  0.00     0.014 A 
ENDBRANCH  24  28
ENDBRANCH   1  18
TORSDOF 8
