REMARK  8 active torsions:
REMARK  status: ('A' for Active; 'I' for Inactive)
REMARK    1  A    between atoms: N_1  and  C_2 
REMARK    2  A    between atoms: C_8  and  N_9 
REMARK    3  A    between atoms: N_9  and  C_10 
REMARK    4  A    between atoms: C_10  and  C_11 
REMARK    5  A    between atoms: C_13  and  C_26 
REMARK    6  A    between atoms: C_16  and  O_17 
REMARK    7  A    between atoms: O_17  and  C_18 
REMARK    8  A    between atoms: C_18  and  C_19 
ROOT
HETATM    1  C   UNK N   1       0.329  -0.368   0.000  0.00  0.00    -0.006 A 
HETATM    2  C   UNK N   1      -0.888   0.294   0.000  0.00  0.00     0.024 A 
HETATM    3  C   UNK N   1      -1.020   1.674  -0.000  0.00  0.00    -0.025 A 
HETATM    4  C   UNK N   1       0.132   2.457  -0.000  0.00  0.00     0.015 A 
HETATM    5  C   UNK N   1       1.387   1.838  -0.000  0.00  0.00     0.038 A 
HETATM    6  C   UNK N   1       1.529   0.436  -0.000  0.00  0.00     0.077 A 
ENDROOT
BRANCH   1   7
HETATM    7  C   UNK N   1       0.083  -1.855   0.000  0.00  0.00     0.161 C 
BRANCH   7   8
HETATM    8  N   UNK N   1       1.143  -2.817  -0.000  0.00  0.00    -0.383 N 
HETATM    9  H   UNK N   1       2.082  -2.521  -0.000  0.00  0.00     0.160 HD
BRANCH   8  10
HETATM   10  C   UNK N   1       0.827  -4.201  -0.000  0.00  0.00     0.072 A 
HETATM   11  C   UNK N   1       1.840  -5.168  -0.000  0.00  0.00     0.125 A 
HETATM   12  N   UNK N   1       1.522  -6.491  -0.000  0.00  0.00    -0.351 N 
HETATM   13  C   UNK N   1       0.229  -6.916   0.000  0.00  0.00     0.090 A 
ATOM     14  HN  UNK N   1       2.272  -7.182  -0.000  1.00  0.00     0.166 HD
HETATM   15  C   UNK N   1      -0.813  -5.990   0.000  0.00  0.00     0.019 A 
HETATM   16  C   UNK N   1      -0.512  -4.631   0.000  0.00  0.00     0.034 A 
BRANCH  11  17
HETATM   17  N   UNK N   1       3.195  -4.778  -0.000  0.00  0.00    -0.384 N 
HETATM   18  H   UNK N   1       3.904  -5.461  -0.000  0.00  0.00     0.157 HD
HETATM   19  H   UNK N   1       3.433  -3.823  -0.000  0.00  0.00     0.157 HD
ENDBRANCH  11  17
ENDBRANCH   8  10
ENDBRANCH   7   8
ENDBRANCH   1   7
BRANCH   6  20
HETATM   20  O   UNK N   1       2.812  -0.012  -0.000  0.00  0.00    -0.345 OA
BRANCH  20  21
HETATM   21  C   UNK N   1       3.285  -1.296   0.000  0.00  0.00     0.232 C 
BRANCH  21  22
HETATM   22  C   UNK N   1       4.780  -1.309   0.000  0.00  0.00     0.033 A 
HETATM   23  N   UNK N   1       5.487  -0.143  -0.000  0.00  0.00    -0.367 N 
HETATM   24  C   UNK N   1       6.848  -0.134  -0.000  0.00  0.00     0.088 A 
ATOM     25  HN  UNK N   1       4.984   0.745  -0.000  1.00  0.00     0.165 HD
HETATM   26  C   UNK N   1       7.555  -1.338   0.000  0.00  0.00     0.017 A 
HETATM   27  C   UNK N   1       6.852  -2.543   0.000  0.00  0.00     0.003 A 
HETATM   28  C   UNK N   1       5.457  -2.531   0.000  0.00  0.00     0.027 A 
ENDBRANCH  21  22
ENDBRANCH  20  21
ENDBRANCH   6  20
BRANCH   3  29
HETATM   29  C   UNK N   1      -2.386   2.239   0.000  0.00  0.00    -0.024 A 
HETATM   30  C   UNK N   1      -3.485   1.350   0.000  0.00  0.00     0.042 A 
HETATM   31  C   UNK N   1      -4.763   1.874   0.000  0.00  0.00     0.043 A 
HETATM   32  C   UNK N   1      -4.990   3.213  -0.000  0.00  0.00    -0.008 A 
HETATM   33  N   UNK N   1      -5.912   1.185   0.000  0.00  0.00    -0.365 N 
HETATM   34  C   UNK N   1      -3.944   4.136  -0.000  0.00  0.00     0.014 A 
HETATM   35  C   UNK N   1      -6.352   3.401  -0.000  0.00  0.00     0.030 A 
HETATM   36  C   UNK N   1      -2.623   3.638  -0.000  0.00  0.00     0.013 A 
HETATM   37  C   UNK N   1      -6.898   2.115   0.000  0.00  0.00     0.089 A 
HETATM   38  H   UNK N   1      -6.018   0.206   0.000  0.00  0.00     0.165 HD
ENDBRANCH   3  29
TORSDOF 8
