REMARK  8 active torsions:
REMARK  status: ('A' for Active; 'I' for Inactive)
REMARK    1  A    between atoms: N_9  and  C_10 
REMARK    2  A    between atoms: C_10  and  C_11 
REMARK    3  A    between atoms: C_11  and  O_13 
REMARK    4  A    between atoms: C_18  and  C_19 
REMARK    5  A    between atoms: C_19  and  O_20 
REMARK    6  A    between atoms: O_20  and  C_21 
REMARK    7  A    between atoms: C_21  and  C_22 
REMARK    8  A    between atoms: C_22  and  O_24 
ROOT
HETATM    1  C   UNK N   1       0.306   1.383   0.099  0.00  0.00    -0.024 A 
HETATM    2  C   UNK N   1      -0.914   2.058   0.202  0.00  0.00     0.012 A 
HETATM    3  C   UNK N   1      -2.113   1.339   0.223  0.00  0.00     0.001 A 
HETATM    4  C   UNK N   1      -2.097  -0.056   0.137  0.00  0.00     0.001 A 
HETATM    5  C   UNK N   1      -0.882  -0.739   0.027  0.00  0.00     0.013 A 
HETATM    6  C   UNK N   1       0.326  -0.029   0.010  0.00  0.00    -0.009 A 
HETATM    7  C   UNK N   1       1.566  -0.678  -0.100  0.00  0.00     0.068 A 
HETATM    8  C   UNK N   1       1.816  -2.092  -0.258  0.00  0.00     0.270 A 
HETATM    9  N   UNK N   1       3.129  -2.398  -0.374  0.00  0.00    -0.227 N 
HETATM   10  S   UNK N   1       4.260  -1.026  -0.278  0.00  0.00     0.270 S 
HETATM   11  O   UNK N   1       5.179  -1.880   0.610  0.00  0.00    -0.200 OA
HETATM   12  O   UNK N   1       3.955  -0.662   1.188  0.00  0.00    -0.200 OA
HETATM   13  C   UNK N   1       2.761   0.030  -0.098  0.00  0.00     0.113 A 
HETATM   14  C   UNK N   1       2.745   1.452  -0.025  0.00  0.00     0.064 A 
HETATM   15  C   UNK N   1       1.503   2.106   0.074  0.00  0.00     0.031 A 
HETATM   16  O   UNK N   1       0.933  -2.930  -0.343  0.00  0.00    -0.266 OA
ENDROOT
BRANCH  14  17
HETATM   17  C   UNK N   1       3.986   2.274  -0.049  0.00  0.00     0.295 C 
HETATM   18  O   UNK N   1       3.903   3.495  -0.023  0.00  0.00    -0.259 OA
BRANCH  17  19
HETATM   19  O   UNK N   1       5.202   1.678  -0.096  0.00  0.00    -0.307 OA
BRANCH  19  20
HETATM   20  C   UNK N   1       6.383   2.382  -0.150  0.00  0.00     0.288 C 
BRANCH  20  21
HETATM   21  C   UNK N   1       7.548   1.445  -0.233  0.00  0.00     0.165 C 
HETATM   22  O   UNK N   1       8.671   1.893  -0.390  0.00  0.00    -0.648 OA
BRANCH  21  23
HETATM   23  O   UNK N   1       7.369   0.112  -0.144  0.00  0.00    -0.775 OA
HETATM   24  H   UNK N   1       6.504  -0.243  -0.083  0.00  0.00     0.167 HD
ENDBRANCH  21  23
ENDBRANCH  20  21
ENDBRANCH  19  20
ENDBRANCH  17  19
ENDBRANCH  14  17
BRANCH   9  25
HETATM   25  C   UNK N   1       3.601  -3.729  -0.716  0.00  0.00     0.255 C 
BRANCH  25  26
HETATM   26  C   UNK N   1       3.339  -4.728   0.365  0.00  0.00     0.159 C 
HETATM   27  O   UNK N   1       4.241  -5.063   1.113  0.00  0.00    -0.649 OA
BRANCH  26  28
HETATM   28  O   UNK N   1       2.136  -5.324   0.459  0.00  0.00    -0.775 OA
HETATM   29  H   UNK N   1       1.358  -4.805   0.524  0.00  0.00     0.167 HD
ENDBRANCH  26  28
ENDBRANCH  25  26
ENDBRANCH   9  25
TORSDOF 8
