REMARK  9 active torsions:
REMARK  status: ('A' for Active; 'I' for Inactive)
REMARK    1  A    between atoms: C_1  and  C_9 
REMARK    2  A    between atoms: C_12  and  C_15 
REMARK    3  A    between atoms: C_15  and  C_16 
REMARK    4  A    between atoms: C_16  and  C_17 
REMARK    5  A    between atoms: C_16  and  N_20 
REMARK       I    between atoms: C_17  and  N_19 
REMARK       I    between atoms: N_20  and  C_21 
REMARK    6  A    between atoms: C_21  and  C_22 
REMARK    7  A    between atoms: C_22  and  N_24 
REMARK    8  A    between atoms: C_22  and  C_25 
REMARK       I    between atoms: N_24  and  C_32 
REMARK    9  A    between atoms: C_25  and  C_26 
ROOT
HETATM    1  C   UNK N   1      -2.262   3.246  -0.718  0.00  0.00     0.180 C 
ENDROOT
BRANCH   1   2
HETATM    2  C   UNK N   1      -2.965   2.232   0.253  0.00  0.00     0.073 C 
BRANCH   2   3
HETATM    3  C   UNK N   1      -4.365   2.496   0.458  0.00  0.00    -0.056 C 
HETATM    4  C   UNK N   1      -4.719   3.741   0.953  0.00  0.00     0.008 C 
HETATM    5  C   UNK N   1      -5.933   4.266   0.600  0.00  0.00     0.009 C 
HETATM    6  C   UNK N   1      -6.789   3.523  -0.224  0.00  0.00    -0.037 C 
HETATM    7  C   UNK N   1      -6.505   2.185  -0.514  0.00  0.00     0.009 C 
HETATM    8  C   UNK N   1      -5.274   1.668  -0.177  0.00  0.00     0.008 C 
BRANCH   6   9
HETATM    9  C   UNK N   1      -7.791   4.228  -1.133  0.00  0.00     0.171 C 
HETATM   10  C   UNK N   1      -9.171   3.924  -0.620  0.00  0.00     0.130 C 
HETATM   11  C   UNK N   1      -9.154   4.930   0.416  0.00  0.00     0.232 C 
HETATM   12  N   UNK N   1      -8.323   5.954   0.178  0.00  0.00    -0.254 N 
HETATM   13  O   UNK N   1      -9.673   4.762   1.505  0.00  0.00    -0.273 OA
HETATM   14  S   UNK N   1      -7.668   6.124  -1.462  0.00  0.00     0.241 S 
HETATM   15  H   UNK N   1      -8.084   6.591   0.890  0.00  0.00     0.181 HD
HETATM   16  O   UNK N   1      -6.870   7.089  -0.571  0.00  0.00    -0.205 OA
HETATM   17  O   UNK N   1      -6.217   5.630  -1.592  0.00  0.00    -0.205 OA
ENDBRANCH   6   9
ENDBRANCH   2   3
ENDBRANCH   1   2
BRANCH   1  18
HETATM   18  C   UNK N   1      -2.389   4.721  -0.363  0.00  0.00     0.238 C 
HETATM   19  O   UNK N   1      -2.050   5.122   0.741  0.00  0.00    -0.271 OA
HETATM   20  N   UNK N   1      -2.889   5.598  -1.258  0.00  0.00    -0.368 N 
HETATM   21  H   UNK N   1      -2.518   6.234  -1.912  0.00  0.00     0.159 HD
HETATM   22  H   UNK N   1      -3.874   5.603  -1.258  0.00  0.00     0.159 HD
ENDBRANCH   1  18
BRANCH   1  23
HETATM   23  N   UNK N   1      -0.879   2.859  -0.724  0.00  0.00    -0.346 N 
HETATM   24  C   UNK N   1      -0.226   2.575   0.443  0.00  0.00     0.241 C 
HETATM   25  O   UNK N   1      -0.744   2.763   1.526  0.00  0.00    -0.271 OA
HETATM   26  H   UNK N   1      -0.395   2.797  -1.579  0.00  0.00     0.163 HD
BRANCH  24  27
HETATM   27  C   UNK N   1       1.099   1.916   0.378  0.00  0.00     0.180 C 
BRANCH  27  28
HETATM   28  N   UNK N   1       2.149   2.788  -0.126  0.00  0.00    -0.348 N 
HETATM   29  C   UNK N   1       2.159   4.152  -0.268  0.00  0.00     0.214 C 
HETATM   30  O   UNK N   1       3.141   4.683  -0.748  0.00  0.00    -0.274 OA
HETATM   31  C   UNK N   1       1.035   5.040   0.177  0.00  0.00     0.117 C 
HETATM   32  H   UNK N   1       2.975   2.332  -0.407  0.00  0.00     0.163 HD
ENDBRANCH  27  28
BRANCH  27  33
HETATM   33  C   UNK N   1       1.026   0.648  -0.506  0.00  0.00     0.073 C 
BRANCH  33  34
HETATM   34  C   UNK N   1      -0.103  -0.327  -0.244  0.00  0.00    -0.056 A 
HETATM   35  C   UNK N   1       0.144  -1.524   0.438  0.00  0.00     0.007 A 
HETATM   36  C   UNK N   1      -0.886  -2.457   0.625  0.00  0.00     0.001 A 
HETATM   37  C   UNK N   1      -2.166  -2.202   0.123  0.00  0.00     0.000 A 
HETATM   38  C   UNK N   1      -2.415  -1.020  -0.577  0.00  0.00     0.001 A 
HETATM   39  C   UNK N   1      -1.383  -0.095  -0.770  0.00  0.00     0.007 A 
ENDBRANCH  33  34
ENDBRANCH  27  33
ENDBRANCH  24  27
ENDBRANCH   1  23
TORSDOF 9
