REMARK  3 active torsions:
REMARK  status: ('A' for Active; 'I' for Inactive)
REMARK    1  A    between atoms: C_2  and  N_3 
REMARK       I    between atoms: C_4  and  N_3 
REMARK       I    between atoms: C_4  and  N_6 
REMARK    2  A    between atoms: C_9  and  N_12 
REMARK       I    between atoms: N_12  and  C_13 
REMARK    3  A    between atoms: C_22  and  C_16 
ROOT
HETATM    1  N   UNK N   1       0.040  -0.460   0.775  0.00  0.00    -0.221 N 
HETATM    2  C   UNK N   1      -0.832   0.644   0.661  0.00  0.00     0.678 A 
HETATM    3  N   UNK N   1      -0.346   1.868   0.327  0.00  0.00    -0.189 N 
ATOM      4  HN  UNK N   1       0.658   1.980   0.182  1.00  0.00     0.184 HD
HETATM    5  C   UNK N   1      -1.161   2.948   0.179  0.00  0.00     0.084 A 
HETATM    6  C   UNK N   1      -2.556   2.769   0.337  0.00  0.00     0.078 A 
HETATM    7  C   UNK N   1      -3.027   1.503   0.684  0.00  0.00     0.132 A 
HETATM    8  N   UNK N   1      -2.162   0.472   0.854  0.00  0.00    -0.200 N 
ATOM      9  HN  UNK N   1      -2.518  -0.443   1.131  1.00  0.00     0.183 HD
HETATM   10 Cl   UNK N   1      -3.742   4.052   0.142  0.00  0.00    -0.080 Cl
HETATM   11  H   UNK N   1      -0.062  -1.086   1.528  0.00  0.00     0.178 HD
ENDROOT
BRANCH   1  12
HETATM   12  C   UNK N   1       1.080  -0.680  -0.205  0.00  0.00     0.102 C 
HETATM   13  C   UNK N   1       2.020  -1.788   0.227  0.00  0.00     0.045 C 
HETATM   14  C   UNK N   1       1.318  -3.133   0.435  0.00  0.00     0.129 C 
HETATM   15  N   UNK N   1       0.040  -3.305  -0.259  0.00  0.00    -0.334 N 
HETATM   16  C   UNK N   1      -0.742  -4.368   0.094  0.00  0.00     0.318 C 
HETATM   17  C   UNK N   1      -0.460  -2.356  -1.254  0.00  0.00     0.129 C 
HETATM   18  N   UNK N   1      -1.981  -4.516  -0.443  0.00  0.00    -0.343 N 
HETATM   19  O   UNK N   1      -0.341  -5.175   0.924  0.00  0.00    -0.247 OA
HETATM   20  H   UNK N   1      -2.295  -3.867  -1.114  0.00  0.00     0.164 HD
HETATM   21  C   UNK N   1       0.453  -1.151  -1.505  0.00  0.00     0.045 C 
BRANCH  18  22
HETATM   22  C   UNK N   1      -2.848  -5.600  -0.053  0.00  0.00     0.120 C 
HETATM   23  C   UNK N   1      -4.262  -5.310  -0.511  0.00  0.00     0.026 C 
ENDBRANCH  18  22
ENDBRANCH   1  12
BRANCH   5  24
HETATM   24  C   UNK N   1      -0.533   4.268  -0.105  0.00  0.00     0.021 A 
HETATM   25  C   UNK N   1      -1.166   5.499  -0.278  0.00  0.00     0.103 A 
HETATM   26  N   UNK N   1      -0.241   6.473  -0.471  0.00  0.00    -0.364 N 
HETATM   27  C   UNK N   1       0.956   5.866  -0.418  0.00  0.00     0.043 A 
HETATM   28  H   UNK N   1      -0.413   7.430  -0.621  0.00  0.00     0.165 HD
HETATM   29  C   UNK N   1       2.204   6.470  -0.547  0.00  0.00     0.030 A 
HETATM   30  C   UNK N   1       0.820   4.525  -0.199  0.00  0.00     0.004 A 
HETATM   31  C   UNK N   1       3.343   5.650  -0.448  0.00  0.00     0.002 A 
HETATM   32  C   UNK N   1       3.206   4.262  -0.223  0.00  0.00     0.001 A 
HETATM   33  C   UNK N   1       1.930   3.686  -0.094  0.00  0.00     0.014 A 
ENDBRANCH   5  24
TORSDOF 3
