REMARK  7 active torsions:
REMARK  status: ('A' for Active; 'I' for Inactive)
REMARK    1  A    between atoms: C_2  and  C_3 
REMARK    2  A    between atoms: C_2  and  O_17 
REMARK    3  A    between atoms: C_3  and  O_4 
REMARK    4  A    between atoms: C_3  and  C_5 
REMARK    5  A    between atoms: C_5  and  N_6 
REMARK       I    between atoms: N_6  and  C_7 
REMARK       I    between atoms: C_7  and  N_9 
REMARK    6  A    between atoms: N_9  and  C_10 
REMARK    7  A    between atoms: C_10  and  C_11 
ROOT
HETATM    1  N   UNK N   1      -1.454   1.390  -0.100  0.00  0.00    -0.340 N 
HETATM    2  C   UNK N   1      -0.220   1.921   0.109  0.00  0.00     0.316 C 
HETATM    3  O   UNK N   1      -0.142   3.113   0.361  0.00  0.00    -0.247 OA
HETATM    4  N   UNK N   1       0.934   1.203   0.053  0.00  0.00    -0.339 N 
HETATM    5  H   UNK N   1      -2.220   1.990   0.049  0.00  0.00     0.164 HD
HETATM    6  H   UNK N   1       1.772   1.706   0.168  0.00  0.00     0.164 HD
ENDROOT
BRANCH   1   7
HETATM    7  C   UNK N   1      -1.766   0.042  -0.515  0.00  0.00     0.167 C 
BRANCH   7   8
HETATM    8  C   UNK N   1      -3.093  -0.444   0.087  0.00  0.00     0.233 C 
BRANCH   8   9
HETATM    9  C   UNK N   1      -4.239   0.538  -0.037  0.00  0.00     0.171 C 
HETATM   10  O   UNK N   1      -5.334   0.244   0.417  0.00  0.00    -0.648 OA
BRANCH   9  11
HETATM   11  O   UNK N   1      -4.074   1.737  -0.630  0.00  0.00    -0.774 OA
HETATM   12  H   UNK N   1      -3.294   2.054  -1.042  0.00  0.00     0.167 HD
ENDBRANCH   9  11
ENDBRANCH   8   9
BRANCH   8  13
HETATM   13  O   UNK N   1      -3.451  -1.633  -0.550  0.00  0.00    -0.383 OA
HETATM   14  H   UNK N   1      -4.291  -1.831  -0.993  0.00  0.00     0.210 HD
ENDBRANCH   8  13
ENDBRANCH   7   8
ENDBRANCH   1   7
BRANCH   4  15
HETATM   15  C   UNK N   1       1.060  -0.221  -0.158  0.00  0.00     0.162 C 
BRANCH  15  16
HETATM   16  C   UNK N   1       2.504  -0.642  -0.097  0.00  0.00    -0.040 A 
HETATM   17  C   UNK N   1       3.541   0.303  -0.004  0.00  0.00     0.009 A 
HETATM   18  C   UNK N   1       4.874  -0.111   0.057  0.00  0.00     0.001 A 
HETATM   19  C   UNK N   1       5.182  -1.474   0.030  0.00  0.00     0.000 A 
HETATM   20  C   UNK N   1       4.156  -2.420  -0.061  0.00  0.00     0.001 A 
HETATM   21  C   UNK N   1       2.821  -2.005  -0.126  0.00  0.00     0.009 A 
ENDBRANCH  15  16
ENDBRANCH   4  15
TORSDOF 7
