REMARK  3 active torsions:
REMARK  status: ('A' for Active; 'I' for Inactive)
REMARK    1  A    between atoms: N_2  and  O_1 
REMARK    2  A    between atoms: C_8  and  N_7 
REMARK    3  A    between atoms: C_8  and  C_9 
ROOT
HETATM    1  N   UNK N   1       0.636   4.452  -0.447  0.00  0.00    -0.263 N 
ATOM      2  HN  UNK N   1      -0.332   4.772  -0.431  1.00  0.00     0.194 HD
HETATM    3  C   UNK N   1       0.901   3.226  -0.162  0.00  0.00     0.134 A 
HETATM    4  C   UNK N   1      -0.060   2.203   0.248  0.00  0.00     0.278 A 
HETATM    5  O   UNK N   1      -1.255   2.390   0.404  0.00  0.00    -0.265 OA
HETATM    6  N   UNK N   1       0.588   1.035   0.507  0.00  0.00    -0.307 N 
HETATM    7  C   UNK N   1       1.975   1.264   0.300  0.00  0.00     0.050 A 
HETATM    8  C   UNK N   1       3.031   0.377   0.512  0.00  0.00     0.034 A 
HETATM    9  C   UNK N   1       4.342   0.850   0.309  0.00  0.00     0.044 A 
HETATM   10  C   UNK N   1       4.573   2.187  -0.089  0.00  0.00     0.117 A 
HETATM   11  F   UNK N   1       5.841   2.634  -0.255  0.00  0.00    -0.206 F 
HETATM   12  C   UNK N   1       3.493   3.062  -0.294  0.00  0.00     0.058 A 
HETATM   13  C   UNK N   1       2.206   2.571  -0.094  0.00  0.00     0.028 A 
ENDROOT
BRANCH   6  14
HETATM   14  C   UNK N   1       0.045  -0.175   1.119  0.00  0.00     0.174 C 
BRANCH  14  15
HETATM   15  C   UNK N   1      -1.224  -0.749   0.531  0.00  0.00    -0.003 A 
HETATM   16  C   UNK N   1      -2.419  -0.019   0.593  0.00  0.00     0.054 A 
HETATM   17  C   UNK N   1      -3.625  -0.565   0.146  0.00  0.00     0.117 A 
HETATM   18  F   UNK N   1      -4.763   0.166   0.216  0.00  0.00    -0.206 F 
HETATM   19  C   UNK N   1      -3.660  -1.869  -0.348  0.00  0.00     0.054 A 
HETATM   20  C   UNK N   1      -2.483  -2.614  -0.399  0.00  0.00     0.003 A 
HETATM   21  C   UNK N   1      -2.467  -4.033  -0.875  0.00  0.00     0.212 C 
HETATM   22  C   UNK N   1      -1.266  -2.069   0.037  0.00  0.00     0.088 A 
HETATM   23  O   UNK N   1      -1.465  -4.745  -0.181  0.00  0.00    -0.362 OA
HETATM   24  C   UNK N   1      -0.228  -4.143  -0.512  0.00  0.00     0.345 C 
HETATM   25  O   UNK N   1      -0.161  -2.855   0.007  0.00  0.00    -0.325 OA
ENDBRANCH  14  15
ENDBRANCH   6  14
BRANCH   1  26
HETATM   26  O   UNK N   1       1.593   5.300  -0.758  0.00  0.00    -0.289 OA
HETATM   27  H   UNK N   1       2.456   5.012  -0.980  0.00  0.00     0.244 HD
ENDBRANCH   1  26
TORSDOF 3
