REMARK  8 active torsions:
REMARK  status: ('A' for Active; 'I' for Inactive)
REMARK    1  A    between atoms: C_5  and  N_10 
REMARK    2  A    between atoms: C_13  and  C_16 
REMARK    3  A    between atoms: C_16  and  C_17 
REMARK    4  A    between atoms: C_17  and  O_18 
REMARK    5  A    between atoms: O_18  and  C_19 
REMARK    6  A    between atoms: C_22  and  C_25 
REMARK    7  A    between atoms: C_25  and  O_27 
REMARK    8  A    between atoms: O_27  and  C_28 
ROOT
HETATM    1  N   UNK N   1       2.122   3.049  -0.064  0.00  0.00    -0.366 N 
HETATM    2  C   UNK N   1       3.520   2.661  -0.207  0.00  0.00     0.125 C 
HETATM    3  C   UNK N   1       3.788   1.285   0.416  0.00  0.00     0.024 C 
HETATM    4  C   UNK N   1       2.756   0.304  -0.121  0.00  0.00    -0.009 C 
HETATM    5  C   UNK N   1       1.378   0.754   0.331  0.00  0.00     0.024 C 
HETATM    6  C   UNK N   1       1.080   2.079  -0.342  0.00  0.00     0.125 C 
ENDROOT
BRANCH   4   7
HETATM    7  C   UNK N   1       2.997  -1.134   0.291  0.00  0.00     0.031 C 
BRANCH   7   8
HETATM    8  C   UNK N   1       2.217  -1.992  -0.688  0.00  0.00     0.176 C 
BRANCH   8   9
HETATM    9  O   UNK N   1       1.689  -3.112  -0.089  0.00  0.00    -0.351 OA
BRANCH   9  10
HETATM   10  C   UNK N   1       0.353  -3.331  -0.016  0.00  0.00     0.068 A 
HETATM   11  C   UNK N   1      -0.108  -4.633   0.196  0.00  0.00     0.038 A 
HETATM   12  C   UNK N   1      -1.479  -4.902   0.216  0.00  0.00     0.020 A 
HETATM   13  C   UNK N   1      -2.408  -3.868   0.047  0.00  0.00     0.039 A 
HETATM   14  C   UNK N   1      -1.951  -2.554  -0.136  0.00  0.00     0.020 A 
HETATM   15  C   UNK N   1      -0.578  -2.288  -0.177  0.00  0.00     0.038 A 
BRANCH  13  16
HETATM   16  C   UNK N   1      -3.852  -4.177   0.030  0.00  0.00     0.293 C 
HETATM   17  O   UNK N   1      -4.673  -3.275  -0.078  0.00  0.00    -0.259 OA
BRANCH  16  18
HETATM   18  O   UNK N   1      -4.255  -5.471   0.097  0.00  0.00    -0.318 OA
BRANCH  18  19
HETATM   19  C   UNK N   1      -5.575  -5.845   0.017  0.00  0.00     0.174 C 
HETATM   20  C   UNK N   1      -5.666  -7.357   0.027  0.00  0.00     0.034 C 
ENDBRANCH  18  19
ENDBRANCH  16  18
ENDBRANCH  13  16
ENDBRANCH   9  10
ENDBRANCH   8   9
ENDBRANCH   7   8
ENDBRANCH   4   7
BRANCH   1  21
HETATM   21  C   UNK N   1       1.757   4.425   0.014  0.00  0.00     0.117 A 
HETATM   22  C   UNK N   1       2.728   5.432   0.051  0.00  0.00     0.051 A 
HETATM   23  C   UNK N   1       2.326   6.766   0.067  0.00  0.00     0.030 A 
HETATM   24  C   UNK N   1       0.966   7.064   0.047  0.00  0.00     0.022 A 
HETATM   25  C   UNK N   1       0.508   8.478   0.047  0.00  0.00     0.069 C 
HETATM   26  N   UNK N   1       0.057   6.057   0.021  0.00  0.00    -0.304 N 
HETATM   27  N   UNK N   1       0.441   4.778   0.003  0.00  0.00    -0.285 N 
ATOM     28  HN  UNK N   1      -0.938   6.282   0.016  1.00  0.00     0.186 HD
ATOM     29  HN  UNK N   1      -0.270   4.046  -0.020  1.00  0.00     0.188 HD
ENDBRANCH   1  21
TORSDOF 8
