REMARK  8 active torsions:
REMARK  status: ('A' for Active; 'I' for Inactive)
REMARK    1  A    between atoms: C_5  and  C_6 
REMARK    2  A    between atoms: C_6  and  C_11 
REMARK    3  A    between atoms: C_11  and  C_12 
REMARK    4  A    between atoms: C_12  and  C_13 
REMARK    5  A    between atoms: C_13  and  O_14 
REMARK    6  A    between atoms: O_14  and  P_15 
REMARK    7  A    between atoms: P_15  and  O_16 
REMARK    8  A    between atoms: P_15  and  O_17 
ROOT
HETATM    1  N   UNK N   1      -4.496  -0.174   0.103  0.00  0.00    -0.275 N 
HETATM    2  N   UNK N   1      -3.198   1.805   0.014  0.00  0.00    -0.298 N 
HETATM    3  C   UNK N   1      -2.064   1.088  -0.202  0.00  0.00     0.119 A 
HETATM    4 Cl   UNK N   1      -0.550   1.958  -0.403  0.00  0.00    -0.064 Cl
HETATM    5  C   UNK N   1      -2.126  -0.318  -0.272  0.00  0.00     0.049 A 
HETATM    6  C   UNK N   1      -4.410   1.189   0.163  0.00  0.00     0.328 A 
HETATM    7  C   UNK N   1      -3.378  -0.937  -0.111  0.00  0.00     0.258 A 
HETATM    8  O   UNK N   1      -5.413   1.855   0.342  0.00  0.00    -0.247 OA
HETATM    9  O   UNK N   1      -3.483  -2.150  -0.172  0.00  0.00    -0.267 OA
HETATM   10  H   UNK N   1      -5.370  -0.613   0.215  0.00  0.00     0.173 HD
HETATM   11  H   UNK N   1      -3.146   2.787   0.064  0.00  0.00     0.171 HD
ENDROOT
BRANCH   5  12
HETATM   12  C   UNK N   1      -0.904  -1.156  -0.553  0.00  0.00     0.048 C 
BRANCH  12  13
HETATM   13  C   UNK N   1       0.209  -0.968   0.467  0.00  0.00     0.007 C 
BRANCH  13  14
HETATM   14  C   UNK N   1       1.287  -2.006   0.217  0.00  0.00     0.027 C 
BRANCH  14  15
HETATM   15  C   UNK N   1       2.624  -1.547   0.769  0.00  0.00     0.180 C 
BRANCH  15  16
HETATM   16  O   UNK N   1       3.326  -0.851  -0.221  0.00  0.00    -0.297 OA
BRANCH  16  17
HETATM   17  P   UNK N   1       4.234   0.364   0.628  0.00  0.00     0.390 P 
HETATM   18  O   UNK N   1       3.469   1.211  -0.424  0.00  0.00    -0.632 OA
BRANCH  17  19
HETATM   19  O   UNK N   1       5.517   1.223  -0.167  0.00  0.00    -0.307 OA
HETATM   20  H   UNK N   1       6.290   0.842  -0.611  0.00  0.00     0.222 HD
ENDBRANCH  17  19
BRANCH  17  21
HETATM   21  O   UNK N   1       5.319  -0.728  -0.177  0.00  0.00    -0.307 OA
HETATM   22  H   UNK N   1       5.093  -1.558  -0.627  0.00  0.00     0.222 HD
ENDBRANCH  17  21
ENDBRANCH  16  17
ENDBRANCH  15  16
ENDBRANCH  14  15
ENDBRANCH  13  14
ENDBRANCH  12  13
ENDBRANCH   5  12
TORSDOF 8
