REMARK  9 active torsions:
REMARK  status: ('A' for Active; 'I' for Inactive)
REMARK    1  A    between atoms: C_7  and  C_27 
REMARK    2  A    between atoms: C_8  and  N_9 
REMARK    3  A    between atoms: C_13  and  C_21 
REMARK    4  A    between atoms: C_18  and  N_23 
REMARK    5  A    between atoms: C_19  and  C_21 
REMARK    6  A    between atoms: N_23  and  C_24 
REMARK    7  A    between atoms: C_24  and  C_25 
REMARK    8  A    between atoms: C_25  and  N_26 
REMARK    9  A    between atoms: N_26  and  C_27 
ROOT
HETATM    1  N   UNK N   1      -1.836   4.857   0.578  0.00  0.00    -0.419 N 
HETATM    2  C   UNK N   1      -0.456   4.575   0.980  0.00  0.00     0.139 C 
HETATM    3  C   UNK N   1       0.112   3.650  -0.073  0.00  0.00     0.100 C 
HETATM    4  C   UNK N   1      -1.102   2.812  -0.432  0.00  0.00     0.032 C 
HETATM    5  C   UNK N   1      -2.157   3.900  -0.485  0.00  0.00     0.120 C 
HETATM    6  H   UNK N   1      -2.450   5.576   0.961  0.00  0.00     0.153 HD
ENDROOT
BRANCH   3   7
HETATM    7  N   UNK N   1       1.239   2.873   0.440  0.00  0.00    -0.414 N 
HETATM    8  H   UNK N   1       1.627   2.942   1.381  0.00  0.00     0.153 HD
BRANCH   7   9
HETATM    9  C   UNK N   1       1.718   1.984  -0.610  0.00  0.00     0.133 C 
BRANCH   9  10
HETATM   10  C   UNK N   1       2.022   0.613  -0.027  0.00  0.00     0.133 C 
BRANCH  10  11
HETATM   11  N   UNK N   1       3.250   0.648   0.755  0.00  0.00    -0.416 N 
HETATM   12  H   UNK N   1       3.322   0.724   1.770  0.00  0.00     0.153 HD
BRANCH  11  13
HETATM   13  C   UNK N   1       4.355   0.554  -0.187  0.00  0.00     0.152 C 
BRANCH  13  14
HETATM   14  C   UNK N   1       5.230   1.758  -0.088  0.00  0.00    -0.041 A 
HETATM   15  C   UNK N   1       6.602   1.601   0.136  0.00  0.00     0.010 A 
HETATM   16  C   UNK N   1       7.432   2.725   0.201  0.00  0.00     0.024 A 
HETATM   17  C   UNK N   1       6.892   4.005   0.045  0.00  0.00     0.034 A 
HETATM   18  C   UNK N   1       5.522   4.164  -0.176  0.00  0.00     0.024 A 
HETATM   19 Cl   UNK N   1       7.932   5.410   0.119  0.00  0.00    -0.084 Cl
HETATM   20  C   UNK N   1       4.693   3.042  -0.247  0.00  0.00     0.010 A 
ENDBRANCH  13  14
ENDBRANCH  11  13
ENDBRANCH  10  11
ENDBRANCH   9  10
ENDBRANCH   7   9
ENDBRANCH   3   7
BRANCH   4  21
HETATM   21  C   UNK N   1      -1.427   1.789   0.673  0.00  0.00     0.065 C 
BRANCH  21  22
HETATM   22  C   UNK N   1      -2.661   0.995   0.391  0.00  0.00     0.011 A 
HETATM   23  C   UNK N   1      -2.583  -0.394   0.249  0.00  0.00     0.032 A 
HETATM   24  C   UNK N   1      -3.752  -1.121   0.006  0.00  0.00    -0.057 A 
HETATM   25  C   UNK N   1      -4.975  -0.456  -0.091  0.00  0.00     0.054 A 
HETATM   26  C   UNK N   1      -3.695  -2.598  -0.144  0.00  0.00     0.048 C 
HETATM   27  C   UNK N   1      -5.013   0.931   0.059  0.00  0.00     0.099 A 
HETATM   28  N   UNK N   1      -3.866   1.620   0.299  0.00  0.00    -0.346 N 
ATOM     29  HN  UNK N   1      -3.910   2.633   0.413  1.00  0.00     0.167 HD
BRANCH  27  30
HETATM   30  N   UNK N   1      -6.237   1.618  -0.034  0.00  0.00    -0.385 N 
HETATM   31  H   UNK N   1      -6.249   2.601  -0.099  0.00  0.00     0.157 HD
HETATM   32  H   UNK N   1      -7.084   1.116  -0.034  0.00  0.00     0.157 HD
ENDBRANCH  27  30
ENDBRANCH  21  22
ENDBRANCH   4  21
TORSDOF 9
