REMARK  5 active torsions:
REMARK  status: ('A' for Active; 'I' for Inactive)
REMARK    1  A    between atoms: C_1  and  O_24 
REMARK    2  A    between atoms: C_3  and  C_21 
REMARK    3  A    between atoms: C_6  and  C_14 
REMARK    4  A    between atoms: C_17  and  O_18 
REMARK    5  A    between atoms: C_21  and  O_22 
ROOT
HETATM    1  C   UNK N   1      -3.125  -2.889   0.125  0.00  0.00     0.067 A 
HETATM    2  C   UNK N   1      -3.663  -1.626   0.391  0.00  0.00     0.048 A 
HETATM    3  C   UNK N   1      -2.831  -0.504   0.475  0.00  0.00     0.002 A 
HETATM    4  C   UNK N   1      -1.447  -0.652   0.293  0.00  0.00     0.085 A 
HETATM    5  O   UNK N   1      -0.631   0.445   0.289  0.00  0.00    -0.340 OA
HETATM    6  C   UNK N   1       0.659   0.403  -0.233  0.00  0.00     0.166 C 
HETATM    7  C   UNK N   1       1.332  -0.845   0.359  0.00  0.00     0.028 C 
HETATM    8  C   UNK N   1       2.759  -1.216   0.023  0.00  0.00     0.008 C 
HETATM    9  C   UNK N   1       2.812  -2.706   0.406  0.00  0.00     0.001 C 
HETATM   10  C   UNK N   1       1.352  -3.175   0.543  0.00  0.00     0.010 C 
HETATM   11  C   UNK N   1       0.585  -2.069  -0.148  0.00  0.00     0.028 C 
HETATM   12  C   UNK N   1      -0.898  -1.939   0.078  0.00  0.00    -0.017 A 
HETATM   13  C   UNK N   1      -1.746  -3.047  -0.032  0.00  0.00     0.047 A 
ENDROOT
BRANCH   6  14
HETATM   14  C   UNK N   1       1.339   1.730  -0.004  0.00  0.00    -0.028 A 
HETATM   15  C   UNK N   1       0.720   2.888  -0.496  0.00  0.00     0.012 A 
HETATM   16  C   UNK N   1       1.333   4.135  -0.357  0.00  0.00     0.037 A 
HETATM   17  C   UNK N   1       2.579   4.233   0.263  0.00  0.00     0.065 A 
HETATM   18  C   UNK N   1       3.205   3.086   0.760  0.00  0.00     0.037 A 
HETATM   19  C   UNK N   1       2.587   1.837   0.631  0.00  0.00     0.012 A 
BRANCH  17  20
HETATM   20  O   UNK N   1       3.176   5.430   0.378  0.00  0.00    -0.361 OA
HETATM   21  H   UNK N   1       4.108   5.487   0.458  0.00  0.00     0.217 HD
ENDBRANCH  17  20
ENDBRANCH   6  14
BRANCH   3  22
HETATM   22  C   UNK N   1      -3.446   0.835   0.726  0.00  0.00     0.208 C 
BRANCH  22  23
HETATM   23  O   UNK N   1      -3.213   1.691  -0.352  0.00  0.00    -0.391 OA
HETATM   24  C   UNK N   1      -3.096   2.955   0.224  0.00  0.00     0.201 C 
ENDBRANCH  22  23
ENDBRANCH   3  22
BRANCH   1  25
HETATM   25  O   UNK N   1      -3.938  -3.951   0.011  0.00  0.00    -0.361 OA
HETATM   26  H   UNK N   1      -4.864  -3.830  -0.069  0.00  0.00     0.217 HD
ENDBRANCH   1  25
TORSDOF 5
