REMARK  2 active torsions:
REMARK  status: ('A' for Active; 'I' for Inactive)
REMARK       I    between atoms: N_2  and  C_3 
REMARK    1  A    between atoms: N_2  and  C_21 
REMARK    2  A    between atoms: C_6  and  C_7 
ROOT
HETATM    1  C   UNK N   1      -2.443  -3.930  -0.040  0.00  0.00     0.169 C 
HETATM    2  N   UNK N   1      -2.085  -2.535  -0.144  0.00  0.00    -0.217 N 
HETATM    3  C   UNK N   1      -0.697  -2.176  -0.042  0.00  0.00     0.680 A 
HETATM    4  N   UNK N   1      -0.318  -0.876  -0.071  0.00  0.00    -0.189 N 
ATOM      5  HN  UNK N   1      -1.036  -0.159  -0.163  1.00  0.00     0.184 HD
HETATM    6  C   UNK N   1       0.976  -0.491   0.017  0.00  0.00     0.079 A 
HETATM    7  C   UNK N   1       1.967  -1.466   0.149  0.00  0.00     0.050 A 
HETATM    8  C   UNK N   1       1.576  -2.808   0.189  0.00  0.00     0.108 A 
HETATM    9  N   UNK N   1       0.259  -3.140   0.095  0.00  0.00    -0.202 N 
ATOM     10  HN  UNK N   1      -0.017  -4.121   0.127  1.00  0.00     0.183 HD
ENDROOT
BRANCH   6  11
HETATM   11  C   UNK N   1       1.273   0.953  -0.038  0.00  0.00     0.083 A 
HETATM   12  N   UNK N   1       2.476   1.549   0.014  0.00  0.00    -0.305 N 
HETATM   13  C   UNK N   1       2.235   2.867  -0.074  0.00  0.00     0.111 A 
HETATM   14  C   UNK N   1       3.728   1.034   0.128  0.00  0.00     0.099 A 
HETATM   15  C   UNK N   1       3.266   3.798  -0.053  0.00  0.00     0.049 A 
HETATM   16  N   UNK N   1       0.923   3.147  -0.181  0.00  0.00    -0.350 N 
HETATM   17  C   UNK N   1       4.576   3.311   0.064  0.00  0.00     0.005 A 
HETATM   18  C   UNK N   1       4.812   1.924   0.155  0.00  0.00     0.018 A 
HETATM   19  C   UNK N   1       0.304   1.943  -0.160  0.00  0.00     0.122 A 
ATOM     20  HN  UNK N   1       0.489   4.066  -0.261  1.00  0.00     0.166 HD
ENDBRANCH   6  11
BRANCH   2  21
HETATM   21  C   UNK N   1      -3.176  -1.577  -0.366  0.00  0.00     0.101 C 
HETATM   22  C   UNK N   1      -4.120  -1.556   0.841  0.00  0.00     0.026 C 
HETATM   23  C   UNK N   1      -5.318  -0.645   0.577  0.00  0.00     0.002 C 
HETATM   24  C   UNK N   1      -4.845   0.772   0.275  0.00  0.00     0.000 C 
HETATM   25  C   UNK N   1      -3.958   0.762  -0.963  0.00  0.00     0.002 C 
HETATM   26  C   UNK N   1      -2.754  -0.143  -0.732  0.00  0.00     0.026 C 
ENDBRANCH   2  21
TORSDOF 2
