REMARK  8 active torsions:
REMARK  status: ('A' for Active; 'I' for Inactive)
REMARK    1  A    between atoms: N_3  and  C_14 
REMARK       I    between atoms: N_3  and  C_15 
REMARK    2  A    between atoms: S_5  and  C_17 
REMARK    3  A    between atoms: C_18  and  S_5 
REMARK    4  A    between atoms: N_7  and  C_16 
REMARK       I    between atoms: N_7  and  C_15 
REMARK    5  A    between atoms: C_23  and  N_10 
REMARK    6  A    between atoms: C_17  and  C_16 
REMARK    7  A    between atoms: C_18  and  C_19 
REMARK    8  A    between atoms: C_22  and  C_23 
ROOT
HETATM    1  N   UNK N   1      -4.712   1.442   0.038  0.00  0.00    -0.309 N 
HETATM    2  O   UNK N   1      -2.902   0.151   0.382  0.00  0.00    -0.247 OA
HETATM    3  N   UNK N   1      -2.583   2.361   0.387  0.00  0.00    -0.342 N 
HETATM    4  C   UNK N   1      -3.378   1.271   0.257  0.00  0.00     0.320 C 
HETATM    5  H   UNK N   1      -5.033   2.366  -0.075  0.00  0.00     0.170 HD
HETATM    6  H   UNK N   1      -2.970   3.257   0.260  0.00  0.00     0.164 HD
ENDROOT
BRANCH   3   7
HETATM    7  C   UNK N   1      -1.180   2.236   0.707  0.00  0.00     0.134 C 
BRANCH   7   8
HETATM    8  C   UNK N   1      -0.337   3.050  -0.254  0.00  0.00     0.094 C 
BRANCH   8   9
HETATM    9  S   UNK N   1       0.820   1.968  -1.146  0.00  0.00    -0.161 SA
BRANCH   9  10
HETATM   10  C   UNK N   1       2.109   2.055   0.142  0.00  0.00     0.139 C 
BRANCH  10  11
HETATM   11  C   UNK N   1       2.963   0.832   0.080  0.00  0.00     0.062 A 
HETATM   12  C   UNK N   1       2.522  -0.467   0.248  0.00  0.00     0.036 A 
HETATM   13  C   UNK N   1       3.632  -1.267   0.042  0.00  0.00     0.037 A 
HETATM   14  C   UNK N   1       4.673  -0.397  -0.227  0.00  0.00     0.081 A 
HETATM   15  O   UNK N   1       4.244   0.841  -0.199  0.00  0.00    -0.317 OA
BRANCH  14  16
HETATM   16  C   UNK N   1       6.074  -0.793  -0.582  0.00  0.00     0.335 C 
BRANCH  16  17
HETATM   17  N   UNK N   1       6.630  -1.720   0.395  0.00  0.00     0.086 N 
HETATM   18  C   UNK N   1       8.075  -1.628   0.293  0.00  0.00     0.309 C 
HETATM   19  C   UNK N   1       6.277  -3.065  -0.030  0.00  0.00     0.309 C 
ENDBRANCH  16  17
ENDBRANCH  14  16
ENDBRANCH  10  11
ENDBRANCH   9  10
ENDBRANCH   8   9
ENDBRANCH   7   8
ENDBRANCH   3   7
BRANCH   1  20
HETATM   20  C   UNK N   1      -5.686   0.401  -0.043  0.00  0.00     0.037 A 
HETATM   21  C   UNK N   1      -5.332  -0.958   0.011  0.00  0.00     0.054 A 
HETATM   22  C   UNK N   1      -6.310  -1.955  -0.023  0.00  0.00     0.042 A 
HETATM   23 Cl   UNK N   1      -5.808  -3.637   0.049  0.00  0.00    -0.084 Cl
HETATM   24  C   UNK N   1      -7.666  -1.597  -0.104  0.00  0.00    -0.040 A 
HETATM   25  C   UNK N   1      -8.737  -2.634  -0.125  0.00  0.00     0.050 C 
HETATM   26  C   UNK N   1      -8.024  -0.247  -0.163  0.00  0.00     0.011 A 
HETATM   27  C   UNK N   1      -7.039   0.746  -0.134  0.00  0.00     0.030 A 
ENDBRANCH   1  20
TORSDOF 8
