REMARK  4 active torsions:
REMARK  status: ('A' for Active; 'I' for Inactive)
REMARK    1  A    between atoms: N_6  and  C_17 
REMARK    2  A    between atoms: C_13  and  C_14 
REMARK    3  A    between atoms: C_17  and  C_18 
REMARK    4  A    between atoms: C_18  and  C_19 
ROOT
HETATM    1  S   UNK N   1      -1.076   0.295   0.662  0.00  0.00    -0.087 SA
HETATM    2  N   UNK N   1       1.473  -1.280  -0.010  0.00  0.00    -0.301 N 
ATOM      3  HN  UNK N   1       2.348  -1.776   0.163  1.00  0.00     0.186 HD
HETATM    4  N   UNK N   1       0.303  -2.011  -0.094  0.00  0.00    -0.280 N 
HETATM    5  N   UNK N   1      -2.036  -2.126  -0.102  0.00  0.00    -0.369 N 
ATOM      6  HN  UNK N   1      -1.934  -3.096  -0.399  1.00  0.00     0.161 HD
HETATM    7  C   UNK N   1       1.506   0.009  -0.141  0.00  0.00     0.045 C 
HETATM    8  C   UNK N   1       0.248   0.765  -0.477  0.00  0.00     0.142 C 
HETATM    9  C   UNK N   1      -0.977  -1.421   0.100  0.00  0.00     0.155 C 
HETATM   10  H   UNK N   1       0.357  -2.973  -0.295  0.00  0.00     0.189 HD
ENDROOT
BRANCH   7  11
HETATM   11  C   UNK N   1       2.798   0.730  -0.042  0.00  0.00    -0.011 A 
HETATM   12  C   UNK N   1       2.842   2.130  -0.141  0.00  0.00     0.015 A 
HETATM   13  C   UNK N   1       4.066   2.805  -0.095  0.00  0.00     0.024 A 
HETATM   14  C   UNK N   1       5.256   2.086   0.043  0.00  0.00     0.034 A 
HETATM   15 Cl   UNK N   1       6.790   2.929   0.066  0.00  0.00    -0.084 Cl
HETATM   16  C   UNK N   1       5.223   0.694   0.149  0.00  0.00     0.024 A 
HETATM   17  C   UNK N   1       3.999   0.018   0.111  0.00  0.00     0.015 A 
ENDBRANCH   7  11
BRANCH   5  18
HETATM   18  C   UNK N   1      -3.362  -1.588   0.079  0.00  0.00     0.125 C 
BRANCH  18  19
HETATM   19  C   UNK N   1      -4.403  -2.671  -0.108  0.00  0.00     0.046 C 
BRANCH  19  20
HETATM   20  C   UNK N   1      -5.754  -2.062   0.041  0.00  0.00    -0.035 C 
HETATM   21  C   UNK N   1      -6.845  -2.816  -0.041  0.00  0.00     0.007 C 
ENDBRANCH  19  20
ENDBRANCH  18  19
ENDBRANCH   5  18
TORSDOF 4
