REMARK  6 active torsions:
REMARK  status: ('A' for Active; 'I' for Inactive)
REMARK    1  A    between atoms: C_4  and  C_19 
REMARK    2  A    between atoms: C_10  and  O_18 
REMARK    3  A    between atoms: C_12  and  C_14 
REMARK       I    between atoms: N_15  and  C_12 
REMARK    4  A    between atoms: C_13  and  C_14 
REMARK    5  A    between atoms: O_18  and  C_13 
REMARK    6  A    between atoms: O_17  and  N_15 
ROOT
HETATM    1  C   UNK N   1      -4.623  -2.223  -0.000  0.00  0.00     0.044 A 
HETATM    2  C   UNK N   1      -3.384  -2.851  -0.003  0.00  0.00     0.023 A 
HETATM    3  C   UNK N   1      -2.248  -2.088  -0.002  0.00  0.00     0.014 A 
HETATM    4  C   UNK N   1      -2.372  -0.702   0.002  0.00  0.00    -0.026 A 
HETATM    5  C   UNK N   1      -4.750  -0.838   0.004  0.00  0.00     0.023 A 
HETATM    6  C   UNK N   1      -3.615  -0.075   0.005  0.00  0.00     0.014 A 
HETATM    7  C   UNK N   1      -5.765  -3.029  -0.003  0.00  0.00     0.099 C 
HETATM    8  N   UNK N   1      -6.680  -3.725  -0.004  0.00  0.00    -0.191 NA
ENDROOT
BRANCH   4   9
HETATM    9  C   UNK N   1      -1.224   0.101   0.002  0.00  0.00    -0.026 A 
HETATM   10  C   UNK N   1       0.015  -0.502   0.000  0.00  0.00     0.015 A 
HETATM   11  C   UNK N   1       1.093   0.302  -0.000  0.00  0.00     0.037 A 
HETATM   12  C   UNK N   1       0.948   1.729  -0.000  0.00  0.00     0.068 A 
HETATM   13  C   UNK N   1      -0.290   2.308   0.000  0.00  0.00     0.037 A 
HETATM   14  C   UNK N   1      -1.380   1.491   0.001  0.00  0.00     0.015 A 
BRANCH  12  15
HETATM   15  O   UNK N   1       2.019   2.518   0.000  0.00  0.00    -0.351 OA
BRANCH  15  16
HETATM   16  C   UNK N   1       3.136   1.805  -0.006  0.00  0.00     0.185 C 
BRANCH  16  17
HETATM   17  C   UNK N   1       4.463   2.318   0.002  0.00  0.00     0.131 C 
BRANCH  17  18
HETATM   18  C   UNK N   1       5.216   1.013   0.001  0.00  0.00     0.242 C 
HETATM   19  N   UNK N   1       6.541   1.069   0.000  0.00  0.00    -0.237 N 
HETATM   20  H   UNK N   1       7.002   1.939   0.001  0.00  0.00     0.197 HD
HETATM   21  O   UNK N   1       4.660  -0.097   0.000  0.00  0.00    -0.271 OA
BRANCH  19  22
HETATM   22  O   UNK N   1       7.244  -0.064  -0.000  0.00  0.00    -0.287 OA
HETATM   23  H   UNK N   1       6.786  -0.919  -0.001  0.00  0.00     0.244 HD
ENDBRANCH  19  22
ENDBRANCH  17  18
ENDBRANCH  16  17
ENDBRANCH  15  16
ENDBRANCH  12  15
ENDBRANCH   4   9
TORSDOF 6
