REMARK  5 active torsions:
REMARK  status: ('A' for Active; 'I' for Inactive)
REMARK    1  A    between atoms: C_2  and  N_3 
REMARK    2  A    between atoms: C_2  and  C_30 
REMARK       I    between atoms: N_3  and  C_4 
REMARK    3  A    between atoms: C_4  and  C_5 
REMARK    4  A    between atoms: C_21  and  C_22 
REMARK    5  A    between atoms: C_30  and  O_32 
ROOT
HETATM    1  C   UNK N   1       4.863  -1.478   0.010  0.00  0.00     0.034 A 
HETATM    2  C   UNK N   1       4.858  -0.076   0.201  0.00  0.00     0.018 A 
HETATM    3  C   UNK N   1       3.645   0.627   0.308  0.00  0.00     0.015 A 
HETATM    4  C   UNK N   1       2.450  -0.087   0.206  0.00  0.00    -0.000 A 
HETATM    5  C   UNK N   1       2.454  -1.439   0.022  0.00  0.00     0.046 A 
HETATM    6  N   UNK N   1       1.203  -1.915  -0.070  0.00  0.00    -0.343 N 
HETATM    7  C   UNK N   1       0.347  -0.865   0.081  0.00  0.00     0.055 A 
HETATM    8  C   UNK N   1      -1.165  -0.990   0.065  0.00  0.00     0.025 A 
HETATM    9  C   UNK N   1      -1.903  -2.230   0.102  0.00  0.00     0.081 A 
HETATM   10  C   UNK N   1      -3.302  -2.197   0.012  0.00  0.00     0.038 A 
HETATM   11  C   UNK N   1      -3.998  -0.998  -0.080  0.00  0.00     0.003 A 
HETATM   12  C   UNK N   1      -3.303   0.201  -0.070  0.00  0.00     0.001 A 
HETATM   13  C   UNK N   1      -1.912   0.196  -0.001  0.00  0.00     0.016 A 
HETATM   14  O   UNK N   1      -1.360  -3.465   0.251  0.00  0.00    -0.349 OA
HETATM   15  C   UNK N   1      -0.098  -3.762   0.690  0.00  0.00     0.196 C 
HETATM   16  C   UNK N   1       0.883  -3.300  -0.331  0.00  0.00     0.156 C 
HETATM   17  C   UNK N   1       1.116   0.326   0.235  0.00  0.00    -0.014 A 
HETATM   18  C   UNK N   1       3.640  -2.171  -0.078  0.00  0.00     0.047 A 
ENDROOT
BRANCH   1  19
HETATM   19  C   UNK N   1       6.139  -2.202  -0.183  0.00  0.00     0.252 C 
HETATM   20  N   UNK N   1       7.300  -1.492  -0.296  0.00  0.00    -0.338 N 
HETATM   21  H   UNK N   1       7.230  -0.527  -0.118  0.00  0.00     0.164 HD
HETATM   22  O   UNK N   1       6.126  -3.418  -0.304  0.00  0.00    -0.268 OA
BRANCH  20  23
HETATM   23  C   UNK N   1       8.634  -1.978  -0.645  0.00  0.00     0.111 C 
HETATM   24  C   UNK N   1       8.693  -3.474  -0.950  0.00  0.00     0.050 C 
HETATM   25  C   UNK N   1       9.067  -1.256  -1.908  0.00  0.00     0.050 C 
BRANCH  23  26
HETATM   26  C   UNK N   1       9.602  -1.628   0.459  0.00  0.00     0.168 C 
HETATM   27  O   UNK N   1       9.732  -0.465   0.811  0.00  0.00    -0.648 OA
BRANCH  26  28
HETATM   28  O   UNK N   1      10.343  -2.585   1.057  0.00  0.00    -0.775 OA
HETATM   29  H   UNK N   1      10.025  -3.362   1.471  0.00  0.00     0.167 HD
ENDBRANCH  26  28
ENDBRANCH  23  26
ENDBRANCH  20  23
ENDBRANCH   1  19
BRANCH  17  30
HETATM   30  C   UNK N   1       0.628   1.764   0.406  0.00  0.00     0.022 C 
HETATM   31  C   UNK N   1      -0.123   2.250  -0.837  0.00  0.00     0.009 C 
HETATM   32  C   UNK N   1      -0.724   3.628  -0.576  0.00  0.00     0.001 C 
HETATM   33  C   UNK N   1       0.394   4.628  -0.309  0.00  0.00     0.000 C 
HETATM   34  C   UNK N   1       1.217   4.182   0.896  0.00  0.00     0.001 C 
HETATM   35  C   UNK N   1       1.758   2.768   0.688  0.00  0.00     0.009 C 
ENDBRANCH  17  30
TORSDOF 5
