REMARK  4 active torsions:
REMARK  status: ('A' for Active; 'I' for Inactive)
REMARK    1  A    between atoms: N_1  and  C_2 
REMARK    2  A    between atoms: C_10  and  C_18 
REMARK    3  A    between atoms: N_13  and  C_14 
REMARK    4  A    between atoms: C_18  and  C_19 
ROOT
HETATM    1  C   UNK N   1       1.671   0.229   0.384  0.00  0.00     0.116 A 
HETATM    2  N   UNK N   1       2.743  -0.592   0.584  0.00  0.00    -0.338 N 
ATOM      3  HN  UNK N   1       3.659  -0.179   0.758  1.00  0.00     0.168 HD
HETATM    4  C   UNK N   1       2.619  -1.953   0.557  0.00  0.00     0.183 A 
HETATM    5  N   UNK N   1       1.401  -2.527   0.361  0.00  0.00    -0.336 N 
ATOM      6  HN  UNK N   1       1.295  -3.542   0.367  1.00  0.00     0.168 HD
HETATM    7  C   UNK N   1       0.332  -1.722   0.158  0.00  0.00     0.140 A 
HETATM    8  C   UNK N   1       0.414  -0.356   0.139  0.00  0.00     0.077 A 
HETATM    9  C   UNK N   1      -0.906   0.068  -0.121  0.00  0.00     0.048 A 
HETATM   10  N   UNK N   1      -1.694  -1.036  -0.183  0.00  0.00    -0.299 N 
ATOM     11  HN  UNK N   1      -2.702  -1.035  -0.337  1.00  0.00     0.187 HD
HETATM   12  N   UNK N   1      -0.942  -2.114  -0.012  0.00  0.00    -0.267 N 
ENDROOT
BRANCH   9  13
HETATM   13  C   UNK N   1      -1.530   1.426  -0.352  0.00  0.00     0.099 C 
BRANCH  13  14
HETATM   14  C   UNK N   1      -0.665   2.642  -0.449  0.00  0.00    -0.046 A 
HETATM   15  C   UNK N   1       0.308   2.739  -1.455  0.00  0.00     0.014 A 
HETATM   16  C   UNK N   1       1.131   3.868  -1.526  0.00  0.00    -0.061 A 
HETATM   17  C   UNK N   1       0.961   4.917  -0.619  0.00  0.00     0.007 A 
HETATM   18  C   UNK N   1       2.214   3.937  -2.541  0.00  0.00     0.048 C 
HETATM   19  C   UNK N   1      -0.038   4.845   0.355  0.00  0.00     0.008 A 
HETATM   20  C   UNK N   1      -0.851   3.713   0.447  0.00  0.00    -0.055 A 
HETATM   21  C   UNK N   1      -1.914   3.669   1.494  0.00  0.00     0.049 C 
ENDBRANCH  13  14
ENDBRANCH   9  13
BRANCH   1  22
HETATM   22  N   UNK N   1       1.848   1.615   0.509  0.00  0.00    -0.385 N 
HETATM   23  H   UNK N   1       2.752   1.995   0.597  0.00  0.00     0.157 HD
HETATM   24  H   UNK N   1       1.064   2.211   0.509  0.00  0.00     0.157 HD
ENDBRANCH   1  22
BRANCH  12  25
HETATM   25  C   UNK N   1      -1.455  -3.493   0.009  0.00  0.00     0.044 C 
HETATM   26  C   UNK N   1      -0.962  -4.249  -1.210  0.00  0.00     0.039 C 
HETATM   27  C   UNK N   1      -2.976  -3.511   0.006  0.00  0.00     0.039 C 
HETATM   28  C   UNK N   1      -0.989  -4.212   1.264  0.00  0.00     0.039 C 
ENDBRANCH  12  25
TORSDOF 4
