REMARK  4 active torsions:
REMARK  status: ('A' for Active; 'I' for Inactive)
REMARK    1  A    between atoms: N_2  and  S_4 
REMARK    2  A    between atoms: S_4  and  C_7 
REMARK    3  A    between atoms: C_16  and  C_17 
REMARK    4  A    between atoms: C_17  and  C_18 
ROOT
HETATM    1  C   UNK N   1      -3.142  -0.461   0.262  0.00  0.00     0.075 A 
HETATM    2  C   UNK N   1      -1.800  -0.097   0.116  0.00  0.00     0.039 A 
HETATM    3  C   UNK N   1      -0.879  -1.086  -0.181  0.00  0.00     0.008 A 
HETATM    4  C   UNK N   1      -3.533  -1.815   0.098  0.00  0.00     0.027 A 
HETATM    5  C   UNK N   1      -2.571  -2.804  -0.213  0.00  0.00     0.032 A 
HETATM    6  C   UNK N   1      -1.240  -2.404  -0.330  0.00  0.00     0.046 A 
HETATM    7  N   UNK N   1      -0.107  -3.219  -0.544  0.00  0.00    -0.322 N 
HETATM    8  C   UNK N   1       0.977  -2.405  -0.516  0.00  0.00     0.257 A 
HETATM    9  O   UNK N   1       2.116  -2.807  -0.669  0.00  0.00    -0.267 OA
HETATM   10  C   UNK N   1       0.559  -1.003  -0.298  0.00  0.00     0.047 A 
HETATM   11  H   UNK N   1      -0.105  -4.193  -0.688  0.00  0.00     0.169 HD
ENDROOT
BRANCH  10  12
HETATM   12  C   UNK N   1       1.241   0.147  -0.204  0.00  0.00     0.047 C 
BRANCH  12  13
HETATM   13  C   UNK N   1       2.695   0.314  -0.196  0.00  0.00     0.033 A 
HETATM   14  C   UNK N   1       3.327   1.519  -0.463  0.00  0.00     0.038 A 
HETATM   15  C   UNK N   1       4.664   1.259  -0.283  0.00  0.00    -0.033 A 
HETATM   16  C   UNK N   1       5.812   2.202  -0.452  0.00  0.00     0.040 C 
HETATM   17  C   UNK N   1       4.785  -0.055   0.088  0.00  0.00     0.016 A 
HETATM   18  C   UNK N   1       7.105   1.596   0.117  0.00  0.00     0.005 C 
HETATM   19  C   UNK N   1       7.246   0.101  -0.204  0.00  0.00     0.006 C 
HETATM   20  C   UNK N   1       6.089  -0.725   0.377  0.00  0.00     0.057 C 
HETATM   21  N   UNK N   1       3.581  -0.643   0.150  0.00  0.00    -0.359 N 
HETATM   22  H   UNK N   1       3.385  -1.576   0.397  0.00  0.00     0.166 HD
ENDBRANCH  12  13
ENDBRANCH  10  12
BRANCH   1  23
HETATM   23  S   UNK N   1      -4.284   0.772   0.884  0.00  0.00     0.243 S 
HETATM   24  O   UNK N   1      -5.254   0.195   1.925  0.00  0.00    -0.206 OA
HETATM   25  O   UNK N   1      -3.506   1.754   1.776  0.00  0.00    -0.206 OA
BRANCH  23  26
HETATM   26  N   UNK N   1      -5.256   1.829  -0.152  0.00  0.00    -0.215 NA
HETATM   27  C   UNK N   1      -6.047   0.999  -1.041  0.00  0.00     0.129 C 
HETATM   28  C   UNK N   1      -4.356   2.625  -0.968  0.00  0.00     0.129 C 
ENDBRANCH  23  26
ENDBRANCH   1  23
TORSDOF 4
