REMARK  9 active torsions:
REMARK  status: ('A' for Active; 'I' for Inactive)
REMARK       I    between atoms: N_3  and  C_2 
REMARK    1  A    between atoms: C_5  and  C_2 
REMARK    2  A    between atoms: N_3  and  O_4 
REMARK    3  A    between atoms: C_5  and  C_6 
REMARK    4  A    between atoms: C_6  and  C_15 
REMARK    5  A    between atoms: C_6  and  C_7 
REMARK       I    between atoms: C_7  and  N_9 
REMARK    6  A    between atoms: C_10  and  N_9 
REMARK    7  A    between atoms: C_12  and  C_10 
REMARK    8  A    between atoms: C_12  and  O_14 
REMARK    9  A    between atoms: C_15  and  C_16 
ROOT
HETATM    1  C   UNK N   1       0.349  -0.715  -0.040  0.00  0.00     0.091 C 
ENDROOT
BRANCH   1   2
HETATM    2  C   UNK N   1       0.105   0.541  -0.899  0.00  0.00     0.119 C 
BRANCH   2   3
HETATM    3  C   UNK N   1      -0.378   1.756  -0.154  0.00  0.00     0.241 C 
HETATM    4  O   UNK N   1       0.312   2.253   0.724  0.00  0.00    -0.271 OA
HETATM    5  N   UNK N   1      -1.550   2.335  -0.494  0.00  0.00    -0.237 N 
HETATM    6  H   UNK N   1      -2.096   1.943  -1.213  0.00  0.00     0.197 HD
BRANCH   5   7
HETATM    7  O   UNK N   1      -1.979   3.437   0.136  0.00  0.00    -0.287 OA
HETATM    8  H   UNK N   1      -1.443   4.105   0.592  0.00  0.00     0.244 HD
ENDBRANCH   5   7
ENDBRANCH   2   3
ENDBRANCH   1   2
BRANCH   1   9
HETATM    9  C   UNK N   1      -0.715  -1.804  -0.315  0.00  0.00     0.053 C 
BRANCH   9  10
HETATM   10  C   UNK N   1      -2.184  -1.575  -0.103  0.00  0.00    -0.057 A 
HETATM   11  C   UNK N   1      -3.046  -2.660  -0.301  0.00  0.00     0.007 A 
HETATM   12  C   UNK N   1      -4.427  -2.506  -0.160  0.00  0.00     0.001 A 
HETATM   13  C   UNK N   1      -4.957  -1.257   0.171  0.00  0.00     0.000 A 
HETATM   14  C   UNK N   1      -4.103  -0.168   0.373  0.00  0.00     0.001 A 
HETATM   15  C   UNK N   1      -2.719  -0.328   0.241  0.00  0.00     0.007 A 
ENDBRANCH   9  10
ENDBRANCH   1   9
BRANCH   1  16
HETATM   16  C   UNK N   1       1.709  -1.296  -0.448  0.00  0.00     0.223 C 
HETATM   17  N   UNK N   1       2.895  -0.672  -0.200  0.00  0.00    -0.347 N 
HETATM   18  H   UNK N   1       3.695  -1.072  -0.612  0.00  0.00     0.163 HD
HETATM   19  O   UNK N   1       1.745  -2.363  -1.045  0.00  0.00    -0.273 OA
BRANCH  17  20
HETATM   20  C   UNK N   1       3.108   0.513   0.601  0.00  0.00     0.178 C 
HETATM   21  C   UNK N   1       4.130   0.177   1.674  0.00  0.00     0.043 C 
BRANCH  20  22
HETATM   22  C   UNK N   1       3.592   1.639  -0.276  0.00  0.00     0.163 C 
HETATM   23  O   UNK N   1       2.878   2.059  -1.173  0.00  0.00    -0.648 OA
BRANCH  22  24
HETATM   24  O   UNK N   1       4.804   2.197  -0.080  0.00  0.00    -0.775 OA
HETATM   25  H   UNK N   1       5.561   1.662   0.056  0.00  0.00     0.167 HD
ENDBRANCH  22  24
ENDBRANCH  20  22
ENDBRANCH  17  20
ENDBRANCH   1  16
TORSDOF 9
