REMARK  10 active torsions:
REMARK  status: ('A' for Active; 'I' for Inactive)
REMARK    1  A    between atoms: O_1  and  C_8 
REMARK    2  A    between atoms: O_1  and  C_19 
REMARK    3  A    between atoms: C_5  and  C_19 
REMARK       I    between atoms: C_8  and  N_10 
REMARK    4  A    between atoms: C_11  and  N_10 
REMARK    5  A    between atoms: C_11  and  C_12 
REMARK    6  A    between atoms: C_11  and  C_20 
REMARK    7  A    between atoms: C_12  and  C_13 
REMARK    8  A    between atoms: C_20  and  O_21 
REMARK    9  A    between atoms: C_20  and  C_22 
REMARK   10  A    between atoms: C_22  and  O_24 
ROOT
HETATM    1  C   UNK N   1      -2.466  -1.511   0.330  0.00  0.00     0.130 C 
ENDROOT
BRANCH   1   2
HETATM    2  N   UNK N   1      -1.635  -1.495  -0.861  0.00  0.00    -0.329 N 
HETATM    3  C   UNK N   1      -0.281  -1.450  -0.801  0.00  0.00     0.361 C 
HETATM    4  O   UNK N   1       0.368  -1.437  -1.836  0.00  0.00    -0.238 OA
HETATM    5  H   UNK N   1      -2.071  -1.518  -1.744  0.00  0.00     0.165 HD
BRANCH   3   6
HETATM    6  O   UNK N   1       0.341  -1.441   0.408  0.00  0.00    -0.299 OA
BRANCH   6   7
HETATM    7  C   UNK N   1       1.709  -1.468   0.587  0.00  0.00     0.219 C 
BRANCH   7   8
HETATM    8  C   UNK N   1       2.292  -2.787   0.191  0.00  0.00    -0.034 A 
HETATM    9  C   UNK N   1       1.715  -3.983   0.639  0.00  0.00     0.009 A 
HETATM   10  C   UNK N   1       2.274  -5.211   0.273  0.00  0.00     0.001 A 
HETATM   11  C   UNK N   1       3.419  -5.246  -0.529  0.00  0.00     0.000 A 
HETATM   12  C   UNK N   1       4.002  -4.053  -0.968  0.00  0.00     0.001 A 
HETATM   13  C   UNK N   1       3.436  -2.825  -0.612  0.00  0.00     0.009 A 
ENDBRANCH   7   8
ENDBRANCH   6   7
ENDBRANCH   3   6
ENDBRANCH   1   2
BRANCH   1  14
HETATM   14  C   UNK N   1      -2.286  -0.211   1.142  0.00  0.00     0.067 C 
BRANCH  14  15
HETATM   15  C   UNK N   1      -2.748   1.070   0.521  0.00  0.00    -0.056 A 
HETATM   16  C   UNK N   1      -4.109   1.399   0.499  0.00  0.00     0.007 A 
HETATM   17  C   UNK N   1      -4.524   2.643   0.012  0.00  0.00     0.001 A 
HETATM   18  C   UNK N   1      -3.578   3.567  -0.441  0.00  0.00     0.000 A 
HETATM   19  C   UNK N   1      -2.218   3.246  -0.410  0.00  0.00     0.001 A 
HETATM   20  C   UNK N   1      -1.803   2.003   0.080  0.00  0.00     0.007 A 
ENDBRANCH  14  15
ENDBRANCH   1  14
BRANCH   1  21
HETATM   21  C   UNK N   1      -3.934  -1.818  -0.043  0.00  0.00     0.238 C 
BRANCH  21  22
HETATM   22  O   UNK N   1      -4.740  -1.698   1.092  0.00  0.00    -0.383 OA
HETATM   23  H   UNK N   1      -4.948  -1.172   1.880  0.00  0.00     0.210 HD
ENDBRANCH  21  22
BRANCH  21  24
HETATM   24  C   UNK N   1      -4.118  -3.214  -0.600  0.00  0.00     0.171 C 
HETATM   25  O   UNK N   1      -3.175  -3.985  -0.694  0.00  0.00    -0.648 OA
BRANCH  24  26
HETATM   26  O   UNK N   1      -5.346  -3.624  -0.970  0.00  0.00    -0.774 OA
HETATM   27  H   UNK N   1      -6.020  -3.027  -1.227  0.00  0.00     0.167 HD
ENDBRANCH  24  26
ENDBRANCH  21  24
ENDBRANCH   1  21
TORSDOF 10
