REMARK  3 active torsions:
REMARK  status: ('A' for Active; 'I' for Inactive)
REMARK    1  A    between atoms: C_5  and  O_6 
REMARK    2  A    between atoms: C_7  and  O_8 
REMARK    3  A    between atoms: C_11  and  C_14 
ROOT
HETATM    1  O   UNK N   1      -3.227   3.230   0.000  0.00  0.00    -0.260 OA
HETATM    2  C   UNK N   1      -2.229   2.530   0.000  0.00  0.00     0.289 A 
HETATM    3  O   UNK N   1      -1.028   3.098   0.000  0.00  0.00    -0.272 OA
HETATM    4  C   UNK N   1       0.097   2.386  -0.000  0.00  0.00     0.126 A 
HETATM    5  C   UNK N   1       1.339   3.045  -0.000  0.00  0.00     0.134 A 
HETATM    6  C   UNK N   1       2.528   2.300  -0.000  0.00  0.00     0.101 A 
HETATM    7  C   UNK N   1       2.481   0.910  -0.000  0.00  0.00     0.040 A 
HETATM    8  C   UNK N   1      -2.360   1.140  -0.000  0.00  0.00     0.095 A 
HETATM    9  C   UNK N   1      -1.217   0.325  -0.000  0.00  0.00    -0.007 A 
HETATM   10  C   UNK N   1       0.048   0.970  -0.000  0.00  0.00     0.012 A 
HETATM   11  C   UNK N   1       1.254   0.254  -0.000  0.00  0.00     0.018 A 
ENDROOT
BRANCH   9  12
HETATM   12  C   UNK N   1      -1.390  -1.170   0.000  0.00  0.00    -0.025 A 
HETATM   13  C   UNK N   1      -0.285  -2.040   0.000  0.00  0.00     0.012 A 
HETATM   14  C   UNK N   1      -0.451  -3.424   0.000  0.00  0.00     0.001 A 
HETATM   15  C   UNK N   1      -1.734  -3.968   0.000  0.00  0.00     0.000 A 
HETATM   16  C   UNK N   1      -2.847  -3.124  -0.000  0.00  0.00     0.001 A 
HETATM   17  C   UNK N   1      -2.678  -1.735  -0.000  0.00  0.00     0.012 A 
ENDBRANCH   9  12
BRANCH   5  18
HETATM   18  O   UNK N   1       1.390   4.388   0.000  0.00  0.00    -0.356 OA
HETATM   19  H   UNK N   1       2.218   4.825   0.000  0.00  0.00     0.218 HD
ENDBRANCH   5  18
BRANCH   6  20
HETATM   20  O   UNK N   1       3.719   2.921  -0.000  0.00  0.00    -0.358 OA
HETATM   21  H   UNK N   1       4.510   2.418  -0.000  0.00  0.00     0.217 HD
ENDBRANCH   6  20
TORSDOF 3
