REMARK  6 active torsions:
REMARK  status: ('A' for Active; 'I' for Inactive)
REMARK    1  A    between atoms: C_6  and  C_7 
REMARK       I    between atoms: C_7  and  N_9 
REMARK       I    between atoms: N_15  and  C_16 
REMARK    2  A    between atoms: C_16  and  C_18 
REMARK    3  A    between atoms: C_18  and  C_19 
REMARK    4  A    between atoms: C_19  and  N_20 
REMARK    5  A    between atoms: C_19  and  C_21 
REMARK    6  A    between atoms: C_21  and  C_22 
ROOT
HETATM    1  C   UNK N   1      -4.413  -1.741  -1.262  0.00  0.00     0.272 C 
HETATM    2  O   UNK N   1      -4.765  -2.046  -2.395  0.00  0.00    -0.266 OA
HETATM    3  N   UNK N   1      -3.105  -1.946  -0.891  0.00  0.00    -0.252 N 
HETATM    4  C   UNK N   1      -2.238  -2.682  -1.793  0.00  0.00     0.153 C 
HETATM    5  C   UNK N   1      -2.137  -4.138  -1.353  0.00  0.00     0.022 C 
HETATM    6  C   UNK N   1      -1.281  -4.308  -0.105  0.00  0.00     0.003 C 
HETATM    7  C   UNK N   1      -1.891  -3.599   1.092  0.00  0.00     0.022 C 
HETATM    8  C   UNK N   1      -1.559  -2.119   1.016  0.00  0.00     0.152 C 
HETATM    9  N   UNK N   1      -2.529  -1.367   0.233  0.00  0.00    -0.256 N 
HETATM   10  C   UNK N   1      -2.546   0.002   0.377  0.00  0.00     0.240 C 
HETATM   11  O   UNK N   1      -3.276   0.695  -0.315  0.00  0.00    -0.272 OA
ENDROOT
BRANCH  10  12
HETATM   12  C   UNK N   1      -1.501   0.685   1.226  0.00  0.00     0.129 C 
BRANCH  12  13
HETATM   13  C   UNK N   1      -0.188   0.723   0.416  0.00  0.00     0.087 C 
BRANCH  13  14
HETATM   14  N   UNK N   1      -0.184   1.878  -0.466  0.00  0.00    -0.425 N 
HETATM   15  H   UNK N   1       0.520   2.281  -1.085  0.00  0.00     0.150 HD
HETATM   16  H   UNK N   1      -1.066   2.391  -0.466  0.00  0.00     0.150 HD
ENDBRANCH  13  14
BRANCH  13  17
HETATM   17  C   UNK N   1       1.029   0.767   1.340  0.00  0.00     0.067 C 
BRANCH  17  18
HETATM   18  C   UNK N   1       2.257   0.150   0.717  0.00  0.00    -0.015 A 
HETATM   19  C   UNK N   1       3.371   0.948   0.421  0.00  0.00     0.055 A 
HETATM   20  C   UNK N   1       4.525   0.372  -0.130  0.00  0.00     0.155 A 
HETATM   21  F   UNK N   1       5.601   1.148  -0.409  0.00  0.00    -0.203 F 
HETATM   22  C   UNK N   1       4.569  -1.003  -0.385  0.00  0.00     0.157 A 
HETATM   23  F   UNK N   1       5.685  -1.568  -0.910  0.00  0.00    -0.203 F 
HETATM   24  C   UNK N   1       3.465  -1.802  -0.091  0.00  0.00     0.088 A 
HETATM   25  C   UNK N   1       2.315  -1.234   0.459  0.00  0.00     0.125 A 
HETATM   26  F   UNK N   1       1.267  -2.038   0.755  0.00  0.00    -0.205 F 
ENDBRANCH  17  18
ENDBRANCH  13  17
ENDBRANCH  12  13
ENDBRANCH  10  12
BRANCH   1  27
HETATM   27  C   UNK N   1      -5.463  -1.271  -0.317  0.00  0.00     0.033 A 
HETATM   28  C   UNK N   1      -5.280  -1.347   1.073  0.00  0.00     0.017 A 
HETATM   29  C   UNK N   1      -6.331  -1.045   1.944  0.00  0.00     0.001 A 
HETATM   30  C   UNK N   1      -7.575  -0.664   1.434  0.00  0.00     0.000 A 
HETATM   31  C   UNK N   1      -7.769  -0.586   0.054  0.00  0.00     0.001 A 
HETATM   32  C   UNK N   1      -6.724  -0.905  -0.817  0.00  0.00     0.017 A 
ENDBRANCH   1  27
TORSDOF 6
