REMARK  3 active torsions:
REMARK  status: ('A' for Active; 'I' for Inactive)
REMARK    1  A    between atoms: C_5  and  N_6 
REMARK    2  A    between atoms: C_15  and  N_16 
REMARK    3  A    between atoms: C_18  and  C_19 
ROOT
HETATM    1  N   UNK N   1       1.683  -0.347   0.168  0.00  0.00    -0.270 N 
HETATM    2  N   UNK N   1       0.772   0.609  -0.004  0.00  0.00    -0.295 N 
ATOM      3  HN  UNK N   1       0.957   1.611  -0.039  1.00  0.00     0.187 HD
HETATM    4  C   UNK N   1       1.064  -1.536   0.140  0.00  0.00     0.140 A 
HETATM    5  N   UNK N   1       1.639  -2.752   0.301  0.00  0.00    -0.337 N 
ATOM      6  HN  UNK N   1       2.644  -2.840   0.452  1.00  0.00     0.168 HD
HETATM    7  C   UNK N   1       0.839  -3.856   0.257  0.00  0.00     0.183 A 
HETATM    8  N   UNK N   1      -0.508  -3.729   0.052  0.00  0.00    -0.338 N 
ATOM      9  HN  UNK N   1      -1.088  -4.567   0.011  1.00  0.00     0.168 HD
HETATM   10  C   UNK N   1      -1.093  -2.505  -0.100  0.00  0.00     0.116 A 
HETATM   11  C   UNK N   1      -0.274  -1.368  -0.046  0.00  0.00     0.082 A 
HETATM   12  C   UNK N   1      -0.447   0.020  -0.125  0.00  0.00     0.077 A 
ENDROOT
BRANCH  12  13
HETATM   13  C   UNK N   1      -1.698   0.806  -0.196  0.00  0.00     0.009 A 
HETATM   14  C   UNK N   1      -2.927   0.225   0.160  0.00  0.00     0.030 A 
HETATM   15  C   UNK N   1      -4.044   1.039   0.210  0.00  0.00     0.010 A 
HETATM   16  C   UNK N   1      -5.343   0.762   0.555  0.00  0.00     0.032 A 
HETATM   17  C   UNK N   1      -3.964   2.357  -0.087  0.00  0.00     0.115 A 
HETATM   18  C   UNK N   1      -6.012   1.984   0.439  0.00  0.00     0.090 A 
HETATM   19  N   UNK N   1      -5.153   2.959   0.042  0.00  0.00    -0.352 N 
HETATM   20  H   UNK N   1      -5.361   3.908  -0.118  0.00  0.00     0.166 HD
HETATM   21  N   UNK N   1      -2.798   2.952  -0.444  0.00  0.00    -0.351 N 
HETATM   22  C   UNK N   1      -1.656   2.196  -0.485  0.00  0.00     0.103 A 
ATOM     23  HN  UNK N   1      -2.772   3.944  -0.678  1.00  0.00     0.166 HD
ENDBRANCH  12  13
BRANCH   1  24
HETATM   24  C   UNK N   1       3.102  -0.119   0.437  0.00  0.00     0.110 C 
HETATM   25  C   UNK N   1       3.482   1.342   0.485  0.00  0.00     0.027 C 
HETATM   26  C   UNK N   1       4.987   1.327   0.302  0.00  0.00     0.002 C 
HETATM   27  C   UNK N   1       5.321   0.014  -0.400  0.00  0.00     0.002 C 
HETATM   28  C   UNK N   1       4.001  -0.701  -0.624  0.00  0.00     0.027 C 
ENDBRANCH   1  24
BRANCH  10  29
HETATM   29  N   UNK N   1      -2.479  -2.426  -0.331  0.00  0.00    -0.385 N 
HETATM   30  H   UNK N   1      -2.916  -1.558  -0.493  0.00  0.00     0.157 HD
HETATM   31  H   UNK N   1      -3.019  -3.249  -0.331  0.00  0.00     0.157 HD
ENDBRANCH  10  29
TORSDOF 3
