REMARK  2 active torsions:
REMARK  status: ('A' for Active; 'I' for Inactive)
REMARK    1  A    between atoms: C_4  and  C_14 
REMARK    2  A    between atoms: C_6  and  C_7 
ROOT
HETATM    1  N   UNK N   1       0.567   1.853   0.261  0.00  0.00    -0.304 N 
HETATM    2  N   UNK N   1       1.619   1.056   0.135  0.00  0.00    -0.300 N 
ATOM      3  HN  UNK N   1       2.596   1.350   0.137  1.00  0.00     0.187 HD
HETATM    4  C   UNK N   1       1.177  -0.209   0.003  0.00  0.00     0.060 A 
HETATM    5  C   UNK N   1      -0.202  -0.230   0.035  0.00  0.00     0.058 A 
HETATM    6  C   UNK N   1      -0.546   1.098   0.201  0.00  0.00     0.032 A 
HETATM    7  H   UNK N   1       0.595   2.830   0.379  0.00  0.00     0.186 HD
ENDROOT
BRANCH   4   8
HETATM    8  C   UNK N   1       2.043  -1.398  -0.067  0.00  0.00    -0.008 A 
HETATM    9  C   UNK N   1       1.469  -2.678  -0.106  0.00  0.00     0.015 A 
HETATM   10  C   UNK N   1       2.279  -3.815  -0.108  0.00  0.00     0.024 A 
HETATM   11  C   UNK N   1       3.668  -3.683  -0.070  0.00  0.00     0.034 A 
HETATM   12  C   UNK N   1       4.249  -2.411  -0.038  0.00  0.00     0.024 A 
HETATM   13 Cl   UNK N   1       4.677  -5.112  -0.052  0.00  0.00    -0.084 Cl
HETATM   14  C   UNK N   1       3.439  -1.270  -0.033  0.00  0.00     0.015 A 
ENDBRANCH   4   8
BRANCH   6  15
HETATM   15  C   UNK N   1      -1.937   1.632   0.394  0.00  0.00     0.040 C 
HETATM   16  C   UNK N   1      -3.002   0.543   0.225  0.00  0.00     0.030 C 
HETATM   17  C   UNK N   1      -4.387   1.141   0.456  0.00  0.00     0.114 C 
HETATM   18  N   UNK N   1      -4.628   2.240  -0.479  0.00  0.00    -0.421 N 
HETATM   19  C   UNK N   1      -3.655   3.303  -0.226  0.00  0.00     0.114 C 
HETATM   20  H   UNK N   1      -5.357   2.261  -1.192  0.00  0.00     0.153 HD
HETATM   21  C   UNK N   1      -2.244   2.802  -0.532  0.00  0.00     0.030 C 
ENDBRANCH   6  15
TORSDOF 2
