REMARK  6 active torsions:
REMARK  status: ('A' for Active; 'I' for Inactive)
REMARK    1  A    between atoms: C_2  and  C_5 
REMARK    2  A    between atoms: C_7  and  N_8 
REMARK       I    between atoms: N_8  and  C_9 
REMARK       I    between atoms: C_9  and  N_11 
REMARK    3  A    between atoms: N_11  and  C_12 
REMARK    4  A    between atoms: C_17  and  C_18 
REMARK    5  A    between atoms: C_18  and  O_19 
REMARK    6  A    between atoms: O_19  and  C_20 
ROOT
HETATM    1  N   UNK N   1      -3.487  -0.349   0.503  0.00  0.00    -0.293 N 
HETATM    2  C   UNK N   1      -2.193  -0.225   0.096  0.00  0.00     0.326 C 
HETATM    3  O   UNK N   1      -1.870   0.744  -0.584  0.00  0.00    -0.247 OA
HETATM    4  N   UNK N   1      -1.241  -1.127   0.455  0.00  0.00    -0.309 N 
HETATM    5  H   UNK N   1      -3.840  -1.198   0.854  0.00  0.00     0.172 HD
HETATM    6  H   UNK N   1      -1.492  -2.009   0.812  0.00  0.00     0.170 HD
ENDROOT
BRANCH   4   7
HETATM    7  C   UNK N   1       0.132  -0.764   0.302  0.00  0.00     0.037 A 
HETATM    8  C   UNK N   1       0.529   0.564   0.556  0.00  0.00     0.031 A 
HETATM    9  C   UNK N   1       1.825   0.986   0.306  0.00  0.00     0.026 A 
HETATM   10  C   UNK N   1       2.755   0.093  -0.210  0.00  0.00     0.042 A 
HETATM   11 Cl   UNK N   1       4.366   0.697  -0.566  0.00  0.00    -0.084 Cl
HETATM   12  C   UNK N   1       2.384  -1.250  -0.445  0.00  0.00    -0.010 A 
HETATM   13  C   UNK N   1       1.071  -1.675  -0.182  0.00  0.00     0.040 A 
BRANCH  12  14
HETATM   14  C   UNK N   1       3.345  -2.218  -1.040  0.00  0.00     0.216 C 
BRANCH  14  15
HETATM   15  O   UNK N   1       4.491  -2.307  -0.283  0.00  0.00    -0.345 OA
BRANCH  15  16
HETATM   16  C   UNK N   1       5.124  -3.477  -0.054  0.00  0.00     0.084 A 
HETATM   17  C   UNK N   1       6.389  -3.465   0.534  0.00  0.00     0.039 A 
HETATM   18  C   UNK N   1       7.070  -4.664   0.743  0.00  0.00     0.020 A 
HETATM   19  C   UNK N   1       6.469  -5.867   0.366  0.00  0.00     0.088 A 
HETATM   20  N   UNK N   1       5.231  -5.866  -0.197  0.00  0.00    -0.373 N 
HETATM   21  C   UNK N   1       4.554  -4.708  -0.416  0.00  0.00     0.124 A 
ATOM     22  HN  UNK N   1       4.801  -6.753  -0.460  1.00  0.00     0.164 HD
ENDBRANCH  15  16
ENDBRANCH  14  15
ENDBRANCH  12  14
ENDBRANCH   4   7
BRANCH   1  23
HETATM   23  C   UNK N   1      -4.302   0.811   0.394  0.00  0.00     0.125 A 
HETATM   24  C   UNK N   1      -3.827   2.072   0.681  0.00  0.00     0.077 A 
HETATM   25  C   UNK N   1      -4.717   2.909   0.070  0.00  0.00     0.037 A 
HETATM   26  N   UNK N   1      -5.684   2.183  -0.537  0.00  0.00    -0.302 N 
HETATM   27  N   UNK N   1      -5.420   0.894  -0.349  0.00  0.00    -0.285 N 
ATOM     28  HN  UNK N   1      -6.479   2.560  -1.052  1.00  0.00     0.186 HD
HETATM   29  H   UNK N   1      -5.947   0.137  -0.692  0.00  0.00     0.188 HD
BRANCH  25  30
HETATM   30  C   UNK N   1      -4.526   4.399  -0.014  0.00  0.00    -0.007 C 
HETATM   31  C   UNK N   1      -4.580   5.011   1.373  0.00  0.00     0.021 C 
HETATM   32  C   UNK N   1      -5.578   5.050  -0.889  0.00  0.00     0.021 C 
HETATM   33  C   UNK N   1      -3.159   4.692  -0.617  0.00  0.00     0.021 C 
ENDBRANCH  25  30
ENDBRANCH   1  23
TORSDOF 6
