REMARK  1 active torsions:
REMARK  status: ('A' for Active; 'I' for Inactive)
REMARK    1  A    between atoms: C_3  and  C_7 
ROOT
HETATM    1  C   UNK N   1      -0.665  -0.076  -0.119  0.00  0.00     0.135 A 
HETATM    2  N   UNK N   1       0.064   1.070  -0.065  0.00  0.00    -0.339 N 
ATOM      3  HN  UNK N   1      -0.274   2.032  -0.047  1.00  0.00     0.167 HD
HETATM    4  C   UNK N   1       1.332   0.637  -0.042  0.00  0.00     0.060 A 
HETATM    5  C   UNK N   1       2.494   1.397   0.045  0.00  0.00     0.032 A 
HETATM    6  C   UNK N   1       3.719   0.703   0.098  0.00  0.00     0.002 A 
HETATM    7  C   UNK N   1       3.743  -0.713   0.063  0.00  0.00     0.002 A 
HETATM    8  C   UNK N   1       2.543  -1.445  -0.030  0.00  0.00     0.032 A 
HETATM    9  C   UNK N   1       1.357  -0.722  -0.080  0.00  0.00     0.060 A 
HETATM   10  N   UNK N   1       0.103  -1.195  -0.135  0.00  0.00    -0.339 N 
HETATM   11  H   UNK N   1      -0.192  -2.133  -0.177  0.00  0.00     0.167 HD
ENDROOT
BRANCH   1  12
HETATM   12  C   UNK N   1      -2.128  -0.105  -0.064  0.00  0.00     0.093 A 
HETATM   13  C   UNK N   1      -2.955   0.986   0.089  0.00  0.00     0.053 A 
HETATM   14  C   UNK N   1      -4.226   0.443   0.152  0.00  0.00     0.109 A 
HETATM   15  N   UNK N   1      -4.132  -0.898   0.041  0.00  0.00    -0.311 N 
HETATM   16  N   UNK N   1      -2.859  -1.231  -0.086  0.00  0.00    -0.297 N 
HETATM   17  H   UNK N   1      -4.889  -1.527   0.054  0.00  0.00     0.186 HD
ATOM     18  HN  UNK N   1      -2.495  -2.178  -0.185  1.00  0.00     0.187 HD
ENDBRANCH   1  12
TORSDOF 1
