REMARK  3 active torsions:
REMARK  status: ('A' for Active; 'I' for Inactive)
REMARK       I    between atoms: C_2  and  N_3 
REMARK    1  A    between atoms: C_2  and  C_20 
REMARK    2  A    between atoms: N_3  and  C_4 
REMARK    3  A    between atoms: C_9  and  C_10 
ROOT
HETATM    1  C   UNK N   1      12.535   4.625  -0.120  0.00  0.00     0.084 A 
HETATM    2  C   UNK N   1      11.255   5.125  -0.120  0.00  0.00     0.139 A 
HETATM    3  N   UNK N   1      11.341   6.473  -0.060  0.00  0.00    -0.309 N 
HETATM    4  N   UNK N   1      12.617   6.833  -0.038  0.00  0.00    -0.295 N 
ATOM      5  HN  UNK N   1      12.964   7.792   0.010  1.00  0.00     0.187 HD
HETATM    6  C   UNK N   1      13.378   5.725  -0.090  0.00  0.00     0.120 A 
HETATM    7  H   UNK N   1      10.575   7.091  -0.036  0.00  0.00     0.186 HD
ENDROOT
BRANCH   6   8
HETATM    8  C   UNK N   1      14.854   5.764  -0.146  0.00  0.00     0.137 A 
HETATM    9  N   UNK N   1      15.583   6.885   0.094  0.00  0.00    -0.339 N 
HETATM   10  C   UNK N   1      16.855   6.469  -0.016  0.00  0.00     0.060 A 
ATOM     11  HN  UNK N   1      15.244   7.822   0.308  1.00  0.00     0.167 HD
HETATM   12  C   UNK N   1      18.021   7.205   0.166  0.00  0.00     0.032 A 
HETATM   13  C   UNK N   1      16.880   5.147  -0.329  0.00  0.00     0.060 A 
HETATM   14  C   UNK N   1      19.247   6.526   0.014  0.00  0.00     0.002 A 
HETATM   15  C   UNK N   1      19.270   5.148  -0.313  0.00  0.00     0.002 A 
HETATM   16  C   UNK N   1      18.066   4.440  -0.490  0.00  0.00     0.032 A 
HETATM   17  N   UNK N   1      15.630   4.684  -0.425  0.00  0.00    -0.339 N 
HETATM   18  H   UNK N   1      15.339   3.770  -0.647  0.00  0.00     0.167 HD
ENDBRANCH   6   8
BRANCH   1  19
HETATM   19  N   UNK N   1      12.875   3.243  -0.160  0.00  0.00    -0.320 N 
HETATM   20  C   UNK N   1      13.871   2.692   0.586  0.00  0.00     0.256 C 
HETATM   21  O   UNK N   1      14.400   3.335   1.484  0.00  0.00    -0.267 OA
HETATM   22  H   UNK N   1      12.362   2.654  -0.760  0.00  0.00     0.169 HD
BRANCH  20  23
HETATM   23  C   UNK N   1      14.343   1.324   0.300  0.00  0.00     0.032 A 
HETATM   24  C   UNK N   1      15.510   0.844   0.915  0.00  0.00     0.017 A 
HETATM   25  C   UNK N   1      15.999  -0.427   0.606  0.00  0.00     0.001 A 
HETATM   26  C   UNK N   1      15.318  -1.233  -0.310  0.00  0.00     0.000 A 
HETATM   27  C   UNK N   1      14.152  -0.765  -0.922  0.00  0.00     0.001 A 
HETATM   28  C   UNK N   1      13.671   0.514  -0.627  0.00  0.00     0.017 A 
ENDBRANCH  20  23
ENDBRANCH   1  19
TORSDOF 3
