REMARK  5 active torsions:
REMARK  status: ('A' for Active; 'I' for Inactive)
REMARK       I    between atoms: C_2  and  N_7 
REMARK       I    between atoms: N_3  and  C_2 
REMARK    1  A    between atoms: C_4  and  N_3 
REMARK    2  A    between atoms: N_7  and  C_8 
REMARK    3  A    between atoms: C_14  and  C_13 
REMARK    4  A    between atoms: C_21  and  C_20 
REMARK    5  A    between atoms: N_22  and  C_21 
ROOT
HETATM    1  C   UNK N   1      -1.732   0.990   0.003  0.00  0.00     0.137 A 
HETATM    2  N   UNK N   1      -1.155  -0.235  -0.027  0.00  0.00    -0.339 N 
ATOM      3  HN  UNK N   1      -1.615  -1.145  -0.045  1.00  0.00     0.167 HD
HETATM    4  C   UNK N   1       0.156   0.022  -0.027  0.00  0.00     0.060 A 
HETATM    5  C   UNK N   1       1.197  -0.892  -0.092  0.00  0.00     0.032 A 
HETATM    6  C   UNK N   1       2.500  -0.378  -0.179  0.00  0.00     0.011 A 
HETATM    7  C   UNK N   1       2.728   1.021  -0.186  0.00  0.00    -0.030 A 
HETATM    8  C   UNK N   1       1.639   1.916  -0.100  0.00  0.00     0.040 A 
HETATM    9  C   UNK N   1       0.361   1.365  -0.013  0.00  0.00     0.061 A 
HETATM   10  N   UNK N   1      -0.821   2.001   0.020  0.00  0.00    -0.339 N 
HETATM   11  H   UNK N   1      -0.989   2.971   0.050  0.00  0.00     0.167 HD
ENDROOT
BRANCH   1  12
HETATM   12  C   UNK N   1      -3.183   1.211  -0.111  0.00  0.00     0.120 A 
HETATM   13  C   UNK N   1      -4.164   0.298  -0.457  0.00  0.00     0.085 A 
HETATM   14  C   UNK N   1      -5.330   1.017  -0.569  0.00  0.00     0.139 A 
HETATM   15  N   UNK N   1      -5.052   2.302  -0.263  0.00  0.00    -0.309 N 
HETATM   16  N   UNK N   1      -3.757   2.422   0.000  0.00  0.00    -0.295 N 
HETATM   17  H   UNK N   1      -5.708   3.036  -0.239  0.00  0.00     0.186 HD
ATOM     18  HN  UNK N   1      -3.277   3.288   0.245  1.00  0.00     0.187 HD
BRANCH  13  19
HETATM   19  N   UNK N   1      -4.022  -1.074  -0.795  0.00  0.00    -0.305 N 
HETATM   20  C   UNK N   1      -3.474  -2.007   0.019  0.00  0.00     0.321 C 
HETATM   21  O   UNK N   1      -3.180  -1.728   1.175  0.00  0.00    -0.247 OA
HETATM   22  N   UNK N   1      -3.292  -3.264  -0.449  0.00  0.00    -0.338 N 
HETATM   23  H   UNK N   1      -3.537  -3.466  -1.381  0.00  0.00     0.164 HD
HETATM   24  H   UNK N   1      -4.343  -1.365  -1.679  0.00  0.00     0.171 HD
BRANCH  22  25
HETATM   25  C   UNK N   1      -2.750  -4.316   0.373  0.00  0.00     0.086 A 
HETATM   26  C   UNK N   1      -3.781  -5.421   0.491  0.00  0.00     0.027 A 
HETATM   27  C   UNK N   1      -2.613  -5.577  -0.457  0.00  0.00     0.027 A 
ENDBRANCH  22  25
ENDBRANCH  13  19
ENDBRANCH   1  12
BRANCH   7  28
HETATM   28  C   UNK N   1       4.112   1.548  -0.419  0.00  0.00     0.273 C 
BRANCH  28  29
HETATM   29  N   UNK N   1       5.024   1.357   0.714  0.00  0.00    -0.063 N 
HETATM   30  C   UNK N   1       6.322   1.946   0.355  0.00  0.00     0.261 A 
HETATM   31  C   UNK N   1       7.081   1.050  -0.638  0.00  0.00     0.195 C 
HETATM   32  H   UNK N   1       5.912   0.856   0.718  0.00  0.00     0.280 HD
HETATM   33  O   UNK N   1       7.290  -0.213  -0.060  0.00  0.00    -0.388 OA
HETATM   34  C   UNK N   1       6.024  -0.811   0.036  0.00  0.00     0.195 C 
HETATM   35  C   UNK N   1       5.190  -0.061   1.081  0.00  0.00     0.261 A 
ENDBRANCH  28  29
ENDBRANCH   7  28
TORSDOF 5
