REMARK  6 active torsions:
REMARK  status: ('A' for Active; 'I' for Inactive)
REMARK    1  A    between atoms: C_5  and  C_6 
REMARK    2  A    between atoms: C_6  and  O_7 
REMARK    3  A    between atoms: O_7  and  C_8 
REMARK    4  A    between atoms: C_16  and  N_17 
REMARK       I    between atoms: N_17  and  C_18 
REMARK    5  A    between atoms: C_18  and  C_20 
REMARK    6  A    between atoms: C_25  and  N_27 
ROOT
HETATM    1  N   UNK N   1       3.046   0.470   0.476  0.00  0.00    -0.323 N 
HETATM    2  C   UNK N   1       1.924  -0.216   0.822  0.00  0.00     0.252 C 
HETATM    3  O   UNK N   1       0.894   0.371   1.127  0.00  0.00    -0.268 OA
HETATM    4  H   UNK N   1       3.862  -0.059   0.326  0.00  0.00     0.169 HD
ENDROOT
BRANCH   1   5
HETATM    5  C   UNK N   1       3.155   1.878   0.311  0.00  0.00     0.035 A 
HETATM    6  C   UNK N   1       4.381   2.407  -0.099  0.00  0.00     0.031 A 
HETATM    7  C   UNK N   1       4.512   3.771  -0.356  0.00  0.00     0.026 A 
HETATM    8  C   UNK N   1       3.415   4.624  -0.212  0.00  0.00     0.042 A 
HETATM    9 Cl   UNK N   1       3.617   6.331  -0.575  0.00  0.00    -0.084 Cl
HETATM   10  C   UNK N   1       2.173   4.106   0.196  0.00  0.00    -0.010 A 
HETATM   11  C   UNK N   1       2.050   2.733   0.449  0.00  0.00     0.040 A 
BRANCH  10  12
HETATM   12  C   UNK N   1       0.990   5.019   0.325  0.00  0.00     0.216 C 
BRANCH  12  13
HETATM   13  O   UNK N   1      -0.195   4.324   0.452  0.00  0.00    -0.345 OA
BRANCH  13  14
HETATM   14  C   UNK N   1      -1.400   4.911   0.263  0.00  0.00     0.084 A 
HETATM   15  C   UNK N   1      -2.562   4.136   0.330  0.00  0.00     0.124 A 
HETATM   16  N   UNK N   1      -3.780   4.707   0.121  0.00  0.00    -0.373 N 
HETATM   17  C   UNK N   1      -3.906   6.034  -0.155  0.00  0.00     0.088 A 
ATOM     18  HN  UNK N   1      -4.617   4.127   0.173  1.00  0.00     0.164 HD
HETATM   19  C   UNK N   1      -2.774   6.846  -0.229  0.00  0.00     0.020 A 
HETATM   20  C   UNK N   1      -1.517   6.281  -0.021  0.00  0.00     0.039 A 
ENDBRANCH  13  14
ENDBRANCH  12  13
ENDBRANCH  10  12
ENDBRANCH   1   5
BRANCH   2  21
HETATM   21  C   UNK N   1       1.912  -1.685   0.697  0.00  0.00     0.011 C 
HETATM   22  C   UNK N   1       3.031  -2.333   0.317  0.00  0.00     0.022 C 
HETATM   23  C   UNK N   1       3.037  -3.783  -0.112  0.00  0.00     0.195 C 
HETATM   24  F   UNK N   1       3.832  -4.528   0.739  0.00  0.00    -0.245 F 
HETATM   25  C   UNK N   1       1.638  -4.422  -0.203  0.00  0.00     0.077 C 
HETATM   26  C   UNK N   1       0.524  -3.383  -0.418  0.00  0.00     0.230 C 
HETATM   27  C   UNK N   1       0.605  -2.423   0.772  0.00  0.00     0.080 C 
BRANCH  26  28
HETATM   28  N   UNK N   1      -0.799  -4.017  -0.552  0.00  0.00     0.097 N 
HETATM   29  C   UNK N   1      -1.101  -4.937   0.552  0.00  0.00     0.299 C 
HETATM   30  C   UNK N   1      -2.502  -5.510   0.343  0.00  0.00     0.198 C 
HETATM   31  O   UNK N   1      -3.436  -4.460   0.395  0.00  0.00    -0.388 OA
HETATM   32  C   UNK N   1      -3.221  -3.671  -0.750  0.00  0.00     0.198 C 
HETATM   33  C   UNK N   1      -1.851  -2.993  -0.660  0.00  0.00     0.299 C 
ENDBRANCH  26  28
ENDBRANCH   2  21
TORSDOF 6
