REMARK  3 active torsions:
REMARK  status: ('A' for Active; 'I' for Inactive)
REMARK    1  A    between atoms: C_3  and  C_14 
REMARK    2  A    between atoms: N_5  and  C_6 
REMARK    3  A    between atoms: C_14  and  N_15 
ROOT
HETATM    1  C   UNK N   1      -1.241  -2.432  -0.278  0.00  0.00     0.131 A 
HETATM    2  C   UNK N   1      -2.303  -1.626   0.093  0.00  0.00     0.122 A 
HETATM    3  N   UNK N   1      -3.580  -1.948   0.337  0.00  0.00    -0.346 N 
ATOM      4  HN  UNK N   1      -4.014  -2.871   0.294  1.00  0.00     0.167 HD
HETATM    5  C   UNK N   1      -2.127  -0.302   0.260  0.00  0.00     0.140 A 
HETATM    6  N   UNK N   1      -3.285   0.273   0.617  0.00  0.00    -0.336 N 
ATOM      7  HN  UNK N   1      -3.463   1.258   0.813  1.00  0.00     0.168 HD
HETATM    8  C   UNK N   1      -4.168  -0.763   0.657  0.00  0.00     0.182 A 
HETATM    9  N   UNK N   1      -0.925   0.306   0.073  0.00  0.00    -0.324 N 
HETATM   10  C   UNK N   1       0.132  -0.485  -0.311  0.00  0.00     0.186 A 
HETATM   11  N   UNK N   1      -0.028  -1.839  -0.478  0.00  0.00    -0.337 N 
ATOM     12  HN  UNK N   1       0.771  -2.409  -0.755  1.00  0.00     0.168 HD
ENDROOT
BRANCH   9  13
HETATM   13  C   UNK N   1      -0.799   1.755   0.287  0.00  0.00     0.159 C 
BRANCH  13  14
HETATM   14  C   UNK N   1       0.498   2.365  -0.187  0.00  0.00    -0.005 C 
HETATM   15  C   UNK N   1       1.696   2.154   0.376  0.00  0.00    -0.090 C 
HETATM   16  C   UNK N   1       1.873   1.260   1.561  0.00  0.00     0.042 C 
HETATM   17  C   UNK N   1       2.888   2.843  -0.191  0.00  0.00     0.042 C 
ENDBRANCH  13  14
ENDBRANCH   9  13
BRANCH   1  18
HETATM   18  N   UNK N   1      -1.398  -3.822  -0.447  0.00  0.00    -0.383 N 
HETATM   19  H   UNK N   1      -2.294  -4.212  -0.566  0.00  0.00     0.157 HD
HETATM   20  H   UNK N   1      -0.607  -4.407  -0.447  0.00  0.00     0.157 HD
ENDBRANCH   1  18
TORSDOF 3
