REMARK  2 active torsions:
REMARK  status: ('A' for Active; 'I' for Inactive)
REMARK    1  A    between atoms: N_1  and  C_2 
REMARK    2  A    between atoms: C_7  and  C_8 
REMARK       I    between atoms: C_13  and  N_16 
ROOT
HETATM    1  C   UNK N   1      -0.130  -0.625  -0.000  0.00  0.00     0.077 A 
HETATM    2  C   UNK N   1       0.369  -1.932  -0.000  0.00  0.00     0.050 A 
HETATM    3  C   UNK N   1      -0.540  -2.990   0.000  0.00  0.00     0.108 A 
HETATM    4  N   UNK N   1      -1.876  -2.740   0.000  0.00  0.00    -0.202 N 
ATOM      5  HN  UNK N   1      -2.535  -3.518   0.000  1.00  0.00     0.183 HD
HETATM    6  C   UNK N   1      -2.343  -1.463  -0.000  0.00  0.00     0.676 A 
HETATM    7  N   UNK N   1      -1.473  -0.422  -0.000  0.00  0.00    -0.190 N 
ATOM      8  HN  UNK N   1      -1.835   0.532  -0.000  1.00  0.00     0.184 HD
HETATM    9  N   UNK N   1      -3.729  -1.218  -0.000  0.00  0.00    -0.234 N 
HETATM   10  H   UNK N   1      -4.065  -0.293  -0.000  0.00  0.00     0.174 HD
HETATM   11  H   UNK N   1      -4.362  -1.972  -0.000  0.00  0.00     0.174 HD
ENDROOT
BRANCH   1  12
HETATM   12  C   UNK N   1       0.766   0.540  -0.000  0.00  0.00     0.068 A 
HETATM   13  C   UNK N   1       2.177   0.450  -0.000  0.00  0.00     0.085 A 
HETATM   14  S   UNK N   1       2.700   2.028  -0.000  0.00  0.00    -0.064 SA
HETATM   15  C   UNK N   1       1.225   2.754   0.000  0.00  0.00     0.142 A 
HETATM   16  N   UNK N   1       0.251   1.821   0.000  0.00  0.00    -0.335 N 
ATOM     17  HN  UNK N   1      -0.746   2.036   0.000  1.00  0.00     0.168 HD
BRANCH  15  18
HETATM   18  N   UNK N   1       0.983   4.142   0.000  0.00  0.00    -0.380 N 
HETATM   19  H   UNK N   1       1.739   4.773   0.000  0.00  0.00     0.158 HD
HETATM   20  H   UNK N   1       0.059   4.480   0.000  0.00  0.00     0.158 HD
ENDBRANCH  15  18
ENDBRANCH   1  12
TORSDOF 2
