REMARK  3 active torsions:
REMARK  status: ('A' for Active; 'I' for Inactive)
REMARK    1  A    between atoms: C_8  and  C_9 
REMARK    2  A    between atoms: C_9  and  N_10 
REMARK    3  A    between atoms: C_16  and  C_17 
REMARK       I    between atoms: C_22  and  N_25 
ROOT
HETATM    1  N   UNK N   1      -1.346   0.757  -0.117  0.00  0.00    -0.340 N 
HETATM    2  C   UNK N   1      -0.306  -0.001   0.271  0.00  0.00     0.124 A 
HETATM    3  C   UNK N   1      -2.389  -0.083  -0.278  0.00  0.00     0.080 A 
HETATM    4  C   UNK N   1      -3.744   0.329  -0.738  0.00  0.00     0.089 C 
HETATM    5  N   UNK N   1      -2.044  -1.365  -0.045  0.00  0.00    -0.343 N 
ATOM      6  HN  UNK N   1      -2.638  -2.192  -0.109  1.00  0.00     0.167 HD
HETATM    7  C   UNK N   1      -0.741  -1.311   0.293  0.00  0.00     0.076 A 
ENDROOT
BRANCH   7   8
HETATM    8  C   UNK N   1       0.123  -2.490   0.440  0.00  0.00     0.078 A 
HETATM    9  C   UNK N   1       1.476  -2.341   0.755  0.00  0.00     0.050 A 
HETATM   10  C   UNK N   1       2.288  -3.471   0.767  0.00  0.00     0.108 A 
HETATM   11  N   UNK N   1       1.765  -4.684   0.448  0.00  0.00    -0.202 N 
HETATM   12  C   UNK N   1       0.449  -4.814   0.136  0.00  0.00     0.676 A 
ATOM     13  HN  UNK N   1       2.368  -5.507   0.443  1.00  0.00     0.183 HD
HETATM   14  N   UNK N   1      -0.364  -3.724   0.136  0.00  0.00    -0.190 N 
HETATM   15  N   UNK N   1      -0.067  -6.075  -0.221  0.00  0.00    -0.234 N 
ATOM     16  HN  UNK N   1      -1.351  -3.833  -0.096  1.00  0.00     0.184 HD
HETATM   17  H   UNK N   1      -1.011  -6.203  -0.471  0.00  0.00     0.174 HD
HETATM   18  H   UNK N   1       0.535  -6.853  -0.221  0.00  0.00     0.174 HD
ENDBRANCH   7   8
BRANCH   1  19
HETATM   19  C   UNK N   1      -1.352   2.189  -0.446  0.00  0.00     0.171 C 
BRANCH  19  20
HETATM   20  C   UNK N   1      -0.030   2.901  -0.259  0.00  0.00     0.004 A 
HETATM   21  C   UNK N   1       0.012   4.039   0.572  0.00  0.00     0.043 A 
HETATM   22 Cl   UNK N   1      -1.436   4.645   1.365  0.00  0.00    -0.084 Cl
HETATM   23  C   UNK N   1       1.210   4.735   0.753  0.00  0.00     0.024 A 
HETATM   24  C   UNK N   1       2.375   4.310   0.118  0.00  0.00     0.003 A 
HETATM   25  C   UNK N   1       2.344   3.202  -0.725  0.00  0.00     0.024 A 
HETATM   26  C   UNK N   1       1.155   2.496  -0.930  0.00  0.00     0.043 A 
HETATM   27 Cl   UNK N   1       1.199   1.149  -2.062  0.00  0.00    -0.084 Cl
ENDBRANCH  19  20
ENDBRANCH   1  19
TORSDOF 3
