REMARK  14 active torsions:
REMARK  status: ('A' for Active; 'I' for Inactive)
REMARK    1  A    between atoms: C_1  and  C_4 
REMARK    2  A    between atoms: C_2  and  O_6 
REMARK    3  A    between atoms: C_3  and  O_8 
REMARK    4  A    between atoms: C_4  and  C_9 
REMARK    5  A    between atoms: C_11  and  O_6 
REMARK    6  A    between atoms: C_12  and  C_7 
REMARK    7  A    between atoms: C_11  and  C_14 
REMARK    8  A    between atoms: C_14  and  C_17 
REMARK    9  A    between atoms: O_18  and  C_17 
REMARK   10  A    between atoms: C_19  and  O_18 
REMARK   11  A    between atoms: O_25  and  C_24 
REMARK   12  A    between atoms: O_25  and  C_26 
REMARK   13  A    between atoms: C_26  and  C_27 
REMARK   14  A    between atoms: C_27  and  O_28 
ROOT
HETATM    1  C   UNK N   1      -0.579  -1.346  -0.645  0.00  0.00     0.178 C 
ENDROOT
BRANCH   1   2
HETATM    2  O   UNK N   1      -1.075  -0.193  -0.087  0.00  0.00    -0.350 OA
BRANCH   2   3
HETATM    3  C   UNK N   1      -2.385   0.167  -0.045  0.00  0.00     0.077 A 
HETATM    4  C   UNK N   1      -3.466  -0.727  -0.297  0.00  0.00     0.009 A 
HETATM    5  C   UNK N   1      -4.792  -0.251  -0.235  0.00  0.00     0.088 A 
HETATM    6  C   UNK N   1      -5.052   1.104   0.073  0.00  0.00     0.043 A 
HETATM    7  C   UNK N   1      -3.976   1.960   0.327  0.00  0.00     0.021 A 
HETATM    8  C   UNK N   1      -2.666   1.496   0.273  0.00  0.00     0.038 A 
BRANCH   4   9
HETATM    9  C   UNK N   1      -3.231  -2.173  -0.626  0.00  0.00     0.044 C 
BRANCH   9  10
HETATM   10  C   UNK N   1      -3.593  -3.064   0.548  0.00  0.00     0.000 C 
HETATM   11  C   UNK N   1      -3.082  -4.465   0.287  0.00  0.00     0.005 C 
ENDBRANCH   9  10
ENDBRANCH   4   9
BRANCH   5  12
HETATM   12  O   UNK N   1      -5.811  -1.100  -0.479  0.00  0.00    -0.359 OA
HETATM   13  H   UNK N   1      -6.676  -0.781  -0.649  0.00  0.00     0.217 HD
ENDBRANCH   5  12
BRANCH   6  14
HETATM   14  C   UNK N   1      -6.435   1.652   0.134  0.00  0.00     0.158 C 
HETATM   15  O   UNK N   1      -7.402   0.934  -0.070  0.00  0.00    -0.293 OA
HETATM   16  C   UNK N   1      -6.669   3.096   0.440  0.00  0.00     0.097 C 
ENDBRANCH   6  14
ENDBRANCH   2   3
ENDBRANCH   1   2
BRANCH   1  17
HETATM   17  C   UNK N   1       0.058  -2.220   0.413  0.00  0.00     0.053 C 
BRANCH  17  18
HETATM   18  C   UNK N   1       0.986  -3.179  -0.308  0.00  0.00     0.178 C 
BRANCH  18  19
HETATM   19  O   UNK N   1       2.295  -3.073   0.124  0.00  0.00    -0.351 OA
BRANCH  19  20
HETATM   20  C   UNK N   1       3.052  -1.945   0.077  0.00  0.00     0.068 A 
HETATM   21  C   UNK N   1       2.500  -0.684  -0.211  0.00  0.00     0.039 A 
HETATM   22  C   UNK N   1       3.306   0.457  -0.222  0.00  0.00     0.039 A 
HETATM   23  C   UNK N   1       4.682   0.348   0.039  0.00  0.00     0.069 A 
HETATM   24  C   UNK N   1       5.232  -0.908   0.307  0.00  0.00     0.039 A 
HETATM   25  C   UNK N   1       4.422  -2.046   0.334  0.00  0.00     0.039 A 
BRANCH  23  26
HETATM   26  O   UNK N   1       5.493   1.431   0.047  0.00  0.00    -0.341 OA
BRANCH  26  27
HETATM   27  C   UNK N   1       5.042   2.725  -0.104  0.00  0.00     0.285 C 
BRANCH  27  28
HETATM   28  C   UNK N   1       6.186   3.691  -0.045  0.00  0.00     0.164 C 
HETATM   29  O   UNK N   1       7.336   3.291   0.054  0.00  0.00    -0.648 OA
BRANCH  28  30
HETATM   30  O   UNK N   1       5.944   5.013  -0.101  0.00  0.00    -0.775 OA
HETATM   31  H   UNK N   1       6.657   5.620  -0.140  0.00  0.00     0.167 HD
ENDBRANCH  28  30
ENDBRANCH  27  28
ENDBRANCH  26  27
ENDBRANCH  23  26
ENDBRANCH  19  20
ENDBRANCH  18  19
ENDBRANCH  17  18
ENDBRANCH   1  17
TORSDOF 14
