REMARK  7 active torsions:
REMARK  status: ('A' for Active; 'I' for Inactive)
REMARK    1  A    between atoms: C_1  and  N_7 
REMARK       I    between atoms: N_7  and  C_8 
REMARK    2  A    between atoms: C_8  and  C_9 
REMARK    3  A    between atoms: C_9  and  C_10 
REMARK    4  A    between atoms: C_10  and  C_11 
REMARK    5  A    between atoms: C_11  and  C_12 
REMARK    6  A    between atoms: C_12  and  C_13 
REMARK    7  A    between atoms: C_13  and  C_14 
ROOT
HETATM    1  N   UNK N   1      -1.903   0.526  -0.329  0.00  0.00    -0.347 N 
HETATM    2  C   UNK N   1      -0.862   0.173   0.474  0.00  0.00     0.225 C 
HETATM    3  O   UNK N   1      -0.885  -0.846   1.144  0.00  0.00    -0.273 OA
HETATM    4  H   UNK N   1      -1.807   1.390  -0.792  0.00  0.00     0.163 HD
ENDROOT
BRANCH   2   5
HETATM    5  C   UNK N   1       0.368   1.029   0.473  0.00  0.00     0.181 C 
BRANCH   5   6
HETATM    6  C   UNK N   1       1.465   0.441  -0.380  0.00  0.00     0.135 C 
HETATM    7  O   UNK N   1       1.308  -0.628  -0.952  0.00  0.00    -0.297 OA
BRANCH   6   8
HETATM    8  C   UNK N   1       2.741   1.186  -0.585  0.00  0.00     0.079 C 
BRANCH   8   9
HETATM    9  C   UNK N   1       3.534   1.273   0.706  0.00  0.00     0.007 C 
BRANCH   9  10
HETATM   10  C   UNK N   1       5.020   1.232   0.398  0.00  0.00     0.000 C 
BRANCH  10  11
HETATM   11  C   UNK N   1       5.435  -0.184   0.038  0.00  0.00    -0.005 C 
HETATM   12  C   UNK N   1       6.895  -0.206  -0.359  0.00  0.00     0.005 C 
ENDBRANCH  10  11
ENDBRANCH   9  10
ENDBRANCH   8   9
ENDBRANCH   6   8
ENDBRANCH   5   6
ENDBRANCH   2   5
BRANCH   1  13
HETATM   13  C   UNK N   1      -3.141  -0.197  -0.600  0.00  0.00     0.186 C 
HETATM   14  C   UNK N   1      -3.388  -1.459   0.136  0.00  0.00     0.281 C 
HETATM   15  O   UNK N   1      -4.539  -1.477   0.804  0.00  0.00    -0.320 OA
HETATM   16  O   UNK N   1      -2.674  -2.448   0.052  0.00  0.00    -0.263 OA
HETATM   17  C   UNK N   1      -5.252  -0.314   0.650  0.00  0.00     0.181 C 
HETATM   18  C   UNK N   1      -4.344   0.634  -0.155  0.00  0.00     0.062 C 
ENDBRANCH   1  13
TORSDOF 7
