REMARK  4 active torsions:
REMARK  status: ('A' for Active; 'I' for Inactive)
REMARK       I    between atoms: C_2  and  N_3 
REMARK    1  A    between atoms: C_2  and  C_7 
REMARK    2  A    between atoms: N_3  and  C_4 
REMARK    3  A    between atoms: C_4  and  C_5 
REMARK    4  A    between atoms: C_5  and  O_6 
ROOT
HETATM    1  O   UNK N   1       0.312  -2.312  -0.000  0.00  0.00    -0.268 OA
HETATM    2  C   UNK N   1       0.320  -1.089  -0.000  0.00  0.00     0.251 C 
HETATM    3  N   UNK N   1       1.491  -0.405  -0.000  0.00  0.00    -0.355 N 
HETATM    4  H   UNK N   1       1.452   0.579  -0.000  0.00  0.00     0.162 HD
ENDROOT
BRANCH   2   5
HETATM    5  C   UNK N   1      -0.944  -0.326   0.000  0.00  0.00     0.032 A 
HETATM    6  C   UNK N   1      -2.190  -0.973  -0.000  0.00  0.00     0.018 A 
HETATM    7  C   UNK N   1      -3.370  -0.218  -0.000  0.00  0.00     0.025 A 
HETATM    8  C   UNK N   1      -3.308   1.181   0.000  0.00  0.00     0.034 A 
HETATM    9 Cl   UNK N   1      -4.776   2.132  -0.000  0.00  0.00    -0.084 Cl
HETATM   10  C   UNK N   1      -2.071   1.825   0.000  0.00  0.00     0.025 A 
HETATM   11  C   UNK N   1      -0.897   1.076   0.000  0.00  0.00     0.018 A 
ENDBRANCH   2   5
BRANCH   3  12
HETATM   12  C   UNK N   1       2.784  -1.031  -0.000  0.00  0.00     0.148 C 
BRANCH  12  13
HETATM   13  C   UNK N   1       3.826   0.071  -0.000  0.00  0.00     0.183 C 
BRANCH  13  14
HETATM   14  O   UNK N   1       5.105  -0.480   0.000  0.00  0.00    -0.399 OA
HETATM   15  H   UNK N   1       5.218  -1.443   0.000  0.00  0.00     0.209 HD
ENDBRANCH  13  14
ENDBRANCH  12  13
ENDBRANCH   3  12
TORSDOF 4
