REMARK  8 active torsions:
REMARK  status: ('A' for Active; 'I' for Inactive)
REMARK    1  A    between atoms: C_3  and  O_12 
REMARK    2  A    between atoms: C_6  and  C_9 
REMARK    3  A    between atoms: C_9  and  N_14 
REMARK    4  A    between atoms: C_10  and  N_14 
REMARK    5  A    between atoms: C_10  and  C_16 
REMARK    6  A    between atoms: O_12  and  C_15 
REMARK    7  A    between atoms: C_15  and  C_22 
REMARK    8  A    between atoms: C_22  and  O_23 
ROOT
HETATM    1  C   UNK N   1      -2.631   3.013  -0.158  0.00  0.00     0.080 A 
HETATM    2  C   UNK N   1      -1.952   0.333   0.134  0.00  0.00     0.020 A 
HETATM    3  C   UNK N   1      -1.276   2.653  -0.160  0.00  0.00     0.085 A 
HETATM    4  C   UNK N   1      -3.631   2.051  -0.009  0.00  0.00     0.119 A 
HETATM    5  C   UNK N   1      -3.290   0.714   0.150  0.00  0.00     0.043 A 
HETATM    6  C   UNK N   1      -0.918   1.271  -0.035  0.00  0.00     0.035 A 
HETATM    7  F   UNK N   1      -4.935   2.418  -0.008  0.00  0.00    -0.206 F 
ENDROOT
BRANCH   6   8
HETATM    8  C   UNK N   1       0.472   0.706  -0.113  0.00  0.00     0.110 C 
HETATM    9  S   UNK N   1       1.581   1.454  -0.655  0.00  0.00    -0.060 SA
BRANCH   8  10
HETATM   10  N   UNK N   1       0.627  -0.681   0.169  0.00  0.00    -0.376 N 
HETATM   11  H   UNK N   1      -0.168  -1.170   0.482  0.00  0.00     0.160 HD
BRANCH  10  12
HETATM   12  C   UNK N   1       1.853  -1.430   0.036  0.00  0.00     0.162 C 
BRANCH  12  13
HETATM   13  C   UNK N   1       1.607  -2.916   0.026  0.00  0.00    -0.002 A 
HETATM   14  C   UNK N   1       2.728  -3.754   0.013  0.00  0.00     0.013 A 
HETATM   15  C   UNK N   1       2.578  -5.143   0.000  0.00  0.00     0.020 A 
HETATM   16  C   UNK N   1       1.302  -5.708  -0.003  0.00  0.00     0.013 A 
HETATM   17 Br   UNK N   1       1.092  -7.600  -0.022  0.00  0.00    -0.051 Br
HETATM   18  C   UNK N   1       0.175  -4.888   0.005  0.00  0.00     0.062 A 
HETATM   19  C   UNK N   1       0.313  -3.499   0.020  0.00  0.00     0.125 A 
HETATM   20  F   UNK N   1      -0.814  -2.745   0.019  0.00  0.00    -0.205 F 
ENDBRANCH  12  13
ENDBRANCH  10  12
ENDBRANCH   8  10
ENDBRANCH   6   8
BRANCH   3  21
HETATM   21  O   UNK N   1      -0.365   3.646  -0.270  0.00  0.00    -0.340 OA
BRANCH  21  22
HETATM   22  C   UNK N   1       0.527   3.922   0.744  0.00  0.00     0.285 C 
BRANCH  22  23
HETATM   23  C   UNK N   1       1.667   4.728   0.215  0.00  0.00     0.164 C 
HETATM   24  O   UNK N   1       2.804   4.290   0.284  0.00  0.00    -0.648 OA
BRANCH  23  25
HETATM   25  O   UNK N   1       1.446   5.933  -0.340  0.00  0.00    -0.775 OA
HETATM   26  H   UNK N   1       2.096   6.487  -0.727  0.00  0.00     0.167 HD
ENDBRANCH  23  25
ENDBRANCH  22  23
ENDBRANCH  21  22
ENDBRANCH   3  21
TORSDOF 8
