REMARK  7 active torsions:
REMARK  status: ('A' for Active; 'I' for Inactive)
REMARK    1  A    between atoms: C_2  and  C_3 
REMARK    2  A    between atoms: C_3  and  C_4 
REMARK    3  A    between atoms: C_4  and  C_5 
REMARK    4  A    between atoms: C_5  and  C_6 
REMARK    5  A    between atoms: C_6  and  C_7 
REMARK    6  A    between atoms: C_12  and  C_13 
REMARK    7  A    between atoms: C_13  and  C_15 
ROOT
HETATM    1  C   UNK N   1       0.123  -0.699  -0.000  0.00  0.00    -0.058 A 
HETATM    2  C   UNK N   1       1.403  -1.264   0.000  0.00  0.00     0.008 A 
HETATM    3  C   UNK N   1       2.537  -0.436   0.000  0.00  0.00     0.016 A 
HETATM    4  C   UNK N   1      -0.005   0.699  -0.000  0.00  0.00     0.008 A 
HETATM    5  C   UNK N   1       1.118   1.518  -0.000  0.00  0.00     0.016 A 
HETATM    6  C   UNK N   1       2.403   0.964   0.000  0.00  0.00     0.014 A 
ENDROOT
BRANCH   1   7
HETATM    7  C   UNK N   1      -1.096  -1.587  -0.000  0.00  0.00     0.038 C 
BRANCH   7   8
HETATM    8  C   UNK N   1      -2.367  -0.746  -0.000  0.00  0.00     0.005 C 
BRANCH   8   9
HETATM    9  C   UNK N   1      -3.652  -1.534   0.000  0.00  0.00     0.000 C 
BRANCH   9  10
HETATM   10  C   UNK N   1      -4.753  -0.492  -0.000  0.00  0.00    -0.000 C 
BRANCH  10  11
HETATM   11  C   UNK N   1      -6.125  -1.119   0.000  0.00  0.00    -0.005 C 
HETATM   12  C   UNK N   1      -7.155  -0.007   0.000  0.00  0.00     0.005 C 
ENDBRANCH  10  11
ENDBRANCH   9  10
ENDBRANCH   8   9
ENDBRANCH   7   8
ENDBRANCH   1   7
BRANCH   6  13
HETATM   13  C   UNK N   1       3.575   1.889   0.000  0.00  0.00     0.181 C 
HETATM   14  O   UNK N   1       3.370   3.092  -0.000  0.00  0.00    -0.288 OA
BRANCH  13  15
HETATM   15  C   UNK N   1       4.989   1.440   0.000  0.00  0.00     0.045 C 
HETATM   16  C   UNK N   1       5.373   0.166   0.000  0.00  0.00     0.015 C 
ENDBRANCH  13  15
ENDBRANCH   6  13
TORSDOF 7
