REMARK  2 active torsions:
REMARK  status: ('A' for Active; 'I' for Inactive)
REMARK    1  A    between atoms: C_10  and  N_19 
REMARK    2  A    between atoms: C_12  and  O_11 
ROOT
HETATM    1  C   UNK N   1       3.211   3.742  -0.123  0.00  0.00     0.032 A 
HETATM    2  C   UNK N   1       5.078  -0.970   0.087  0.00  0.00     0.001 A 
HETATM    3  C   UNK N   1       5.638   0.304   0.045  0.00  0.00     0.014 A 
HETATM    4  C   UNK N   1       4.825   1.455  -0.001  0.00  0.00    -0.003 A 
HETATM    5  C   UNK N   1       5.410   2.723  -0.021  0.00  0.00     0.055 A 
HETATM    6  C   UNK N   1       3.703  -1.106   0.124  0.00  0.00     0.001 A 
HETATM    7  C   UNK N   1       2.907   0.027   0.074  0.00  0.00     0.014 A 
HETATM    8  C   UNK N   1       3.418   1.320  -0.029  0.00  0.00     0.003 A 
HETATM    9  C   UNK N   1       6.845   2.839  -0.002  0.00  0.00     0.100 C 
HETATM   10  C   UNK N   1       2.577   2.481  -0.143  0.00  0.00     0.058 A 
HETATM   11  C   UNK N   1       4.604   3.862  -0.058  0.00  0.00     0.026 A 
HETATM   12  N   UNK N   1       8.001   2.867   0.012  0.00  0.00    -0.191 NA
ENDROOT
BRANCH  10  13
HETATM   13  N   UNK N   1       1.120   2.420  -0.184  0.00  0.00    -0.231 N 
HETATM   14  C   UNK N   1       0.307   1.321  -0.315  0.00  0.00     0.258 C 
HETATM   15  C   UNK N   1      -1.037   1.662   0.107  0.00  0.00     0.210 C 
HETATM   16  O   UNK N   1       0.610   0.204  -0.680  0.00  0.00    -0.270 OA
HETATM   17  C   UNK N   1      -2.426   1.173  -0.109  0.00  0.00     0.152 C 
HETATM   18  N   UNK N   1      -1.022   3.052  -0.005  0.00  0.00    -0.317 N 
HETATM   19  C   UNK N   1      -3.200   2.400   0.450  0.00  0.00     0.054 C 
HETATM   20  C   UNK N   1      -2.308   3.656   0.142  0.00  0.00     0.131 C 
HETATM   21  C   UNK N   1       0.261   3.477  -0.057  0.00  0.00     0.333 C 
HETATM   22  O   UNK N   1       0.593   4.652   0.021  0.00  0.00    -0.246 OA
BRANCH  17  23
HETATM   23  O   UNK N   1      -2.607  -0.005   0.628  0.00  0.00    -0.393 OA
HETATM   24  H   UNK N   1      -3.375  -0.304   1.139  0.00  0.00     0.210 HD
ENDBRANCH  17  23
ENDBRANCH  10  13
TORSDOF 2
