REMARK  6 active torsions:
REMARK  status: ('A' for Active; 'I' for Inactive)
REMARK    1  A    between atoms: C_4  and  C_14 
REMARK    2  A    between atoms: C_10  and  N_16 
REMARK    3  A    between atoms: C_15  and  N_16 
REMARK    4  A    between atoms: C_15  and  C_21 
REMARK    5  A    between atoms: N_16  and  C_17 
REMARK    6  A    between atoms: C_17  and  C_25 
ROOT
HETATM    1  N   UNK N   1      -0.296   5.353  -0.228  0.00  0.00    -0.323 N 
HETATM    2  C   UNK N   1      -1.661   5.436  -0.281  0.00  0.00     0.246 A 
HETATM    3  C   UNK N   1      -2.439   4.283  -0.204  0.00  0.00     0.091 A 
HETATM    4  C   UNK N   1      -1.833   3.027  -0.062  0.00  0.00     0.065 A 
HETATM    5  C   UNK N   1      -0.420   2.965   0.023  0.00  0.00     0.008 A 
HETATM    6  C   UNK N   1       0.256   1.760   0.240  0.00  0.00     0.043 A 
HETATM    7  C   UNK N   1       1.652   1.708   0.358  0.00  0.00     0.031 A 
HETATM    8  C   UNK N   1       2.385   2.900   0.223  0.00  0.00     0.031 A 
HETATM    9  C   UNK N   1       1.729   4.116   0.004  0.00  0.00     0.033 A 
HETATM   10  C   UNK N   1       0.334   4.158  -0.076  0.00  0.00     0.046 A 
HETATM   11  O   UNK N   1      -2.200   6.524  -0.392  0.00  0.00    -0.268 OA
HETATM   12  H   UNK N   1       0.240   6.175  -0.302  0.00  0.00     0.169 HD
ENDROOT
BRANCH   7  13
HETATM   13  N   UNK N   1       2.301   0.482   0.721  0.00  0.00    -0.364 N 
BRANCH  13  14
HETATM   14  C   UNK N   1       3.694   0.522   1.134  0.00  0.00     0.240 C 
BRANCH  14  15
HETATM   15  C   UNK N   1       4.564  -0.550   0.492  0.00  0.00     0.403 C 
HETATM   16  F   UNK N   1       4.480  -0.480  -0.886  0.00  0.00    -0.169 F 
HETATM   17  F   UNK N   1       4.180  -1.805   0.926  0.00  0.00    -0.169 F 
HETATM   18  F   UNK N   1       5.875  -0.337   0.876  0.00  0.00    -0.169 F 
ENDBRANCH  14  15
ENDBRANCH  13  14
BRANCH  13  19
HETATM   19  C   UNK N   1       1.494  -0.668   1.093  0.00  0.00     0.240 C 
BRANCH  19  20
HETATM   20  C   UNK N   1       1.002  -1.491  -0.100  0.00  0.00     0.403 C 
HETATM   21  F   UNK N   1       0.482  -0.690  -1.098  0.00  0.00    -0.169 F 
HETATM   22  F   UNK N   1       2.034  -2.245  -0.620  0.00  0.00    -0.169 F 
HETATM   23  F   UNK N   1       0.009  -2.344   0.344  0.00  0.00    -0.169 F 
ENDBRANCH  19  20
ENDBRANCH  13  19
ENDBRANCH   7  13
BRANCH   4  24
HETATM   24  C   UNK N   1      -2.747   1.816  -0.001  0.00  0.00     0.418 C 
HETATM   25  F   UNK N   1      -3.555   1.804  -1.124  0.00  0.00    -0.166 F 
HETATM   26  F   UNK N   1      -2.072   0.609   0.042  0.00  0.00    -0.166 F 
HETATM   27  F   UNK N   1      -3.547   1.905   1.122  0.00  0.00    -0.166 F 
ENDBRANCH   4  24
TORSDOF 6
