REMARK  6 active torsions:
REMARK  status: ('A' for Active; 'I' for Inactive)
REMARK    1  A    between atoms: C_4  and  N_29 
REMARK    2  A    between atoms: C_6  and  C_8 
REMARK       I    between atoms: C_8  and  N_10 
REMARK    3  A    between atoms: N_10  and  C_11 
REMARK    4  A    between atoms: C_17  and  C_18 
REMARK    5  A    between atoms: C_18  and  C_19 
REMARK    6  A    between atoms: C_19  and  C_20 
ROOT
HETATM    1  C   UNK N   1      -1.273  -1.439   0.005  0.00  0.00     0.035 A 
HETATM    2  C   UNK N   1      -1.216  -2.868   0.003  0.00  0.00     0.032 A 
HETATM    3  C   UNK N   1      -2.409  -3.637   0.000  0.00  0.00     0.033 A 
HETATM    4  C   UNK N   1      -3.622  -2.944  -0.001  0.00  0.00     0.043 A 
HETATM    5  N   UNK N   1      -4.881  -3.434  -0.003  0.00  0.00    -0.365 N 
HETATM    6  C   UNK N   1      -5.707  -2.343  -0.003  0.00  0.00     0.096 A 
HETATM    7  C   UNK N   1      -4.927  -1.189  -0.002  0.00  0.00    -0.030 A 
HETATM    8  C   UNK N   1      -3.643  -1.595  -0.000  0.00  0.00     0.000 A 
HETATM    9  C   UNK N   1      -2.506  -0.813   0.002  0.00  0.00     0.043 A 
HETATM   10  H   UNK N   1      -5.149  -4.381  -0.004  0.00  0.00     0.165 HD
ENDROOT
BRANCH   1  11
HETATM   11  N   UNK N   1      -0.125  -0.601   0.011  0.00  0.00    -0.323 N 
HETATM   12  C   UNK N   1       1.155  -1.020   0.014  0.00  0.00     0.256 C 
HETATM   13  O   UNK N   1       1.416  -2.219   0.012  0.00  0.00    -0.267 OA
HETATM   14  H   UNK N   1      -0.279   0.371   0.012  0.00  0.00     0.169 HD
BRANCH  12  15
HETATM   15  C   UNK N   1       2.260  -0.047   0.016  0.00  0.00     0.037 A 
HETATM   16  C   UNK N   1       3.550  -0.544  -0.000  0.00  0.00     0.046 A 
HETATM   17  C   UNK N   1       4.664   0.286  -0.009  0.00  0.00     0.034 A 
HETATM   18  C   UNK N   1       4.471   1.681  -0.000  0.00  0.00     0.071 A 
HETATM   19  C   UNK N   1       3.169   2.209   0.017  0.00  0.00     0.119 A 
HETATM   20  F   UNK N   1       2.984   3.553   0.021  0.00  0.00    -0.206 F 
HETATM   21  C   UNK N   1       2.059   1.346   0.023  0.00  0.00     0.059 A 
BRANCH  17  22
HETATM   22  N   UNK N   1       5.959  -0.307  -0.049  0.00  0.00    -0.377 N 
HETATM   23  C   UNK N   1       7.150   0.532  -0.044  0.00  0.00     0.149 C 
HETATM   24  C   UNK N   1       8.432  -0.287  -0.220  0.00  0.00     0.187 C 
HETATM   25  O   UNK N   1       8.342  -1.479   0.508  0.00  0.00    -0.388 OA
HETATM   26  C   UNK N   1       7.473  -2.273  -0.241  0.00  0.00     0.187 C 
HETATM   27  C   UNK N   1       6.049  -1.769  -0.058  0.00  0.00     0.149 C 
ENDBRANCH  17  22
ENDBRANCH  12  15
ENDBRANCH   1  11
BRANCH   7  28
HETATM   28  C   UNK N   1      -5.186   0.268  -0.001  0.00  0.00     0.045 C 
BRANCH  28  29
HETATM   29  C   UNK N   1      -6.481   1.039  -0.000  0.00  0.00     0.043 C 
BRANCH  29  30
HETATM   30  C   UNK N   1      -6.091   2.512   0.000  0.00  0.00    -0.055 A 
HETATM   31  C   UNK N   1      -7.079   3.495   0.000  0.00  0.00     0.024 A 
HETATM   32  C   UNK N   1      -6.708   4.847   0.000  0.00  0.00     0.088 A 
HETATM   33  N   UNK N   1      -5.393   5.204   0.000  0.00  0.00    -0.375 N 
HETATM   34  C   UNK N   1      -4.408   4.271   0.000  0.00  0.00     0.088 A 
ATOM     35  HN  UNK N   1      -5.145   6.193   0.000  1.00  0.00     0.164 HD
HETATM   36  C   UNK N   1      -4.737   2.920  -0.000  0.00  0.00     0.024 A 
ENDBRANCH  29  30
ENDBRANCH  28  29
ENDBRANCH   7  28
TORSDOF 6
