REMARK  3 active torsions:
REMARK  status: ('A' for Active; 'I' for Inactive)
REMARK    1  A    between atoms: C_4  and  N_20 
REMARK    2  A    between atoms: C_6  and  C_8 
REMARK       I    between atoms: C_8  and  N_10 
REMARK    3  A    between atoms: N_10  and  C_11 
ROOT
HETATM    1  C   UNK N   1      -0.513   0.088  -0.009  0.00  0.00     0.256 C 
HETATM    2  O   UNK N   1      -0.410  -1.133  -0.008  0.00  0.00    -0.267 OA
HETATM    3  N   UNK N   1      -1.739   0.678  -0.004  0.00  0.00    -0.323 N 
HETATM    4  H   UNK N   1      -1.771   1.662  -0.004  0.00  0.00     0.169 HD
ENDROOT
BRANCH   1   5
HETATM    5  C   UNK N   1       0.717   0.899  -0.014  0.00  0.00     0.037 A 
HETATM    6  C   UNK N   1       1.940   0.235  -0.011  0.00  0.00     0.046 A 
HETATM    7  C   UNK N   1       3.152   0.924  -0.008  0.00  0.00     0.034 A 
HETATM    8  C   UNK N   1       3.130   2.331  -0.009  0.00  0.00     0.071 A 
HETATM    9  C   UNK N   1       1.904   3.016  -0.014  0.00  0.00     0.119 A 
HETATM   10  F   UNK N   1       1.887   4.371  -0.009  0.00  0.00    -0.206 F 
HETATM   11  C   UNK N   1       0.697   2.302  -0.014  0.00  0.00     0.059 A 
BRANCH   7  12
HETATM   12  N   UNK N   1       4.374   0.187   0.024  0.00  0.00    -0.377 N 
HETATM   13  C   UNK N   1       5.651   0.893   0.028  0.00  0.00     0.149 C 
HETATM   14  C   UNK N   1       6.835  -0.054   0.243  0.00  0.00     0.187 C 
HETATM   15  O   UNK N   1       6.639  -1.237  -0.477  0.00  0.00    -0.388 OA
HETATM   16  C   UNK N   1       5.668  -1.927   0.251  0.00  0.00     0.187 C 
HETATM   17  C   UNK N   1       4.309  -1.275   0.027  0.00  0.00     0.149 C 
ENDBRANCH   7  12
ENDBRANCH   1   5
BRANCH   3  18
HETATM   18  C   UNK N   1      -2.982  -0.023   0.000  0.00  0.00     0.035 A 
HETATM   19  C   UNK N   1      -3.040  -1.445   0.000  0.00  0.00     0.032 A 
HETATM   20  C   UNK N   1      -4.270  -2.121   0.001  0.00  0.00     0.033 A 
HETATM   21  C   UNK N   1      -5.423  -1.350   0.001  0.00  0.00     0.042 A 
HETATM   22  N   UNK N   1      -6.688  -1.793   0.001  0.00  0.00    -0.365 N 
HETATM   23  C   UNK N   1      -5.383   0.012   0.001  0.00  0.00    -0.006 A 
HETATM   24  C   UNK N   1      -7.468  -0.683   0.000  0.00  0.00     0.089 A 
HETATM   25  H   UNK N   1      -6.988  -2.730   0.000  0.00  0.00     0.165 HD
HETATM   26  C   UNK N   1      -6.677   0.468   0.001  0.00  0.00     0.030 A 
HETATM   27  C   UNK N   1      -4.181   0.715   0.001  0.00  0.00     0.043 A 
ENDBRANCH   3  18
TORSDOF 3
