REMARK  6 active torsions:
REMARK  status: ('A' for Active; 'I' for Inactive)
REMARK    1  A    between atoms: N_1  and  S_29 
REMARK    2  A    between atoms: C_4  and  N_7 
REMARK       I    between atoms: N_7  and  C_8 
REMARK    3  A    between atoms: C_12  and  C_16 
REMARK    4  A    between atoms: C_13  and  N_28 
REMARK    5  A    between atoms: C_16  and  C_18 
REMARK    6  A    between atoms: C_23  and  O_24 
ROOT
HETATM    1  N   UNK N   1      -0.758   2.592  -0.429  0.00  0.00    -0.221 N 
HETATM    2  C   UNK N   1      -0.739   1.182  -0.459  0.00  0.00     0.679 A 
HETATM    3  N   UNK N   1      -1.359   0.475   0.517  0.00  0.00    -0.201 N 
ATOM      4  HN  UNK N   1      -1.924   0.960   1.214  1.00  0.00     0.183 HD
HETATM    5  C   UNK N   1      -1.230  -0.872   0.572  0.00  0.00     0.125 A 
HETATM    6  C   UNK N   1      -0.412  -1.541  -0.345  0.00  0.00     0.075 A 
HETATM    7  C   UNK N   1       0.266  -0.782  -1.306  0.00  0.00     0.130 A 
HETATM    8  N   UNK N   1       0.073   0.561  -1.350  0.00  0.00    -0.176 N 
ATOM      9  HN  UNK N   1       0.547   1.112  -2.065  1.00  0.00     0.186 HD
HETATM   10  H   UNK N   1      -1.116   3.092  -1.198  0.00  0.00     0.178 HD
ENDROOT
BRANCH   1  11
HETATM   11  C   UNK N   1      -0.256   3.309   0.719  0.00  0.00     0.101 C 
HETATM   12  C   UNK N   1       0.935   2.511   1.326  0.00  0.00     0.041 C 
HETATM   13  C   UNK N   1       2.213   3.297   1.562  0.00  0.00     0.109 C 
HETATM   14  N   UNK N   1       2.422   4.218   0.454  0.00  0.00    -0.211 NA
HETATM   15  C   UNK N   1       1.422   5.256   0.689  0.00  0.00     0.109 C 
HETATM   16  C   UNK N   1       0.065   4.735   0.236  0.00  0.00     0.041 C 
BRANCH  14  17
HETATM   17  S   UNK N   1       4.075   4.889   0.558  0.00  0.00     0.207 S 
HETATM   18  C   UNK N   1       5.365   4.897  -0.715  0.00  0.00     0.180 C 
HETATM   19  O   UNK N   1       4.381   3.492  -0.015  0.00  0.00    -0.212 OA
HETATM   20  O   UNK N   1       3.616   5.612  -0.720  0.00  0.00    -0.212 OA
ENDBRANCH  14  17
ENDBRANCH   1  11
BRANCH   7  21
HETATM   21  N   UNK N   1       1.100  -1.392  -2.265  0.00  0.00    -0.384 N 
HETATM   22  H   UNK N   1       1.022  -2.110  -2.935  0.00  0.00     0.157 HD
HETATM   23  H   UNK N   1       2.000  -0.994  -2.265  0.00  0.00     0.157 HD
ENDBRANCH   7  21
BRANCH   6  24
HETATM   24  C   UNK N   1      -0.316  -3.017  -0.282  0.00  0.00     0.203 C 
HETATM   25  O   UNK N   1       0.762  -3.559  -0.477  0.00  0.00    -0.286 OA
BRANCH  24  26
HETATM   26  C   UNK N   1      -1.531  -3.842  -0.002  0.00  0.00     0.090 A 
HETATM   27  C   UNK N   1      -1.404  -5.121   0.580  0.00  0.00     0.171 A 
HETATM   28  C   UNK N   1      -2.542  -5.895   0.834  0.00  0.00     0.156 A 
HETATM   29  F   UNK N   1      -0.184  -5.610   0.921  0.00  0.00    -0.202 F 
HETATM   30  C   UNK N   1      -3.808  -5.416   0.507  0.00  0.00     0.048 A 
HETATM   31  F   UNK N   1      -2.420  -7.115   1.408  0.00  0.00    -0.203 F 
HETATM   32  C   UNK N   1      -3.951  -4.169  -0.091  0.00  0.00     0.041 A 
HETATM   33  C   UNK N   1      -2.829  -3.373  -0.358  0.00  0.00     0.085 A 
BRANCH  33  34
HETATM   34  O   UNK N   1      -2.978  -2.185  -0.999  0.00  0.00    -0.355 OA
HETATM   35  C   UNK N   1      -4.190  -1.646  -1.364  0.00  0.00     0.210 C 
ENDBRANCH  33  34
ENDBRANCH  24  26
ENDBRANCH   6  24
TORSDOF 6
