REMARK  3 active torsions:
REMARK  status: ('A' for Active; 'I' for Inactive)
REMARK       I    between atoms: C_1  and  N_17 
REMARK       I    between atoms: C_2  and  N_4 
REMARK    1  A    between atoms: C_3  and  N_23 
REMARK    2  A    between atoms: N_4  and  C_5 
REMARK    3  A    between atoms: C_6  and  N_17 
ROOT
HETATM    1  C   UNK N   1       2.129  -0.523  -0.015  0.00  0.00     0.684 A 
HETATM    2  C   UNK N   1      -2.276  -0.923   0.019  0.00  0.00     0.687 A 
HETATM    3  N   UNK N   1      -3.704  -0.885  -0.035  0.00  0.00    -0.190 N 
HETATM    4  N   UNK N   1       3.373   0.149  -0.156  0.00  0.00    -0.185 N 
HETATM    5  N   UNK N   1       2.039  -1.797   0.502  0.00  0.00    -0.199 N 
ATOM      6  HN  UNK N   1       2.893  -2.295   0.752  1.00  0.00     0.183 HD
HETATM    7  N   UNK N   1       0.990   0.163  -0.328  0.00  0.00    -0.173 N 
ATOM      8  HN  UNK N   1       1.040   1.110  -0.704  1.00  0.00     0.186 HD
HETATM    9  C   UNK N   1      -0.203  -0.438  -0.131  0.00  0.00     0.167 A 
HETATM   10  N   UNK N   1      -1.418   0.071  -0.364  0.00  0.00    -0.166 N 
HETATM   11  C   UNK N   1      -0.312  -1.687   0.359  0.00  0.00     0.110 A 
HETATM   12  C   UNK N   1       0.826  -2.409   0.687  0.00  0.00     0.140 A 
HETATM   13  N   UNK N   1      -1.611  -2.030   0.456  0.00  0.00    -0.186 N 
ATOM     14  HN  UNK N   1      -2.005  -2.912   0.781  1.00  0.00     0.184 HD
HETATM   15  H   UNK N   1      -4.147  -1.757  -0.147  0.00  0.00     0.184 HD
HETATM   16  H   UNK N   1       3.292   1.113  -0.340  0.00  0.00     0.184 HD
ENDROOT
BRANCH   4  17
HETATM   17  C   UNK N   1       4.718  -0.320  -0.079  0.00  0.00     0.126 A 
HETATM   18  C   UNK N   1       5.723   0.646   0.098  0.00  0.00     0.146 A 
HETATM   19  C   UNK N   1       7.068   0.276   0.154  0.00  0.00     0.045 A 
HETATM   20  F   UNK N   1       5.392   1.957   0.215  0.00  0.00    -0.204 F 
HETATM   21  C   UNK N   1       7.430  -1.063   0.029  0.00  0.00     0.006 A 
HETATM   22  C   UNK N   1       6.447  -2.034  -0.160  0.00  0.00     0.045 A 
HETATM   23  C   UNK N   1       5.095  -1.679  -0.217  0.00  0.00     0.146 A 
HETATM   24  F   UNK N   1       4.193  -2.658  -0.447  0.00  0.00    -0.204 F 
ENDBRANCH   4  17
BRANCH  10  25
HETATM   25  C   UNK N   1      -1.675   1.384  -0.945  0.00  0.00     0.145 C 
HETATM   26  C   UNK N   1      -1.116   2.481  -0.052  0.00  0.00     0.027 C 
ENDBRANCH  10  25
BRANCH   3  27
HETATM   27  C   UNK N   1      -4.574   0.242   0.053  0.00  0.00     0.070 A 
HETATM   28  C   UNK N   1      -4.111   1.505   0.444  0.00  0.00     0.032 A 
HETATM   29  C   UNK N   1      -4.985   2.590   0.545  0.00  0.00     0.002 A 
HETATM   30  C   UNK N   1      -6.342   2.418   0.275  0.00  0.00     0.002 A 
HETATM   31  C   UNK N   1      -6.825   1.158  -0.085  0.00  0.00     0.026 A 
HETATM   32  C   UNK N   1      -5.950   0.072  -0.195  0.00  0.00     0.061 A 
HETATM   33 Cl   UNK N   1      -6.602  -1.500  -0.628  0.00  0.00    -0.082 Cl
ENDBRANCH   3  27
TORSDOF 3
