REMARK  4 active torsions:
REMARK  status: ('A' for Active; 'I' for Inactive)
REMARK    1  A    between atoms: C_1  and  O_27 
REMARK    2  A    between atoms: C_3  and  N_21 
REMARK       I    between atoms: C_4  and  N_5 
REMARK    3  A    between atoms: N_5  and  C_16 
REMARK    4  A    between atoms: C_6  and  O_27 
ROOT
HETATM    1  C   UNK N   1       2.728   0.144   0.001  0.00  0.00     0.230 A 
HETATM    2  C   UNK N   1       0.394   0.386   0.002  0.00  0.00     0.156 A 
HETATM    3  C   UNK N   1      -1.564   1.227   0.001  0.00  0.00     0.687 A 
HETATM    4  N   UNK N   1      -2.981   1.307   0.004  0.00  0.00    -0.188 N 
HETATM    5  N   UNK N   1      -0.723   2.297  -0.004  0.00  0.00    -0.186 N 
ATOM      6  HN  UNK N   1      -0.963   3.289  -0.008  1.00  0.00     0.184 HD
HETATM    7  C   UNK N   1       0.503   1.733  -0.004  0.00  0.00     0.109 A 
HETATM    8  C   UNK N   1       1.748   2.335  -0.005  0.00  0.00     0.125 A 
HETATM    9  N   UNK N   1      -0.907   0.037   0.006  0.00  0.00    -0.162 N 
HETATM   10  N   UNK N   1       1.482  -0.425   0.004  0.00  0.00    -0.305 N 
ATOM     11  HN  UNK N   1       1.374  -1.439   0.008  1.00  0.00     0.171 HD
HETATM   12  N   UNK N   1       2.845   1.516  -0.002  0.00  0.00    -0.330 N 
ATOM     13  HN  UNK N   1       3.776   1.934  -0.003  1.00  0.00     0.168 HD
HETATM   14  H   UNK N   1      -3.460   0.446   0.007  0.00  0.00     0.184 HD
ENDROOT
BRANCH   1  15
HETATM   15  O   UNK N   1       3.873  -0.603   0.001  0.00  0.00    -0.273 OA
BRANCH  15  16
HETATM   16  C   UNK N   1       4.169  -1.943   0.001  0.00  0.00     0.156 A 
HETATM   17  C   UNK N   1       5.533  -2.293  -0.001  0.00  0.00     0.153 A 
HETATM   18  F   UNK N   1       6.480  -1.325  -0.002  0.00  0.00    -0.203 F 
HETATM   19  C   UNK N   1       5.934  -3.632  -0.001  0.00  0.00     0.045 A 
HETATM   20  C   UNK N   1       4.986  -4.650  -0.000  0.00  0.00     0.006 A 
HETATM   21  C   UNK N   1       3.634  -4.331   0.002  0.00  0.00     0.045 A 
HETATM   22  C   UNK N   1       3.218  -2.998   0.003  0.00  0.00     0.153 A 
HETATM   23  F   UNK N   1       1.903  -2.789   0.006  0.00  0.00    -0.203 F 
ENDBRANCH  15  16
ENDBRANCH   1  15
BRANCH   9  24
HETATM   24  C   UNK N   1      -1.524  -1.302   0.024  0.00  0.00     0.101 C 
HETATM   25  C   UNK N   1      -3.035  -1.462  -0.014  0.00  0.00     0.033 C 
HETATM   26  C   UNK N   1      -0.684  -2.549  -0.022  0.00  0.00     0.033 C 
ENDBRANCH   9  24
BRANCH   4  27
HETATM   27  C   UNK N   1      -3.794   2.464   0.001  0.00  0.00     0.087 A 
HETATM   28  C   UNK N   1      -5.185   2.296   0.001  0.00  0.00     0.143 A 
HETATM   29  F   UNK N   1      -5.720   1.048   0.001  0.00  0.00    -0.204 F 
HETATM   30  C   UNK N   1      -6.029   3.408  -0.000  0.00  0.00     0.044 A 
HETATM   31  C   UNK N   1      -5.486   4.694  -0.001  0.00  0.00     0.003 A 
HETATM   32  C   UNK N   1      -4.098   4.869  -0.000  0.00  0.00     0.002 A 
HETATM   33  C   UNK N   1      -3.251   3.756   0.001  0.00  0.00     0.033 A 
ENDBRANCH   4  27
TORSDOF 4
