REMARK  3 active torsions:
REMARK  status: ('A' for Active; 'I' for Inactive)
REMARK    1  A    between atoms: C_4  and  O_5 
REMARK    2  A    between atoms: C_9  and  C_10 
REMARK    3  A    between atoms: C_11  and  C_12 
ROOT
HETATM    1  C   UNK N   1       3.325   0.250  -0.008  0.00  0.00     0.033 A 
HETATM    2  C   UNK N   1       4.653  -0.204   0.011  0.00  0.00     0.046 A 
HETATM    3 Br   UNK N   1       6.081   1.066   0.037  0.00  0.00    -0.048 Br
HETATM    4  C   UNK N   1       4.923  -1.583   0.014  0.00  0.00     0.100 A 
HETATM    5  C   UNK N   1       3.864  -2.500  -0.005  0.00  0.00     0.046 A 
HETATM    6 Br   UNK N   1       4.184  -4.384   0.001  0.00  0.00    -0.048 Br
HETATM    7  C   UNK N   1       2.549  -2.042  -0.025  0.00  0.00     0.033 A 
HETATM    8  C   UNK N   1       2.270  -0.676  -0.027  0.00  0.00    -0.033 A 
ENDROOT
BRANCH   8   9
HETATM    9  C   UNK N   1       0.858  -0.274  -0.035  0.00  0.00     0.012 C 
HETATM   10  C   UNK N   1       0.409   0.985  -0.019  0.00  0.00     0.012 C 
BRANCH  10  11
HETATM   11  C   UNK N   1      -1.045   1.246  -0.012  0.00  0.00    -0.036 A 
HETATM   12  C   UNK N   1      -1.966   0.183  -0.026  0.00  0.00     0.011 A 
HETATM   13  C   UNK N   1      -3.339   0.434  -0.011  0.00  0.00     0.001 A 
HETATM   14  C   UNK N   1      -3.805   1.750   0.019  0.00  0.00     0.000 A 
HETATM   15  C   UNK N   1      -2.896   2.813   0.033  0.00  0.00     0.001 A 
HETATM   16  C   UNK N   1      -1.518   2.562   0.018  0.00  0.00     0.011 A 
ENDBRANCH  10  11
ENDBRANCH   8   9
BRANCH   4  17
HETATM   17  O   UNK N   1       6.194  -2.023   0.035  0.00  0.00    -0.358 OA
HETATM   18  H   UNK N   1       6.371  -2.943   0.050  0.00  0.00     0.217 HD
ENDBRANCH   4  17
TORSDOF 3
