REMARK  2 active torsions:
REMARK  status: ('A' for Active; 'I' for Inactive)
REMARK    1  A    between atoms: C_4  and  O_5 
REMARK    2  A    between atoms: C_9  and  C_10 
ROOT
HETATM    1  C   UNK N   1       2.419   0.469   0.000  0.00  0.00     0.034 A 
HETATM    2  C   UNK N   1       3.605  -0.276   0.000  0.00  0.00     0.046 A 
HETATM    3 Br   UNK N   1       5.285   0.638   0.000  0.00  0.00    -0.048 Br
HETATM    4  C   UNK N   1       3.554  -1.680  -0.000  0.00  0.00     0.100 A 
HETATM    5  C   UNK N   1       2.311  -2.329   0.000  0.00  0.00     0.046 A 
HETATM    6 Br   UNK N   1       2.181  -4.234  -0.000  0.00  0.00    -0.048 Br
HETATM    7  C   UNK N   1       1.138  -1.582   0.000  0.00  0.00     0.034 A 
HETATM    8  C   UNK N   1       1.173  -0.182   0.000  0.00  0.00    -0.023 A 
ENDROOT
BRANCH   8   9
HETATM    9  C   UNK N   1      -0.099   0.576   0.000  0.00  0.00    -0.026 A 
HETATM   10  C   UNK N   1      -1.323  -0.116  -0.000  0.00  0.00     0.012 A 
HETATM   11  C   UNK N   1      -2.533   0.578  -0.001  0.00  0.00     0.001 A 
HETATM   12  C   UNK N   1      -2.535   1.974  -0.001  0.00  0.00     0.000 A 
HETATM   13  C   UNK N   1      -1.325   2.675   0.000  0.00  0.00     0.001 A 
HETATM   14  C   UNK N   1      -0.110   1.980   0.000  0.00  0.00     0.012 A 
ENDBRANCH   8   9
BRANCH   4  15
HETATM   15  O   UNK N   1       4.688  -2.400  -0.001  0.00  0.00    -0.358 OA
HETATM   16  H   UNK N   1       4.649  -3.336  -0.001  0.00  0.00     0.217 HD
ENDBRANCH   4  15
TORSDOF 2
