REMARK  13 active torsions:
REMARK  status: ('A' for Active; 'I' for Inactive)
REMARK    1  A    between atoms: S_2  and  N_4 
REMARK    2  A    between atoms: S_2  and  C_14 
REMARK    3  A    between atoms: C_5  and  N_4 
REMARK    4  A    between atoms: C_5  and  C_6 
REMARK    5  A    between atoms: C_5  and  C_9 
REMARK    6  A    between atoms: C_6  and  O_7 
REMARK    7  A    between atoms: C_9  and  C_10 
REMARK    8  A    between atoms: C_10  and  C_11 
REMARK    9  A    between atoms: C_11  and  O_12 
REMARK   10  A    between atoms: C_19  and  O_24 
REMARK   11  A    between atoms: O_24  and  C_25 
REMARK   12  A    between atoms: C_25  and  C_26 
REMARK   13  A    between atoms: C_26  and  C_27 
ROOT
HETATM    1  O   UNK N   1       4.317   0.030   1.324  0.00  0.00    -0.201 OA
HETATM    2  S   UNK N   1       3.687   0.450  -0.013  0.00  0.00     0.259 S 
HETATM    3  O   UNK N   1       3.199  -0.902  -0.556  0.00  0.00    -0.201 OA
ENDROOT
BRANCH   2   4
HETATM    4  N   UNK N   1       5.008   0.885  -1.131  0.00  0.00    -0.300 N 
HETATM    5  H   UNK N   1       4.981   0.639  -2.121  0.00  0.00     0.173 HD
BRANCH   4   6
HETATM    6  C   UNK N   1       6.139   1.618  -0.541  0.00  0.00     0.191 C 
BRANCH   6   7
HETATM    7  C   UNK N   1       5.728   2.954   0.032  0.00  0.00     0.164 C 
HETATM    8  O   UNK N   1       5.020   3.014   1.025  0.00  0.00    -0.648 OA
BRANCH   7   9
HETATM    9  O   UNK N   1       6.179   4.091  -0.530  0.00  0.00    -0.775 OA
HETATM   10  H   UNK N   1       7.022   4.215  -0.920  0.00  0.00     0.167 HD
ENDBRANCH   7   9
ENDBRANCH   6   7
BRANCH   6  11
HETATM   11  C   UNK N   1       6.883   0.757   0.485  0.00  0.00     0.047 C 
BRANCH  11  12
HETATM   12  C   UNK N   1       8.135   1.435   1.032  0.00  0.00     0.112 C 
BRANCH  12  13
HETATM   13  C   UNK N   1       9.285   1.269   0.095  0.00  0.00     0.139 C 
HETATM   14  O   UNK N   1       9.720   0.156  -0.151  0.00  0.00    -0.650 OA
BRANCH  13  15
HETATM   15  O   UNK N   1       9.855   2.351  -0.465  0.00  0.00    -0.776 OA
HETATM   16  H   UNK N   1      10.706   2.385  -0.855  0.00  0.00     0.167 HD
ENDBRANCH  13  15
ENDBRANCH  12  13
ENDBRANCH  11  12
ENDBRANCH   6  11
ENDBRANCH   4   6
ENDBRANCH   2   4
BRANCH   2  17
HETATM   17  C   UNK N   1       2.311   1.580   0.154  0.00  0.00     0.080 A 
HETATM   18  C   UNK N   1       1.106   1.136   0.713  0.00  0.00     0.026 A 
HETATM   19  C   UNK N   1       0.022   2.011   0.832  0.00  0.00     0.014 A 
HETATM   20  C   UNK N   1       0.140   3.332   0.391  0.00  0.00    -0.023 A 
HETATM   21  C   UNK N   1      -0.953   4.198   0.464  0.00  0.00     0.049 A 
HETATM   22  C   UNK N   1       1.358   3.781  -0.166  0.00  0.00    -0.024 A 
HETATM   23  C   UNK N   1      -0.851   5.504  -0.030  0.00  0.00     0.069 A 
HETATM   24  C   UNK N   1       0.374   5.952  -0.561  0.00  0.00     0.037 A 
HETATM   25  C   UNK N   1       1.475   5.095  -0.620  0.00  0.00     0.015 A 
HETATM   26  C   UNK N   1       2.434   2.902  -0.282  0.00  0.00     0.037 A 
BRANCH  23  27
HETATM   27  O   UNK N   1      -1.956   6.285  -0.046  0.00  0.00    -0.351 OA
BRANCH  27  28
HETATM   28  C   UNK N   1      -2.046   7.414  -0.829  0.00  0.00     0.175 C 
BRANCH  28  29
HETATM   29  C   UNK N   1      -2.641   8.560  -0.047  0.00  0.00     0.026 C 
BRANCH  29  30
HETATM   30  C   UNK N   1      -1.656   9.708  -0.044  0.00  0.00    -0.002 C 
HETATM   31  C   UNK N   1      -2.342  10.958   0.458  0.00  0.00     0.005 C 
ENDBRANCH  29  30
ENDBRANCH  28  29
ENDBRANCH  27  28
ENDBRANCH  23  27
ENDBRANCH   2  17
TORSDOF 13
