REMARK  12 active torsions:
REMARK  status: ('A' for Active; 'I' for Inactive)
REMARK    1  A    between atoms: C_8  and  C_9 
REMARK    2  A    between atoms: C_9  and  O_10 
REMARK    3  A    between atoms: O_10  and  C_11 
REMARK    4  A    between atoms: C_20  and  S_21 
REMARK    5  A    between atoms: S_21  and  N_24 
REMARK    6  A    between atoms: C_25  and  N_24 
REMARK    7  A    between atoms: C_25  and  C_26 
REMARK    8  A    between atoms: C_25  and  C_29 
REMARK    9  A    between atoms: C_26  and  O_28 
REMARK   10  A    between atoms: C_29  and  C_30 
REMARK   11  A    between atoms: C_30  and  C_31 
REMARK   12  A    between atoms: C_31  and  O_33 
ROOT
HETATM    1  N   UNK N   1     -10.746   4.523  -0.103  0.00  0.00    -0.191 NA
HETATM    2  C   UNK N   1      -9.614   4.716  -0.002  0.00  0.00     0.099 C 
HETATM    3  C   UNK N   1      -8.202   4.954   0.113  0.00  0.00     0.044 A 
HETATM    4  C   UNK N   1      -7.694   6.246  -0.055  0.00  0.00     0.023 A 
HETATM    5  C   UNK N   1      -6.315   6.471   0.016  0.00  0.00     0.011 A 
HETATM    6  C   UNK N   1      -7.338   3.888   0.371  0.00  0.00     0.023 A 
HETATM    7  C   UNK N   1      -5.963   4.112   0.448  0.00  0.00     0.011 A 
HETATM    8  C   UNK N   1      -5.450   5.404   0.265  0.00  0.00    -0.034 A 
ENDROOT
BRANCH   8   9
HETATM    9  C   UNK N   1      -3.979   5.615   0.238  0.00  0.00     0.214 C 
BRANCH   9  10
HETATM   10  O   UNK N   1      -3.482   4.792  -0.740  0.00  0.00    -0.347 OA
BRANCH  10  11
HETATM   11  C   UNK N   1      -2.591   3.830  -0.454  0.00  0.00     0.070 A 
HETATM   12  C   UNK N   1      -1.341   4.153   0.090  0.00  0.00     0.037 A 
HETATM   13  C   UNK N   1      -0.416   3.143   0.352  0.00  0.00     0.015 A 
HETATM   14  C   UNK N   1      -0.749   1.813   0.091  0.00  0.00    -0.024 A 
HETATM   15  C   UNK N   1      -2.017   1.482  -0.430  0.00  0.00    -0.023 A 
HETATM   16  C   UNK N   1       0.177   0.814   0.326  0.00  0.00     0.037 A 
HETATM   17  C   UNK N   1      -2.928   2.496  -0.711  0.00  0.00     0.049 A 
HETATM   18  C   UNK N   1      -2.344   0.141  -0.676  0.00  0.00     0.014 A 
HETATM   19  C   UNK N   1      -1.397  -0.863  -0.433  0.00  0.00     0.026 A 
HETATM   20  C   UNK N   1      -0.134  -0.515   0.058  0.00  0.00     0.080 A 
BRANCH  20  21
HETATM   21  S   UNK N   1       1.148  -1.718   0.292  0.00  0.00     0.259 S 
HETATM   22  O   UNK N   1       0.773  -2.892   1.208  0.00  0.00    -0.201 OA
HETATM   23  O   UNK N   1       1.641  -2.400  -0.996  0.00  0.00    -0.201 OA
BRANCH  21  24
HETATM   24  N   UNK N   1       2.584  -0.999   1.042  0.00  0.00    -0.300 N 
HETATM   25  H   UNK N   1       2.830  -1.106   2.027  0.00  0.00     0.173 HD
BRANCH  24  26
HETATM   26  C   UNK N   1       3.374  -0.233   0.075  0.00  0.00     0.191 C 
BRANCH  26  27
HETATM   27  C   UNK N   1       3.752   1.092   0.708  0.00  0.00     0.164 C 
HETATM   28  O   UNK N   1       4.919   1.400   0.887  0.00  0.00    -0.648 OA
BRANCH  27  29
HETATM   29  O   UNK N   1       2.784   1.955   1.073  0.00  0.00    -0.775 OA
HETATM   30  H   UNK N   1       2.968   2.838   1.326  0.00  0.00     0.167 HD
ENDBRANCH  27  29
ENDBRANCH  26  27
BRANCH  26  31
HETATM   31  C   UNK N   1       4.562  -1.118  -0.299  0.00  0.00     0.047 C 
BRANCH  31  32
HETATM   32  C   UNK N   1       5.633  -0.444  -1.134  0.00  0.00     0.112 C 
BRANCH  32  33
HETATM   33  C   UNK N   1       6.940  -0.704  -0.460  0.00  0.00     0.139 C 
HETATM   34  O   UNK N   1       7.595   0.226  -0.019  0.00  0.00    -0.650 OA
BRANCH  33  35
HETATM   35  O   UNK N   1       7.375  -1.968  -0.296  0.00  0.00    -0.776 OA
HETATM   36  H   UNK N   1       6.764  -2.670  -0.182  0.00  0.00     0.167 HD
ENDBRANCH  33  35
ENDBRANCH  32  33
ENDBRANCH  31  32
ENDBRANCH  26  31
ENDBRANCH  24  26
ENDBRANCH  21  24
ENDBRANCH  20  21
ENDBRANCH  10  11
ENDBRANCH   9  10
ENDBRANCH   8   9
TORSDOF 12
