REMARK  12 active torsions:
REMARK  status: ('A' for Active; 'I' for Inactive)
REMARK    1  A    between atoms: C_8  and  C_9 
REMARK    2  A    between atoms: C_9  and  O_10 
REMARK    3  A    between atoms: O_10  and  C_11 
REMARK    4  A    between atoms: C_20  and  S_21 
REMARK    5  A    between atoms: S_21  and  N_24 
REMARK    6  A    between atoms: C_25  and  N_24 
REMARK    7  A    between atoms: C_25  and  C_26 
REMARK    8  A    between atoms: C_25  and  C_29 
REMARK    9  A    between atoms: C_26  and  O_27 
REMARK   10  A    between atoms: C_29  and  C_30 
REMARK   11  A    between atoms: C_30  and  C_31 
REMARK   12  A    between atoms: C_31  and  O_32 
ROOT
HETATM    1  N   UNK N   1      -9.262  -8.067   0.623  0.00  0.00    -0.191 NA
HETATM    2  C   UNK N   1      -8.128  -8.030   0.412  0.00  0.00     0.099 C 
HETATM    3  C   UNK N   1      -6.719  -7.990   0.138  0.00  0.00     0.047 A 
HETATM    4  C   UNK N   1      -6.039  -6.768   0.131  0.00  0.00     0.023 A 
HETATM    5  C   UNK N   1      -4.674  -6.730  -0.172  0.00  0.00     0.014 A 
HETATM    6  C   UNK N   1      -6.036  -9.173  -0.149  0.00  0.00     0.065 A 
HETATM    7  C   UNK N   1      -4.674  -9.139  -0.451  0.00  0.00     0.126 A 
HETATM    8  C   UNK N   1      -3.990  -7.914  -0.462  0.00  0.00     0.005 A 
HETATM    9  F   UNK N   1      -4.034 -10.294  -0.759  0.00  0.00    -0.205 F 
ENDROOT
BRANCH   8  10
HETATM   10  C   UNK N   1      -2.561  -7.859  -0.871  0.00  0.00     0.217 C 
BRANCH  10  11
HETATM   11  O   UNK N   1      -1.695  -7.913   0.199  0.00  0.00    -0.347 OA
BRANCH  11  12
HETATM   12  C   UNK N   1      -0.862  -8.965   0.347  0.00  0.00     0.070 A 
HETATM   13  C   UNK N   1       0.471  -8.734   0.700  0.00  0.00     0.037 A 
HETATM   14  C   UNK N   1       1.381  -9.793   0.741  0.00  0.00     0.015 A 
HETATM   15  C   UNK N   1       0.953 -11.090   0.451  0.00  0.00    -0.024 A 
HETATM   16  C   UNK N   1      -0.401 -11.341   0.147  0.00  0.00    -0.023 A 
HETATM   17  C   UNK N   1       1.870 -12.131   0.425  0.00  0.00     0.037 A 
HETATM   18  C   UNK N   1      -1.298 -10.277   0.087  0.00  0.00     0.049 A 
HETATM   19  C   UNK N   1      -0.823 -12.646  -0.135  0.00  0.00     0.014 A 
HETATM   20  C   UNK N   1       0.111 -13.690  -0.163  0.00  0.00     0.026 A 
HETATM   21  C   UNK N   1       1.458 -13.424   0.108  0.00  0.00     0.080 A 
BRANCH  21  22
HETATM   22  S   UNK N   1       2.710 -14.667  -0.126  0.00  0.00     0.259 S 
HETATM   23  O   UNK N   1       2.229 -15.869  -0.953  0.00  0.00    -0.201 OA
HETATM   24  O   UNK N   1       3.264 -15.316   1.152  0.00  0.00    -0.201 OA
BRANCH  22  25
HETATM   25  N   UNK N   1       4.110 -14.057  -1.030  0.00  0.00    -0.300 N 
HETATM   26  H   UNK N   1       4.287 -14.250  -2.016  0.00  0.00     0.173 HD
BRANCH  25  27
HETATM   27  C   UNK N   1       4.980 -13.240  -0.180  0.00  0.00     0.191 C 
BRANCH  27  28
HETATM   28  C   UNK N   1       5.237 -11.914  -0.863  0.00  0.00     0.164 C 
HETATM   29  O   UNK N   1       4.304 -11.163  -1.100  0.00  0.00    -0.648 OA
BRANCH  28  30
HETATM   30  O   UNK N   1       6.486 -11.539  -1.206  0.00  0.00    -0.775 OA
HETATM   31  H   UNK N   1       7.146 -12.161  -1.444  0.00  0.00     0.167 HD
ENDBRANCH  28  30
ENDBRANCH  27  28
BRANCH  27  32
HETATM   32  C   UNK N   1       6.256 -14.040   0.050  0.00  0.00     0.047 C 
BRANCH  32  33
HETATM   33  C   UNK N   1       7.226 -13.348   0.991  0.00  0.00     0.112 C 
BRANCH  33  34
HETATM   34  C   UNK N   1       8.617 -13.600   0.517  0.00  0.00     0.139 C 
HETATM   35  O   UNK N   1       9.053 -14.739   0.462  0.00  0.00    -0.650 OA
BRANCH  34  36
HETATM   36  O   UNK N   1       9.389 -12.567   0.133  0.00  0.00    -0.776 OA
HETATM   37  H   UNK N   1      10.281 -12.673  -0.135  0.00  0.00     0.167 HD
ENDBRANCH  34  36
ENDBRANCH  33  34
ENDBRANCH  32  33
ENDBRANCH  27  32
ENDBRANCH  25  27
ENDBRANCH  22  25
ENDBRANCH  21  22
ENDBRANCH  11  12
ENDBRANCH  10  11
ENDBRANCH   8  10
TORSDOF 12
