REMARK  1 active torsions:
REMARK  status: ('A' for Active; 'I' for Inactive)
REMARK    1  A    between atoms: C_10  and  C_11 
ROOT
HETATM    1  C   UNK N   1       0.609  -0.886  -0.002  0.00  0.00     0.021 A 
HETATM    2  C   UNK N   1       1.792  -0.148   0.004  0.00  0.00     0.016 A 
HETATM    3  C   UNK N   1       3.003  -0.859   0.010  0.00  0.00     0.001 A 
HETATM    4  C   UNK N   1       3.001  -2.274   0.011  0.00  0.00     0.002 A 
HETATM    5  C   UNK N   1       1.784  -2.987   0.005  0.00  0.00     0.032 A 
HETATM    6  C   UNK N   1       0.607  -2.247  -0.001  0.00  0.00     0.060 A 
HETATM    7  N   UNK N   1      -0.661  -2.699  -0.006  0.00  0.00    -0.299 N 
HETATM    8  N   UNK N   1      -1.471  -1.643  -0.009  0.00  0.00    -0.299 N 
ATOM      9  HN  UNK N   1      -2.490  -1.676  -0.013  1.00  0.00     0.187 HD
HETATM   10  C   UNK N   1      -0.715  -0.516  -0.006  0.00  0.00     0.071 A 
HETATM   11  H   UNK N   1      -0.939  -3.643  -0.007  0.00  0.00     0.187 HD
ENDROOT
BRANCH  10  12
HETATM   12  C   UNK N   1      -1.248   0.859  -0.005  0.00  0.00    -0.004 A 
HETATM   13  C   UNK N   1      -2.627   1.091  -0.002  0.00  0.00     0.030 A 
HETATM   14  C   UNK N   1      -3.101   2.406   0.002  0.00  0.00     0.088 A 
HETATM   15  N   UNK N   1      -2.226   3.450   0.004  0.00  0.00    -0.375 N 
HETATM   16  C   UNK N   1      -0.882   3.248   0.001  0.00  0.00     0.088 A 
ATOM     17  HN  UNK N   1      -2.588   4.403   0.008  1.00  0.00     0.164 HD
HETATM   18  C   UNK N   1      -0.373   1.952  -0.004  0.00  0.00     0.030 A 
ENDBRANCH  10  12
TORSDOF 1
