REMARK  15 active torsions:
REMARK  status: ('A' for Active; 'I' for Inactive)
REMARK    1  A    between atoms: C_3  and  C_2 
REMARK    2  A    between atoms: N_12  and  C_11 
REMARK    3  A    between atoms: C_13  and  N_12 
REMARK    4  A    between atoms: C_13  and  C_14 
REMARK    5  A    between atoms: C_17  and  C_13 
REMARK    6  A    between atoms: C_14  and  O_15 
REMARK    7  A    between atoms: S_18  and  C_17 
REMARK    8  A    between atoms: C_17  and  C_22 
REMARK    9  A    between atoms: S_18  and  O_19 
REMARK   10  A    between atoms: C_22  and  O_23 
REMARK   11  A    between atoms: C_24  and  O_23 
REMARK   12  A    between atoms: C_26  and  C_24 
REMARK   13  A    between atoms: C_27  and  C_26 
REMARK   14  A    between atoms: O_32  and  C_31 
REMARK   15  A    between atoms: O_34  and  C_33 
ROOT
HETATM    1  C   UNK N   1      -1.458   1.088   0.781  0.00  0.00     0.111 C 
HETATM    2  C   UNK N   1      -2.273   0.631   1.982  0.00  0.00     0.037 C 
ENDROOT
BRANCH   1   3
HETATM    3  C   UNK N   1      -2.375   1.206  -0.516  0.00  0.00     0.206 C 
BRANCH   3   4
HETATM    4  N   UNK N   1      -2.867  -0.043  -1.096  0.00  0.00    -0.359 N 
HETATM    5  H   UNK N   1      -3.533   0.060  -1.814  0.00  0.00     0.162 HD
BRANCH   4   6
HETATM    6  C   UNK N   1      -2.524  -1.383  -0.774  0.00  0.00     0.122 A 
HETATM    7  C   UNK N   1      -1.471  -2.106  -1.316  0.00  0.00     0.048 A 
HETATM    8  C   UNK N   1      -1.546  -3.400  -0.806  0.00  0.00     0.048 A 
HETATM    9  C   UNK N   1      -2.670  -3.398   0.003  0.00  0.00     0.041 A 
HETATM   10  C   UNK N   1      -3.212  -4.465   0.712  0.00  0.00     0.030 A 
HETATM   11  N   UNK N   1      -3.258  -2.186   0.010  0.00  0.00    -0.308 N 
HETATM   12  C   UNK N   1      -4.392  -4.234   1.435  0.00  0.00     0.004 A 
HETATM   13  C   UNK N   1      -4.993  -2.960   1.426  0.00  0.00     0.018 A 
HETATM   14  C   UNK N   1      -4.401  -1.921   0.691  0.00  0.00     0.099 A 
BRANCH   7  15
HETATM   15  C   UNK N   1      -0.488  -1.621  -2.293  0.00  0.00     0.273 C 
HETATM   16  O   UNK N   1       0.410  -2.348  -2.687  0.00  0.00    -0.301 OA
ENDBRANCH   7  15
ENDBRANCH   4   6
ENDBRANCH   3   4
BRANCH   3  17
HETATM   17  C   UNK N   1      -3.608   2.081  -0.352  0.00  0.00     0.165 C 
HETATM   18  O   UNK N   1      -3.967   2.489   0.742  0.00  0.00    -0.648 OA
BRANCH  17  19
HETATM   19  O   UNK N   1      -4.362   2.361  -1.432  0.00  0.00    -0.775 OA
HETATM   20  H   UNK N   1      -4.456   2.913  -2.183  0.00  0.00     0.167 HD
ENDBRANCH  17  19
ENDBRANCH   3  17
ENDBRANCH   1   3
BRANCH   1  21
HETATM   21  S   UNK N   1      -0.546   2.651   1.255  0.00  0.00     0.164 S 
HETATM   22  O   UNK N   1      -1.718   3.627   1.113  0.00  0.00    -0.228 OA
BRANCH  21  23
HETATM   23  O   UNK N   1       0.024   3.010  -0.328  0.00  0.00    -0.305 OA
HETATM   24  H   UNK N   1       0.360   2.832  -1.220  0.00  0.00     0.230 HD
ENDBRANCH  21  23
ENDBRANCH   1  21
BRANCH   1  25
HETATM   25  C   UNK N   1      -0.356   0.041   0.643  0.00  0.00     0.206 C 
BRANCH  25  26
HETATM   26  O   UNK N   1       0.421   0.268  -0.465  0.00  0.00    -0.319 OA
BRANCH  26  27
HETATM   27  C   UNK N   1       1.763   0.411  -0.430  0.00  0.00     0.263 C 
HETATM   28  O   UNK N   1       2.366   0.494  -1.490  0.00  0.00    -0.265 OA
BRANCH  27  29
HETATM   29  C   UNK N   1       2.521   0.460   0.883  0.00  0.00     0.149 C 
BRANCH  29  30
HETATM   30  C   UNK N   1       3.983   0.665   0.652  0.00  0.00    -0.046 A 
HETATM   31  C   UNK N   1       4.878  -0.382   0.888  0.00  0.00     0.010 A 
HETATM   32  C   UNK N   1       6.229  -0.232   0.563  0.00  0.00     0.040 A 
HETATM   33  C   UNK N   1       6.686   0.963  -0.003  0.00  0.00     0.098 A 
HETATM   34  C   UNK N   1       5.792   2.019  -0.225  0.00  0.00     0.099 A 
HETATM   35  C   UNK N   1       4.443   1.868   0.102  0.00  0.00     0.047 A 
BRANCH  33  36
HETATM   36  O   UNK N   1       7.981   1.089  -0.337  0.00  0.00    -0.358 OA
HETATM   37  H   UNK N   1       8.509   0.351  -0.570  0.00  0.00     0.217 HD
ENDBRANCH  33  36
BRANCH  34  38
HETATM   38  O   UNK N   1       6.220   3.173  -0.766  0.00  0.00    -0.358 OA
HETATM   39  H   UNK N   1       7.066   3.316  -1.143  0.00  0.00     0.217 HD
ENDBRANCH  34  38
ENDBRANCH  29  30
ENDBRANCH  27  29
ENDBRANCH  26  27
ENDBRANCH  25  26
ENDBRANCH   1  25
TORSDOF 15
