REMARK  5 active torsions:
REMARK  status: ('A' for Active; 'I' for Inactive)
REMARK    1  A    between atoms: C_6  and  S_27 
REMARK    2  A    between atoms: C_7  and  N_23 
REMARK    3  A    between atoms: C_8  and  C_14 
REMARK       I    between atoms: C_8  and  N_23 
REMARK    4  A    between atoms: C_13  and  N_22 
REMARK    5  A    between atoms: C_15  and  S_27 
ROOT
HETATM    1  C   UNK N   1      -2.513  -1.403  -0.693  0.00  0.00     0.021 A 
HETATM    2  C   UNK N   1      -3.018  -0.211  -0.188  0.00  0.00     0.031 A 
HETATM    3  C   UNK N   1      -0.277  -0.495  -0.611  0.00  0.00     0.038 A 
HETATM    4  C   UNK N   1      -1.145  -1.555  -0.902  0.00  0.00     0.009 A 
HETATM    5  C   UNK N   1      -2.176   0.869   0.091  0.00  0.00     0.043 A 
HETATM    6  C   UNK N   1      -0.764   0.729  -0.108  0.00  0.00     0.060 A 
ENDROOT
BRANCH   6   7
HETATM    7  C   UNK N   1       0.227   1.808   0.196  0.00  0.00     0.259 C 
HETATM    8  N   UNK N   1       1.544   1.633  -0.105  0.00  0.00    -0.303 N 
HETATM    9  H   UNK N   1       1.840   0.745  -0.411  0.00  0.00     0.171 HD
HETATM   10  O   UNK N   1      -0.132   2.834   0.748  0.00  0.00    -0.267 OA
BRANCH   8  11
HETATM   11  C   UNK N   1       2.516   2.670   0.000  0.00  0.00     0.151 A 
HETATM   12  N   UNK N   1       3.848   2.446   0.091  0.00  0.00    -0.340 N 
HETATM   13  C   UNK N   1       4.562   3.627   0.141  0.00  0.00     0.014 A 
ATOM     14  HN  UNK N   1       4.272   1.519   0.119  1.00  0.00     0.167 HD
HETATM   15  C   UNK N   1       3.807   4.812   0.068  0.00  0.00     0.077 A 
HETATM   16  C   UNK N   1       6.042   3.642   0.272  0.00  0.00     0.068 C 
HETATM   17  S   UNK N   1       2.237   4.301  -0.048  0.00  0.00    -0.064 SA
ENDBRANCH   8  11
ENDBRANCH   6   7
BRANCH   5  18
HETATM   18  N   UNK N   1      -2.800   2.065   0.536  0.00  0.00    -0.393 N 
HETATM   19  C   UNK N   1      -2.577   3.344  -0.091  0.00  0.00     0.146 C 
HETATM   20  H   UNK N   1      -3.412   2.019   1.306  0.00  0.00     0.159 HD
ENDBRANCH   5  18
BRANCH   4  21
HETATM   21  S   UNK N   1      -0.511  -3.064  -1.649  0.00  0.00    -0.053 SA
BRANCH  21  22
HETATM   22  C   UNK N   1      -1.174  -4.224  -0.439  0.00  0.00     0.166 A 
HETATM   23  N   UNK N   1      -2.459  -4.273  -0.048  0.00  0.00    -0.279 N 
HETATM   24  N   UNK N   1      -2.565  -5.273   0.817  0.00  0.00    -0.294 N 
ATOM     25  HN  UNK N   1      -3.211  -3.657  -0.357  1.00  0.00     0.189 HD
HETATM   26  C   UNK N   1      -1.345  -5.839   0.941  0.00  0.00     0.201 A 
ATOM     27  HN  UNK N   1      -3.415  -5.563   1.301  1.00  0.00     0.187 HD
HETATM   28  N   UNK N   1      -0.465  -5.193   0.158  0.00  0.00    -0.326 N 
HETATM   29  C   UNK N   1       0.942  -5.509  -0.013  0.00  0.00     0.159 C 
ENDBRANCH  21  22
ENDBRANCH   4  21
TORSDOF 5
