REMARK  7 active torsions:
REMARK  status: ('A' for Active; 'I' for Inactive)
REMARK    1  A    between atoms: C_6  and  C_7 
REMARK    2  A    between atoms: C_7  and  C_8 
REMARK    3  A    between atoms: C_8  and  C_9 
REMARK    4  A    between atoms: C_8  and  O_12 
REMARK    5  A    between atoms: C_9  and  O_10 
REMARK    6  A    between atoms: O_12  and  C_13 
REMARK    7  A    between atoms: C_19  and  C_18 
ROOT
HETATM    1  O   UNK N   1      -0.451   1.687  -0.086  0.00  0.00    -0.335 OA
ENDROOT
BRANCH   1   2
HETATM    2  C   UNK N   1       0.777   1.148   0.157  0.00  0.00     0.070 A 
HETATM    3  C   UNK N   1       1.917   1.738  -0.399  0.00  0.00     0.037 A 
HETATM    4  C   UNK N   1       3.152   1.077  -0.330  0.00  0.00     0.015 A 
HETATM    5  C   UNK N   1       3.251  -0.174   0.306  0.00  0.00    -0.026 A 
HETATM    6  C   UNK N   1       2.121  -0.716   0.927  0.00  0.00     0.015 A 
HETATM    7  C   UNK N   1       0.899  -0.063   0.855  0.00  0.00     0.037 A 
BRANCH   5   8
HETATM    8  C   UNK N   1       4.491  -0.980   0.228  0.00  0.00    -0.026 A 
HETATM    9  C   UNK N   1       5.620  -0.504  -0.456  0.00  0.00     0.012 A 
HETATM   10  C   UNK N   1       6.750  -1.314  -0.601  0.00  0.00     0.001 A 
HETATM   11  C   UNK N   1       6.757  -2.609  -0.074  0.00  0.00     0.000 A 
HETATM   12  C   UNK N   1       5.639  -3.093   0.607  0.00  0.00     0.001 A 
HETATM   13  C   UNK N   1       4.511  -2.284   0.755  0.00  0.00     0.012 A 
ENDBRANCH   5   8
ENDBRANCH   1   2
BRANCH   1  14
HETATM   14  C   UNK N   1      -1.626   0.953   0.019  0.00  0.00     0.230 C 
BRANCH  14  15
HETATM   15  C   UNK N   1      -2.809   1.876  -0.316  0.00  0.00     0.082 C 
BRANCH  15  16
HETATM   16  C   UNK N   1      -4.198   1.347  -0.059  0.00  0.00    -0.055 A 
HETATM   17  C   UNK N   1      -5.290   2.081  -0.534  0.00  0.00     0.007 A 
HETATM   18  C   UNK N   1      -6.595   1.621  -0.329  0.00  0.00     0.001 A 
HETATM   19  C   UNK N   1      -6.816   0.422   0.354  0.00  0.00     0.000 A 
HETATM   20  C   UNK N   1      -5.733  -0.313   0.840  0.00  0.00     0.001 A 
HETATM   21  C   UNK N   1      -4.430   0.151   0.641  0.00  0.00     0.007 A 
ENDBRANCH  15  16
ENDBRANCH  14  15
BRANCH  14  22
HETATM   22  C   UNK N   1      -1.601  -0.240  -0.937  0.00  0.00     0.170 C 
HETATM   23  O   UNK N   1      -0.666  -0.384  -1.721  0.00  0.00    -0.648 OA
BRANCH  22  24
HETATM   24  O   UNK N   1      -2.572  -1.163  -0.916  0.00  0.00    -0.774 OA
HETATM   25  H   UNK N   1      -3.471  -0.898  -0.902  0.00  0.00     0.167 HD
ENDBRANCH  22  24
ENDBRANCH  14  22
ENDBRANCH   1  14
TORSDOF 7
