REMARK  4 active torsions:
REMARK  status: ('A' for Active; 'I' for Inactive)
REMARK    1  A    between atoms: C_11  and  N_12 
REMARK    2  A    between atoms: N_12  and  C_13 
REMARK    3  A    between atoms: C_16  and  S_19 
REMARK    4  A    between atoms: S_19  and  N_22 
ROOT
HETATM    1  N   UNK N   1      -0.646  -1.263  -0.008  0.00  0.00    -0.365 N 
HETATM    2  H   UNK N   1      -1.300  -1.999  -0.037  0.00  0.00     0.165 HD
ENDROOT
BRANCH   1   3
HETATM    3  C   UNK N   1       0.747  -1.535  -0.037  0.00  0.00     0.106 C 
HETATM    4  C   UNK N   1       1.275  -2.760  -0.039  0.00  0.00     0.060 A 
HETATM    5  C   UNK N   1       0.640  -4.087  -0.018  0.00  0.00     0.258 A 
HETATM    6  C   UNK N   1       2.699  -3.042  -0.034  0.00  0.00     0.008 A 
HETATM    7  N   UNK N   1       1.586  -5.058   0.002  0.00  0.00    -0.322 N 
HETATM    8  O   UNK N   1      -0.555  -4.313  -0.015  0.00  0.00    -0.267 OA
HETATM    9  C   UNK N   1       2.841  -4.412  -0.006  0.00  0.00     0.046 A 
HETATM   10  H   UNK N   1       1.428  -6.029   0.018  0.00  0.00     0.169 HD
HETATM   11  C   UNK N   1       4.100  -5.009   0.020  0.00  0.00     0.030 A 
HETATM   12  C   UNK N   1       5.230  -4.168   0.015  0.00  0.00     0.002 A 
HETATM   13  C   UNK N   1       5.079  -2.764  -0.015  0.00  0.00     0.001 A 
HETATM   14  C   UNK N   1       3.798  -2.187  -0.039  0.00  0.00     0.015 A 
ENDBRANCH   1   3
BRANCH   1  15
HETATM   15  C   UNK N   1      -1.082   0.088   0.065  0.00  0.00     0.032 A 
HETATM   16  C   UNK N   1      -2.447   0.403   0.131  0.00  0.00     0.031 A 
HETATM   17  C   UNK N   1      -2.858   1.747   0.206  0.00  0.00     0.027 A 
HETATM   18  C   UNK N   1      -1.902   2.788   0.187  0.00  0.00     0.079 A 
HETATM   19  C   UNK N   1      -0.543   2.448   0.149  0.00  0.00     0.027 A 
HETATM   20  C   UNK N   1      -0.139   1.124   0.085  0.00  0.00     0.031 A 
BRANCH  18  21
HETATM   21  S   UNK N   1      -2.353   4.561   0.305  0.00  0.00     0.258 S 
HETATM   22  O   UNK N   1      -1.051   5.001  -0.385  0.00  0.00    -0.201 OA
HETATM   23  O   UNK N   1      -2.970   4.102  -1.027  0.00  0.00    -0.201 OA
BRANCH  21  24
HETATM   24  N   UNK N   1      -3.150   6.020  -0.293  0.00  0.00    -0.320 N 
HETATM   25  C   UNK N   1      -4.035   6.503   0.749  0.00  0.00     0.159 C 
HETATM   26  H   UNK N   1      -3.012   6.447  -1.209  0.00  0.00     0.171 HD
ENDBRANCH  21  24
ENDBRANCH  18  21
ENDBRANCH   1  15
TORSDOF 4
