REMARK  6 active torsions:
REMARK  status: ('A' for Active; 'I' for Inactive)
REMARK    1  A    between atoms: C_3  and  N_11 
REMARK    2  A    between atoms: N_11  and  N_17 
REMARK    3  A    between atoms: N_17  and  C_18 
REMARK    4  A    between atoms: C_21  and  C_24 
REMARK    5  A    between atoms: C_24  and  S_25 
REMARK    6  A    between atoms: S_25  and  N_28 
ROOT
HETATM    1  N   UNK N   1      -1.240  -1.783   0.356  0.00  0.00    -0.294 N 
ATOM      2  HN  UNK N   1      -0.318  -1.359   0.461  1.00  0.00     0.187 HD
ENDROOT
BRANCH   1   3
HETATM    3  C   UNK N   1      -1.290  -3.056   0.269  0.00  0.00     0.130 A 
HETATM    4  C   UNK N   1      -2.417  -3.978   0.110  0.00  0.00     0.275 A 
HETATM    5  N   UNK N   1      -1.952  -5.239  -0.093  0.00  0.00    -0.321 N 
HETATM    6  O   UNK N   1      -3.600  -3.689   0.135  0.00  0.00    -0.266 OA
HETATM    7  C   UNK N   1      -0.535  -5.162  -0.082  0.00  0.00     0.049 A 
HETATM    8  H   UNK N   1      -2.494  -6.050  -0.224  0.00  0.00     0.169 HD
HETATM    9  C   UNK N   1       0.392  -6.197  -0.303  0.00  0.00     0.033 A 
HETATM   10  C   UNK N   1      -0.117  -3.871   0.143  0.00  0.00     0.044 A 
HETATM   11  C   UNK N   1       1.780  -5.883  -0.289  0.00  0.00     0.033 A 
HETATM   12  C   UNK N   1       2.181  -4.550  -0.055  0.00  0.00     0.050 A 
HETATM   13  C   UNK N   1       1.229  -3.562   0.159  0.00  0.00     0.047 A 
HETATM   14  N   UNK N   1       3.488  -4.112  -0.029  0.00  0.00    -0.359 N 
HETATM   15  S   UNK N   1       2.045  -2.149   0.377  0.00  0.00    -0.082 SA
HETATM   16  C   UNK N   1       3.584  -2.768   0.208  0.00  0.00     0.139 A 
ATOM     17  HN  UNK N   1       4.293  -4.722  -0.170  1.00  0.00     0.166 HD
ENDBRANCH   1   3
BRANCH   1  18
HETATM   18  N   UNK N   1      -2.316  -0.938   0.320  0.00  0.00    -0.300 N 
HETATM   19  H   UNK N   1      -3.218  -1.227   0.586  0.00  0.00     0.187 HD
BRANCH  18  20
HETATM   20  C   UNK N   1      -2.047   0.376  -0.124  0.00  0.00     0.048 A 
HETATM   21  C   UNK N   1      -2.842   1.460   0.262  0.00  0.00     0.031 A 
HETATM   22  C   UNK N   1      -2.420   2.765  -0.044  0.00  0.00     0.010 A 
HETATM   23  C   UNK N   1      -1.220   2.970  -0.744  0.00  0.00    -0.043 A 
HETATM   24  C   UNK N   1      -0.468   1.882  -1.177  0.00  0.00     0.010 A 
HETATM   25  C   UNK N   1      -0.875   0.600  -0.863  0.00  0.00     0.031 A 
BRANCH  23  26
HETATM   26  C   UNK N   1      -0.650   4.334  -0.895  0.00  0.00     0.201 C 
BRANCH  26  27
HETATM   27  S   UNK N   1       0.861   4.441   0.140  0.00  0.00     0.230 S 
HETATM   28  O   UNK N   1       1.031   3.206   1.045  0.00  0.00    -0.206 OA
HETATM   29  O   UNK N   1       0.787   5.568   1.180  0.00  0.00    -0.206 OA
BRANCH  27  30
HETATM   30  N   UNK N   1       2.431   4.620  -0.661  0.00  0.00    -0.324 N 
HETATM   31  C   UNK N   1       3.468   4.609   0.359  0.00  0.00     0.159 C 
HETATM   32  H   UNK N   1       2.582   4.715  -1.666  0.00  0.00     0.171 HD
ENDBRANCH  27  30
ENDBRANCH  26  27
ENDBRANCH  23  26
ENDBRANCH  18  20
ENDBRANCH   1  18
TORSDOF 6
