REMARK  4 active torsions:
REMARK  status: ('A' for Active; 'I' for Inactive)
REMARK    1  A    between atoms: C_7  and  C_8 
REMARK    2  A    between atoms: C_16  and  C_17 
REMARK    3  A    between atoms: C_17  and  N_18 
REMARK    4  A    between atoms: N_18  and  C_19 
ROOT
HETATM    1  O   UNK N   1       1.264  -4.327   0.000  0.00  0.00    -0.267 OA
HETATM    2  C   UNK N   1       1.995  -3.353  -0.007  0.00  0.00     0.258 A 
HETATM    3  N   UNK N   1       3.353  -3.429   0.010  0.00  0.00    -0.322 N 
HETATM    4  C   UNK N   1       3.837  -2.097  -0.001  0.00  0.00     0.046 A 
HETATM    5  C   UNK N   1       5.160  -1.647   0.022  0.00  0.00     0.031 A 
HETATM    6  C   UNK N   1       5.384  -0.245   0.017  0.00  0.00     0.016 A 
HETATM    7  C   UNK N   1       4.287   0.659  -0.011  0.00  0.00     0.000 A 
HETATM    8  C   UNK N   1       2.985   0.160  -0.034  0.00  0.00     0.029 A 
HETATM    9  C   UNK N   1       2.799  -1.207  -0.029  0.00  0.00     0.009 A 
HETATM   10  C   UNK N   1       1.569  -1.945  -0.033  0.00  0.00     0.060 A 
HETATM   11  H   UNK N   1       3.895  -4.250   0.027  0.00  0.00     0.169 HD
ENDROOT
BRANCH  10  12
HETATM   12  C   UNK N   1       0.398  -1.316  -0.040  0.00  0.00     0.106 C 
BRANCH  12  13
HETATM   13  N   UNK N   1      -0.891  -1.888  -0.018  0.00  0.00    -0.365 N 
HETATM   14  H   UNK N   1      -1.022  -2.864  -0.025  0.00  0.00     0.165 HD
BRANCH  13  15
HETATM   15  C   UNK N   1      -1.993  -0.990   0.015  0.00  0.00     0.032 A 
HETATM   16  C   UNK N   1      -3.311  -1.468   0.083  0.00  0.00     0.038 A 
HETATM   17  C   UNK N   1      -4.353  -0.532   0.129  0.00  0.00    -0.035 A 
HETATM   18  C   UNK N   1      -5.788  -0.801   0.177  0.00  0.00     0.179 C 
HETATM   19  C   UNK N   1      -4.123   0.786   0.106  0.00  0.00    -0.037 A 
HETATM   20  S   UNK N   1      -6.671   0.556  -0.764  0.00  0.00     0.152 S 
HETATM   21  O   UNK N   1      -7.644  -0.221   0.135  0.00  0.00    -0.227 OA
HETATM   22  O   UNK N   1      -7.294   1.667   0.096  0.00  0.00    -0.227 OA
HETATM   23  C   UNK N   1      -5.369   1.542   0.140  0.00  0.00     0.179 C 
HETATM   24  C   UNK N   1      -2.838   1.307   0.031  0.00  0.00     0.011 A 
HETATM   25  C   UNK N   1      -1.767   0.412  -0.011  0.00  0.00     0.030 A 
ENDBRANCH  13  15
ENDBRANCH  12  13
ENDBRANCH  10  12
BRANCH   7  26
HETATM   26  C   UNK N   1       4.466   2.118  -0.008  0.00  0.00     0.102 A 
HETATM   27  O   UNK N   1       5.611   2.748   0.020  0.00  0.00    -0.304 OA
HETATM   28  C   UNK N   1       5.360   4.039   0.016  0.00  0.00     0.233 A 
HETATM   29  N   UNK N   1       4.029   4.271  -0.014  0.00  0.00    -0.354 N 
HETATM   30  C   UNK N   1       3.454   3.055  -0.030  0.00  0.00     0.127 A 
ATOM     31  HN  UNK N   1       3.560   5.176  -0.024  1.00  0.00     0.166 HD
ENDBRANCH   7  26
TORSDOF 4
