REMARK  6 active torsions:
REMARK  status: ('A' for Active; 'I' for Inactive)
REMARK    1  A    between atoms: C_10  and  C_11 
REMARK    2  A    between atoms: C_11  and  N_12 
REMARK    3  A    between atoms: N_12  and  C_13 
REMARK    4  A    between atoms: C_16  and  S_19 
REMARK    5  A    between atoms: S_19  and  N_22 
REMARK    6  A    between atoms: N_22  and  C_23 
ROOT
HETATM    1  C   UNK N   1      -0.437   0.329  -0.311  0.00  0.00     0.032 A 
HETATM    2  C   UNK N   1       0.710  -0.472  -0.170  0.00  0.00     0.031 A 
HETATM    3  C   UNK N   1       0.611  -1.792   0.227  0.00  0.00     0.027 A 
HETATM    4  C   UNK N   1      -0.633  -2.338   0.514  0.00  0.00     0.080 A 
HETATM    5  C   UNK N   1      -1.786  -1.544   0.415  0.00  0.00     0.027 A 
HETATM    6  C   UNK N   1      -1.689  -0.203   0.011  0.00  0.00     0.031 A 
ENDROOT
BRANCH   1   7
HETATM    7  N   UNK N   1      -0.304   1.660  -0.786  0.00  0.00    -0.365 N 
HETATM    8  H   UNK N   1      -1.087   2.244  -0.911  0.00  0.00     0.165 HD
BRANCH   7   9
HETATM    9  C   UNK N   1       1.007   2.104  -1.071  0.00  0.00     0.106 C 
BRANCH   9  10
HETATM   10  C   UNK N   1       1.588   3.032  -0.323  0.00  0.00     0.060 A 
HETATM   11  C   UNK N   1       1.024   3.838   0.767  0.00  0.00     0.258 A 
HETATM   12  O   UNK N   1      -0.152   3.922   1.065  0.00  0.00    -0.267 OA
HETATM   13  N   UNK N   1       2.012   4.492   1.420  0.00  0.00    -0.322 N 
HETATM   14  C   UNK N   1       3.227   4.119   0.807  0.00  0.00     0.046 A 
HETATM   15  H   UNK N   1       1.904   5.111   2.179  0.00  0.00     0.169 HD
HETATM   16  C   UNK N   1       4.512   4.454   1.221  0.00  0.00     0.030 A 
HETATM   17  C   UNK N   1       3.015   3.264  -0.253  0.00  0.00     0.008 A 
HETATM   18  C   UNK N   1       5.597   3.895   0.521  0.00  0.00     0.002 A 
HETATM   19  C   UNK N   1       5.377   3.015  -0.562  0.00  0.00     0.001 A 
HETATM   20  C   UNK N   1       4.069   2.684  -0.954  0.00  0.00     0.015 A 
ENDBRANCH   9  10
ENDBRANCH   7   9
ENDBRANCH   1   7
BRANCH   4  21
HETATM   21  S   UNK N   1      -0.719  -4.107   0.716  0.00  0.00     0.264 S 
HETATM   22  O   UNK N   1      -0.604  -4.683  -0.703  0.00  0.00    -0.200 OA
HETATM   23  O   UNK N   1       0.524  -4.747   1.354  0.00  0.00    -0.200 OA
BRANCH  21  24
HETATM   24  N   UNK N   1      -2.106  -4.980   1.325  0.00  0.00    -0.260 N 
HETATM   25  H   UNK N   1      -2.000  -5.612   2.072  0.00  0.00     0.181 HD
BRANCH  24  26
HETATM   26  C   UNK N   1      -3.376  -4.781   0.748  0.00  0.00     0.158 A 
HETATM   27  S   UNK N   1      -4.531  -5.930   0.570  0.00  0.00    -0.064 SA
HETATM   28  C   UNK N   1      -5.631  -5.014  -0.270  0.00  0.00     0.070 A 
HETATM   29  C   UNK N   1      -5.031  -3.746  -0.400  0.00  0.00     0.097 A 
HETATM   30  N   UNK N   1      -3.775  -3.634   0.155  0.00  0.00    -0.345 N 
ATOM     31  HN  UNK N   1      -3.212  -2.784   0.122  1.00  0.00     0.167 HD
ENDBRANCH  24  26
ENDBRANCH  21  24
ENDBRANCH   4  21
TORSDOF 6
