REMARK  7 active torsions:
REMARK  status: ('A' for Active; 'I' for Inactive)
REMARK    1  A    between atoms: C_7  and  C_8 
REMARK    2  A    between atoms: C_13  and  N_14 
REMARK    3  A    between atoms: N_14  and  C_15 
REMARK    4  A    between atoms: C_15  and  C_16 
REMARK    5  A    between atoms: C_16  and  N_17 
REMARK    6  A    between atoms: C_19  and  N_20 
REMARK    7  A    between atoms: N_20  and  C_21 
ROOT
HETATM    1  F   UNK N   1      -3.924   4.680  -0.059  0.00  0.00    -0.203 F 
HETATM    2  C   UNK N   1      -3.662   3.350  -0.018  0.00  0.00     0.157 A 
HETATM    3  C   UNK N   1      -2.337   2.899   0.004  0.00  0.00     0.182 A 
HETATM    4  F   UNK N   1      -1.363   3.832  -0.025  0.00  0.00    -0.200 F 
HETATM    5  C   UNK N   1      -4.720   2.443  -0.008  0.00  0.00     0.046 A 
HETATM    6  C   UNK N   1      -4.467   1.075   0.021  0.00  0.00     0.021 A 
HETATM    7  C   UNK N   1      -3.153   0.597   0.052  0.00  0.00     0.047 A 
HETATM    8  C   UNK N   1      -2.061   1.507   0.042  0.00  0.00     0.089 A 
ENDROOT
BRANCH   7   9
HETATM    9  C   UNK N   1      -2.913  -0.867   0.043  0.00  0.00     0.178 A 
HETATM   10  N   UNK N   1      -3.856  -1.814  -0.153  0.00  0.00    -0.276 N 
HETATM   11  N   UNK N   1      -3.218  -2.976  -0.215  0.00  0.00    -0.263 N 
ATOM     12  HN  UNK N   1      -4.862  -1.665  -0.238  1.00  0.00     0.189 HD
HETATM   13  C   UNK N   1      -1.912  -2.699  -0.034  0.00  0.00     0.241 A 
ATOM     14  HN  UNK N   1      -3.634  -3.895  -0.368  1.00  0.00     0.190 HD
HETATM   15  O   UNK N   1      -1.728  -1.420   0.120  0.00  0.00    -0.259 OA
BRANCH  13  16
HETATM   16  N   UNK N   1      -0.853  -3.628  -0.137  0.00  0.00    -0.353 N 
HETATM   17  H   UNK N   1       0.027  -3.398   0.238  0.00  0.00     0.163 HD
BRANCH  16  18
HETATM   18  C   UNK N   1      -1.033  -4.903  -0.777  0.00  0.00     0.142 C 
BRANCH  18  19
HETATM   19  C   UNK N   1      -0.644  -6.022   0.158  0.00  0.00     0.130 C 
BRANCH  19  20
HETATM   20  N   UNK N   1      -1.847  -6.620   0.706  0.00  0.00    -0.429 N 
HETATM   21  H   UNK N   1      -2.634  -6.098   1.091  0.00  0.00     0.149 HD
HETATM   22  H   UNK N   1      -1.910  -7.638   0.706  0.00  0.00     0.149 HD
ENDBRANCH  19  20
ENDBRANCH  18  19
ENDBRANCH  16  18
ENDBRANCH  13  16
ENDBRANCH   7   9
BRANCH   8  23
HETATM   23  N   UNK N   1      -0.745   0.941   0.038  0.00  0.00    -0.350 N 
HETATM   24  H   UNK N   1      -0.780  -0.043   0.045  0.00  0.00     0.166 HD
BRANCH  23  25
HETATM   25  C   UNK N   1       0.597   1.410   0.027  0.00  0.00     0.071 A 
HETATM   26  C   UNK N   1       0.938   2.764   0.066  0.00  0.00     0.034 A 
HETATM   27  C   UNK N   1       2.278   3.160   0.060  0.00  0.00     0.020 A 
HETATM   28  C   UNK N   1       3.290   2.198   0.016  0.00  0.00     0.009 A 
HETATM   29  I   UNK N   1       5.308   2.786   0.019  0.00  0.00    -0.044 I 
HETATM   30  C   UNK N   1       2.962   0.844  -0.023  0.00  0.00     0.062 A 
HETATM   31  C   UNK N   1       1.623   0.450  -0.018  0.00  0.00     0.144 A 
HETATM   32  F   UNK N   1       1.319  -0.872  -0.056  0.00  0.00    -0.204 F 
ENDBRANCH  23  25
ENDBRANCH   8  23
TORSDOF 7
