REMARK  4 active torsions:
REMARK  status: ('A' for Active; 'I' for Inactive)
REMARK    1  A    between atoms: C_5  and  N_6 
REMARK       I    between atoms: N_6  and  C_7 
REMARK    2  A    between atoms: C_7  and  C_9 
REMARK    3  A    between atoms: C_14  and  N_15 
REMARK       I    between atoms: N_15  and  C_16 
REMARK    4  A    between atoms: C_16  and  C_18 
ROOT
HETATM    1  C   UNK N   1      17.021   2.287  -0.011  0.00  0.00     0.144 A 
HETATM    2  N   UNK N   1      18.126   1.578  -0.302  0.00  0.00    -0.294 N 
ATOM      3  HN  UNK N   1      19.084   1.928  -0.292  1.00  0.00     0.187 HD
HETATM    4  N   UNK N   1      17.748   0.339  -0.606  0.00  0.00    -0.309 N 
HETATM    5  C   UNK N   1      16.394   0.248  -0.540  0.00  0.00     0.139 A 
HETATM    6  C   UNK N   1      15.930   1.484  -0.161  0.00  0.00     0.086 A 
HETATM    7  H   UNK N   1      18.356  -0.399  -0.842  0.00  0.00     0.186 HD
ENDROOT
BRANCH   1   8
HETATM    8  C   UNK N   1      16.912   3.716   0.334  0.00  0.00     0.276 C 
HETATM    9  N   UNK N   1      17.889   4.615   0.040  0.00  0.00    -0.322 N 
HETATM   10  H   UNK N   1      18.796   4.292  -0.163  0.00  0.00     0.169 HD
HETATM   11  O   UNK N   1      15.859   4.104   0.826  0.00  0.00    -0.266 OA
BRANCH   9  12
HETATM   12  C   UNK N   1      17.624   6.022   0.019  0.00  0.00     0.035 A 
HETATM   13  C   UNK N   1      18.675   6.944   0.023  0.00  0.00     0.032 A 
HETATM   14  C   UNK N   1      18.401   8.318  -0.062  0.00  0.00     0.044 A 
HETATM   15  C   UNK N   1      17.079   8.772  -0.169  0.00  0.00     0.116 A 
HETATM   16  F   UNK N   1      16.812  10.096  -0.259  0.00  0.00    -0.206 F 
HETATM   17  C   UNK N   1      16.031   7.859  -0.192  0.00  0.00     0.044 A 
HETATM   18  C   UNK N   1      16.302   6.501  -0.105  0.00  0.00     0.032 A 
ENDBRANCH   9  12
ENDBRANCH   1   8
BRANCH   6  19
HETATM   19  N   UNK N   1      14.609   1.991  -0.069  0.00  0.00    -0.320 N 
HETATM   20  C   UNK N   1      13.421   1.359  -0.110  0.00  0.00     0.256 C 
HETATM   21  O   UNK N   1      13.356   0.140  -0.156  0.00  0.00    -0.267 OA
HETATM   22  H   UNK N   1      14.551   2.967   0.042  0.00  0.00     0.169 HD
BRANCH  20  23
HETATM   23  C   UNK N   1      12.201   2.200  -0.079  0.00  0.00     0.032 A 
HETATM   24  C   UNK N   1      10.922   1.636  -0.008  0.00  0.00     0.017 A 
HETATM   25  C   UNK N   1       9.792   2.463   0.024  0.00  0.00     0.001 A 
HETATM   26  C   UNK N   1       9.933   3.854  -0.024  0.00  0.00     0.000 A 
HETATM   27  C   UNK N   1      11.205   4.424  -0.101  0.00  0.00     0.001 A 
HETATM   28  C   UNK N   1      12.332   3.601  -0.124  0.00  0.00     0.017 A 
ENDBRANCH  20  23
ENDBRANCH   6  19
TORSDOF 4
