REMARK  4 active torsions:
REMARK  status: ('A' for Active; 'I' for Inactive)
REMARK    1  A    between atoms: C_5  and  N_6 
REMARK       I    between atoms: N_6  and  C_7 
REMARK    2  A    between atoms: C_7  and  C_9 
REMARK    3  A    between atoms: C_14  and  N_15 
REMARK       I    between atoms: N_15  and  C_16 
REMARK    4  A    between atoms: C_16  and  C_18 
ROOT
HETATM    1  C   UNK N   1      16.833   2.385   0.078  0.00  0.00     0.144 A 
HETATM    2  N   UNK N   1      17.984   1.695  -0.012  0.00  0.00    -0.294 N 
ATOM      3  HN  UNK N   1      18.922   2.094  -0.034  1.00  0.00     0.187 HD
HETATM    4  N   UNK N   1      17.685   0.400  -0.068  0.00  0.00    -0.309 N 
HETATM    5  C   UNK N   1      16.338   0.245  -0.028  0.00  0.00     0.139 A 
HETATM    6  C   UNK N   1      15.788   1.502   0.066  0.00  0.00     0.086 A 
HETATM    7  H   UNK N   1      18.340  -0.332  -0.129  0.00  0.00     0.186 HD
ENDROOT
BRANCH   6   8
HETATM    8  N   UNK N   1      14.428   1.909   0.075  0.00  0.00    -0.319 N 
HETATM    9  C   UNK N   1      13.314   1.146   0.045  0.00  0.00     0.262 C 
HETATM   10  O   UNK N   1      13.399  -0.073   0.049  0.00  0.00    -0.267 OA
HETATM   11  H   UNK N   1      14.276   2.881   0.108  0.00  0.00     0.169 HD
BRANCH   9  12
HETATM   12  C   UNK N   1      11.977   1.827   0.004  0.00  0.00     0.109 A 
HETATM   13  C   UNK N   1      10.780   1.080   0.042  0.00  0.00     0.135 A 
HETATM   14  F   UNK N   1      10.801  -0.273   0.120  0.00  0.00    -0.205 F 
HETATM   15  C   UNK N   1       9.541   1.729   0.004  0.00  0.00     0.043 A 
HETATM   16  C   UNK N   1       9.471   3.119  -0.075  0.00  0.00     0.006 A 
HETATM   17  C   UNK N   1      10.639   3.871  -0.118  0.00  0.00     0.043 A 
HETATM   18  C   UNK N   1      11.885   3.243  -0.079  0.00  0.00     0.135 A 
HETATM   19  F   UNK N   1      12.987   4.026  -0.135  0.00  0.00    -0.205 F 
ENDBRANCH   9  12
ENDBRANCH   6   8
BRANCH   1  20
HETATM   20  C   UNK N   1      16.674   3.851   0.140  0.00  0.00     0.276 C 
HETATM   21  N   UNK N   1      17.719   4.705  -0.043  0.00  0.00    -0.322 N 
HETATM   22  H   UNK N   1      18.629   4.334  -0.101  0.00  0.00     0.169 HD
HETATM   23  O   UNK N   1      15.557   4.295   0.353  0.00  0.00    -0.266 OA
BRANCH  21  24
HETATM   24  C   UNK N   1      17.543   6.122  -0.154  0.00  0.00     0.035 A 
HETATM   25  C   UNK N   1      18.641   6.977  -0.011  0.00  0.00     0.032 A 
HETATM   26  C   UNK N   1      18.469   8.365  -0.117  0.00  0.00     0.044 A 
HETATM   27  C   UNK N   1      17.202   8.902  -0.377  0.00  0.00     0.116 A 
HETATM   28  F   UNK N   1      17.033  10.242  -0.472  0.00  0.00    -0.206 F 
HETATM   29  C   UNK N   1      16.109   8.058  -0.542  0.00  0.00     0.044 A 
HETATM   30  C   UNK N   1      16.279   6.681  -0.433  0.00  0.00     0.032 A 
ENDBRANCH  21  24
ENDBRANCH   1  20
TORSDOF 4
