REMARK  2 active torsions:
REMARK  status: ('A' for Active; 'I' for Inactive)
REMARK    1  A    between atoms: C_2  and  N_4 
REMARK    2  A    between atoms: N_4  and  C_5 
ROOT
HETATM    1  C   UNK N   1      15.581   3.979   0.015  0.00  0.00     0.128 A 
HETATM    2  C   UNK N   1      16.698   3.148  -0.088  0.00  0.00     0.092 A 
HETATM    3  C   UNK N   1      16.536   1.773  -0.142  0.00  0.00     0.108 A 
HETATM    4 Cl   UNK N   1      17.969   0.778  -0.170  0.00  0.00    -0.064 Cl
HETATM    5  N   UNK N   1      15.285   1.232  -0.122  0.00  0.00    -0.330 N 
ATOM      6  HN  UNK N   1      15.151   0.222  -0.174  1.00  0.00     0.168 HD
HETATM    7  C   UNK N   1      14.221   2.073  -0.033  0.00  0.00     0.152 A 
HETATM    8  C   UNK N   1      12.903   1.762  -0.017  0.00  0.00     0.107 A 
HETATM    9  C   UNK N   1      12.391   0.432  -0.117  0.00  0.00     0.105 C 
HETATM   10  N   UNK N   1      12.040  -0.666  -0.201  0.00  0.00    -0.191 NA
HETATM   11  C   UNK N   1      12.232   2.981   0.093  0.00  0.00     0.134 A 
HETATM   12  N   UNK N   1      13.169   3.970   0.131  0.00  0.00    -0.300 N 
ATOM     13  HN  UNK N   1      12.987   4.970   0.209  1.00  0.00     0.186 HD
HETATM   14  N   UNK N   1      14.360   3.395   0.049  0.00  0.00    -0.223 N 
ENDROOT
BRANCH   1  15
HETATM   15  N   UNK N   1      15.737   5.382   0.088  0.00  0.00    -0.371 N 
HETATM   16  H   UNK N   1      15.001   5.923   0.456  0.00  0.00     0.161 HD
BRANCH  15  17
HETATM   17  C   UNK N   1      16.944   6.053  -0.362  0.00  0.00     0.075 C 
HETATM   18  C   UNK N   1      16.907   7.481   0.109  0.00  0.00     0.031 C 
HETATM   19  C   UNK N   1      18.231   5.431   0.165  0.00  0.00     0.031 C 
ENDBRANCH  15  17
ENDBRANCH   1  15
TORSDOF 2
