REMARK  5 active torsions:
REMARK  status: ('A' for Active; 'I' for Inactive)
REMARK    1  A    between atoms: C_2  and  N_4 
REMARK    2  A    between atoms: N_4  and  C_5 
REMARK    3  A    between atoms: C_7  and  N_8 
REMARK    4  A    between atoms: C_9  and  N_8 
REMARK    5  A    between atoms: C_12  and  N_13 
ROOT
HETATM    1  C   UNK N   1      14.619   6.495  -0.088  0.00  0.00     0.129 A 
HETATM    2  C   UNK N   1      15.745   5.945   0.536  0.00  0.00     0.098 A 
HETATM    3  C   UNK N   1      15.653   4.671   1.128  0.00  0.00     0.106 A 
HETATM    4  N   UNK N   1      14.485   3.977   1.063  0.00  0.00    -0.326 N 
ATOM      5  HN  UNK N   1      14.400   3.063   1.507  1.00  0.00     0.169 HD
HETATM    6  C   UNK N   1      13.444   4.518   0.401  0.00  0.00     0.153 A 
HETATM    7  C   UNK N   1      12.268   3.925   0.074  0.00  0.00     0.107 A 
HETATM    8  C   UNK N   1      11.899   2.581   0.418  0.00  0.00     0.105 C 
HETATM    9  N   UNK N   1      11.651   1.493   0.722  0.00  0.00    -0.191 NA
HETATM   10  C   UNK N   1      11.595   4.857  -0.711  0.00  0.00     0.134 A 
HETATM   11  N   UNK N   1      12.387   5.955  -0.825  0.00  0.00    -0.300 N 
ATOM     12  HN  UNK N   1      12.159   6.808  -1.336  1.00  0.00     0.186 HD
HETATM   13  N   UNK N   1      13.504   5.724  -0.158  0.00  0.00    -0.223 N 
ENDROOT
BRANCH   3  14
HETATM   14  N   UNK N   1      16.842   3.939   1.262  0.00  0.00    -0.371 N 
HETATM   15  H   UNK N   1      17.300   3.872   2.130  0.00  0.00     0.161 HD
BRANCH  14  16
HETATM   16  C   UNK N   1      17.379   3.279   0.077  0.00  0.00     0.083 C 
HETATM   17  C   UNK N   1      18.093   1.995   0.519  0.00  0.00     0.027 C 
HETATM   18  C   UNK N   1      17.484   0.711  -0.065  0.00  0.00     0.026 C 
HETATM   19  C   UNK N   1      15.975   0.708   0.145  0.00  0.00     0.074 C 
HETATM   20  C   UNK N   1      15.317   1.868  -0.612  0.00  0.00     0.026 C 
HETATM   21  C   UNK N   1      16.301   2.987  -1.004  0.00  0.00     0.027 C 
BRANCH  19  22
HETATM   22  N   UNK N   1      15.415  -0.543  -0.334  0.00  0.00    -0.426 N 
HETATM   23  H   UNK N   1      14.457  -0.642  -0.670  0.00  0.00     0.150 HD
HETATM   24  H   UNK N   1      16.013  -1.369  -0.334  0.00  0.00     0.150 HD
ENDBRANCH  19  22
ENDBRANCH  14  16
ENDBRANCH   3  14
BRANCH   1  25
HETATM   25  N   UNK N   1      14.727   7.764  -0.725  0.00  0.00    -0.371 N 
HETATM   26  H   UNK N   1      15.583   7.973  -1.163  0.00  0.00     0.161 HD
BRANCH  25  27
HETATM   27  C   UNK N   1      13.690   8.776  -0.787  0.00  0.00     0.075 C 
HETATM   28  C   UNK N   1      13.172   9.112   0.596  0.00  0.00     0.031 C 
HETATM   29  C   UNK N   1      12.580   8.547  -1.805  0.00  0.00     0.031 C 
ENDBRANCH  25  27
ENDBRANCH   1  25
TORSDOF 5
