REMARK  2 active torsions:
REMARK  status: ('A' for Active; 'I' for Inactive)
REMARK       I    between atoms: N_1  and  C_2 
REMARK    1  A    between atoms: C_13  and  N_14 
REMARK    2  A    between atoms: C_19  and  C_20 
ROOT
HETATM    1  N   UNK N   1      -3.294 -13.642   0.033  0.00  0.00    -0.234 N 
HETATM    2  C   UNK N   1      -2.095 -12.903   0.018  0.00  0.00     0.677 A 
HETATM    3  N   UNK N   1      -2.136 -11.542   0.044  0.00  0.00    -0.201 N 
ATOM      4  HN  UNK N   1      -3.037 -11.066   0.069  1.00  0.00     0.183 HD
HETATM    5  C   UNK N   1      -0.990 -10.812   0.038  0.00  0.00     0.121 A 
HETATM    6  C   UNK N   1       0.240 -11.463   0.005  0.00  0.00     0.025 A 
HETATM    7  C   UNK N   1       1.431 -10.761  -0.002  0.00  0.00     0.032 A 
HETATM    8  N   UNK N   1      -0.899 -13.550  -0.019  0.00  0.00    -0.176 N 
ATOM      9  HN  UNK N   1      -0.876 -14.570  -0.041  1.00  0.00     0.186 HD
HETATM   10  C   UNK N   1       0.266 -12.851  -0.029  0.00  0.00     0.134 A 
HETATM   11  N   UNK N   1       1.453 -13.499  -0.055  0.00  0.00    -0.327 N 
ATOM     12  HN  UNK N   1       1.443 -14.519  -0.077  1.00  0.00     0.169 HD
HETATM   13  C   UNK N   1       2.668 -12.866  -0.053  0.00  0.00     0.116 A 
HETATM   14  C   UNK N   1       2.681 -11.411  -0.043  0.00  0.00     0.019 A 
HETATM   15  H   UNK N   1      -4.160 -13.175   0.044  0.00  0.00     0.174 HD
HETATM   16  H   UNK N   1      -3.265 -14.626   0.033  0.00  0.00     0.174 HD
ENDROOT
BRANCH  14  17
HETATM   17  C   UNK N   1       3.862 -10.473  -0.109  0.00  0.00    -0.022 A 
HETATM   18  C   UNK N   1       3.680  -9.126   0.277  0.00  0.00     0.012 A 
HETATM   19  C   UNK N   1       4.724  -8.201   0.202  0.00  0.00     0.001 A 
HETATM   20  C   UNK N   1       5.969  -8.598  -0.280  0.00  0.00     0.000 A 
HETATM   21  C   UNK N   1       6.163  -9.915  -0.697  0.00  0.00     0.001 A 
HETATM   22  C   UNK N   1       5.113 -10.836  -0.621  0.00  0.00     0.012 A 
ENDBRANCH  14  17
BRANCH  13  23
HETATM   23  N   UNK N   1       3.823 -13.723  -0.003  0.00  0.00    -0.360 N 
HETATM   24  C   UNK N   1       5.165 -13.342   0.349  0.00  0.00     0.151 A 
HETATM   25  C   UNK N   1       5.877 -14.647   0.382  0.00  0.00    -0.010 A 
HETATM   26  C   UNK N   1       5.051 -15.650   0.131  0.00  0.00    -0.010 A 
HETATM   27  C   UNK N   1       3.672 -15.157  -0.115  0.00  0.00     0.151 A 
ENDBRANCH  13  23
TORSDOF 2
