REMARK  10 active torsions:
REMARK  status: ('A' for Active; 'I' for Inactive)
REMARK    1  A    between atoms: C_2  and  C_27 
REMARK    2  A    between atoms: C_24  and  C_2 
REMARK    3  A    between atoms: C_3  and  C_4 
REMARK    4  A    between atoms: C_27  and  C_3 
REMARK    5  A    between atoms: C_4  and  O_14 
REMARK    6  A    between atoms: C_28  and  C_5 
REMARK    7  A    between atoms: C_6  and  C_29 
REMARK    8  A    between atoms: N_7  and  C_18 
REMARK    9  A    between atoms: C_28  and  N_7 
REMARK   10  A    between atoms: C_29  and  N_7 
ROOT
HETATM    1  C   UNK N   1       3.286   0.844  -0.516  0.00  0.00     0.015 A 
HETATM    2  C   UNK N   1       2.311   1.824  -0.719  0.00  0.00     0.003 A 
HETATM    3  C   UNK N   1       0.956   1.490  -0.643  0.00  0.00     0.029 A 
HETATM    4  C   UNK N   1       0.560   0.186  -0.299  0.00  0.00     0.031 A 
HETATM    5  C   UNK N   1       1.561  -0.769  -0.039  0.00  0.00     0.044 A 
HETATM    6  C   UNK N   1       2.913  -0.459  -0.162  0.00  0.00     0.012 A 
ENDROOT
BRANCH   4   7
HETATM    7  N   UNK N   1      -0.812  -0.240  -0.375  0.00  0.00    -0.372 N 
BRANCH   7   8
HETATM    8  C   UNK N   1      -0.991  -1.685  -0.461  0.00  0.00     0.162 C 
BRANCH   8   9
HETATM    9  C   UNK N   1      -2.286  -2.329  -0.086  0.00  0.00    -0.040 A 
HETATM   10  C   UNK N   1      -2.319  -3.729  -0.116  0.00  0.00     0.009 A 
HETATM   11  C   UNK N   1      -3.487  -4.421   0.199  0.00  0.00     0.001 A 
HETATM   12  C   UNK N   1      -4.640  -3.712   0.540  0.00  0.00     0.000 A 
HETATM   13  C   UNK N   1      -4.617  -2.312   0.571  0.00  0.00     0.001 A 
HETATM   14  C   UNK N   1      -3.441  -1.618   0.261  0.00  0.00     0.009 A 
ENDBRANCH   8   9
ENDBRANCH   7   8
BRANCH   7  15
HETATM   15  C   UNK N   1      -1.817   0.617  -0.998  0.00  0.00     0.162 C 
BRANCH  15  16
HETATM   16  C   UNK N   1      -2.240   1.866  -0.254  0.00  0.00    -0.040 A 
HETATM   17  C   UNK N   1      -3.478   2.434  -0.581  0.00  0.00     0.009 A 
HETATM   18  C   UNK N   1      -3.884   3.642  -0.004  0.00  0.00     0.001 A 
HETATM   19  C   UNK N   1      -3.044   4.305   0.892  0.00  0.00     0.000 A 
HETATM   20  C   UNK N   1      -1.804   3.753   1.222  0.00  0.00     0.001 A 
HETATM   21  C   UNK N   1      -1.404   2.538   0.652  0.00  0.00     0.009 A 
ENDBRANCH  15  16
ENDBRANCH   7  15
ENDBRANCH   4   7
BRANCH   6  22
HETATM   22  C   UNK N   1       3.918  -1.536  -0.051  0.00  0.00     0.167 C 
HETATM   23  O   UNK N   1       3.622  -2.612   0.448  0.00  0.00    -0.292 OA
BRANCH  22  24
HETATM   24  C   UNK N   1       5.240  -1.376  -0.731  0.00  0.00     0.174 C 
BRANCH  24  25
HETATM   25  C   UNK N   1       6.363  -1.111   0.211  0.00  0.00     0.229 C 
HETATM   26  O   UNK N   1       6.736  -1.980   0.980  0.00  0.00    -0.285 OA
BRANCH  25  27
HETATM   27  C   UNK N   1       7.034   0.199   0.162  0.00  0.00     0.214 C 
HETATM   28  O   UNK N   1       7.992   0.425   0.888  0.00  0.00    -0.644 OA
BRANCH  27  29
HETATM   29  O   UNK N   1       6.597   1.154  -0.679  0.00  0.00    -0.771 OA
HETATM   30  H   UNK N   1       7.021   1.750  -1.265  0.00  0.00     0.167 HD
ENDBRANCH  27  29
ENDBRANCH  25  27
ENDBRANCH  24  25
ENDBRANCH  22  24
ENDBRANCH   6  22
TORSDOF 10
