REMARK  4 active torsions:
REMARK  status: ('A' for Active; 'I' for Inactive)
REMARK    1  A    between atoms: N_1  and  C_16 
REMARK    2  A    between atoms: C_4  and  C_5 
REMARK    3  A    between atoms: C_4  and  C_9 
REMARK    4  A    between atoms: C_5  and  N_6 
ROOT
HETATM    1  N   UNK N   1       4.339   3.663  -0.160  0.00  0.00    -0.366 N 
HETATM    2  C   UNK N   1       3.262   4.543  -0.601  0.00  0.00     0.125 C 
HETATM    3  C   UNK N   1       3.755   6.002  -0.698  0.00  0.00     0.036 C 
HETATM    4  C   UNK N   1       4.453   6.505   0.598  0.00  0.00     0.005 C 
HETATM    5  C   UNK N   1       5.104   5.324   1.358  0.00  0.00     0.036 C 
HETATM    6  C   UNK N   1       5.547   4.253   0.371  0.00  0.00     0.125 C 
ENDROOT
BRANCH   1   7
HETATM    7  C   UNK N   1       4.211   2.240  -0.151  0.00  0.00     0.118 A 
HETATM    8  N   UNK N   1       5.330   1.463  -0.013  0.00  0.00    -0.338 N 
HETATM    9  C   UNK N   1       5.262   0.095  -0.009  0.00  0.00     0.183 A 
ATOM     10  HN  UNK N   1       6.239   1.915   0.090  1.00  0.00     0.168 HD
HETATM   11  N   UNK N   1       4.057  -0.536  -0.122  0.00  0.00    -0.338 N 
HETATM   12  C   UNK N   1       2.942   0.222  -0.241  0.00  0.00     0.120 A 
ATOM     13  HN  UNK N   1       3.998  -1.554  -0.118  1.00  0.00     0.168 HD
HETATM   14  N   UNK N   1       1.689  -0.238  -0.333  0.00  0.00    -0.351 N 
HETATM   15  C   UNK N   1       2.982   1.580  -0.265  0.00  0.00     0.053 A 
HETATM   16  C   UNK N   1       0.902   0.863  -0.416  0.00  0.00     0.091 A 
HETATM   17  H   UNK N   1       1.399  -1.179  -0.339  0.00  0.00     0.166 HD
HETATM   18  C   UNK N   1       1.682   2.023  -0.377  0.00  0.00     0.036 A 
ENDBRANCH   1   7
BRANCH   4  19
HETATM   19  C   UNK N   1       3.400   7.097   1.543  0.00  0.00     0.125 C 
BRANCH  19  20
HETATM   20  N   UNK N   1       2.610   8.141   0.903  0.00  0.00    -0.429 N 
HETATM   21  H   UNK N   1       2.966   8.985   0.454  0.00  0.00     0.149 HD
HETATM   22  H   UNK N   1       1.598   8.015   0.903  0.00  0.00     0.149 HD
ENDBRANCH  19  20
ENDBRANCH   4  19
BRANCH   4  23
HETATM   23  C   UNK N   1       5.521   7.548   0.256  0.00  0.00    -0.048 A 
HETATM   24  C   UNK N   1       5.181   8.744  -0.402  0.00  0.00     0.010 A 
HETATM   25  C   UNK N   1       6.161   9.706  -0.678  0.00  0.00     0.024 A 
HETATM   26  C   UNK N   1       7.490   9.482  -0.305  0.00  0.00     0.034 A 
HETATM   27 Cl   UNK N   1       8.716  10.689  -0.629  0.00  0.00    -0.084 Cl
HETATM   28  C   UNK N   1       7.843   8.296   0.336  0.00  0.00     0.024 A 
HETATM   29  C   UNK N   1       6.868   7.339   0.614  0.00  0.00     0.010 A 
ENDBRANCH   4  23
TORSDOF 4
