REMARK  5 active torsions:
REMARK  status: ('A' for Active; 'I' for Inactive)
REMARK    1  A    between atoms: N_1  and  C_15 
REMARK    2  A    between atoms: C_4  and  N_5 
REMARK    3  A    between atoms: C_4  and  C_27 
REMARK    4  A    between atoms: C_8  and  C_18 
REMARK    5  A    between atoms: C_18  and  C_27 
ROOT
HETATM    1  N   UNK N   1       5.522   3.536   0.634  0.00  0.00    -0.366 N 
HETATM    2  C   UNK N   1       4.445   4.451   0.936  0.00  0.00     0.125 C 
HETATM    3  C   UNK N   1       4.347   5.482  -0.190  0.00  0.00     0.031 C 
HETATM    4  C   UNK N   1       6.799   5.064  -0.688  0.00  0.00     0.031 C 
HETATM    5  C   UNK N   1       6.839   4.098   0.492  0.00  0.00     0.125 C 
HETATM    6  C   UNK N   1       5.704   6.134  -0.546  0.00  0.00    -0.018 C 
ENDROOT
BRANCH   1   7
HETATM    7  C   UNK N   1       5.296   2.168   0.283  0.00  0.00     0.118 A 
HETATM    8  N   UNK N   1       6.359   1.357  -0.016  0.00  0.00    -0.338 N 
HETATM    9  C   UNK N   1       6.185   0.051  -0.394  0.00  0.00     0.183 A 
ATOM     10  HN  UNK N   1       7.305   1.735   0.046  1.00  0.00     0.168 HD
HETATM   11  N   UNK N   1       4.931  -0.477  -0.495  0.00  0.00    -0.338 N 
HETATM   12  C   UNK N   1       3.873   0.316  -0.207  0.00  0.00     0.120 A 
ATOM     13  HN  UNK N   1       4.794  -1.447  -0.781  1.00  0.00     0.168 HD
HETATM   14  N   UNK N   1       2.585  -0.043  -0.271  0.00  0.00    -0.351 N 
HETATM   15  C   UNK N   1       4.015   1.610   0.178  0.00  0.00     0.053 A 
HETATM   16  C   UNK N   1       1.882   1.060   0.086  0.00  0.00     0.091 A 
HETATM   17  H   UNK N   1       2.224  -0.924  -0.524  0.00  0.00     0.166 HD
HETATM   18  C   UNK N   1       2.748   2.117   0.373  0.00  0.00     0.036 A 
ENDBRANCH   1   7
BRANCH   6  19
HETATM   19  C   UNK N   1       5.598   6.773  -1.940  0.00  0.00     0.120 C 
BRANCH  19  20
HETATM   20  N   UNK N   1       4.429   7.632  -2.075  0.00  0.00    -0.429 N 
HETATM   21  H   UNK N   1       4.541   8.642  -2.170  0.00  0.00     0.149 HD
HETATM   22  H   UNK N   1       3.495   7.223  -2.075  0.00  0.00     0.149 HD
ENDBRANCH  19  20
ENDBRANCH   6  19
BRANCH   6  23
HETATM   23  C   UNK N   1       6.179   7.139   0.527  0.00  0.00     0.049 C 
BRANCH  23  24
HETATM   24  C   UNK N   1       5.531   8.487   0.468  0.00  0.00    -0.057 A 
HETATM   25  C   UNK N   1       4.215   8.683   0.907  0.00  0.00     0.009 A 
HETATM   26  C   UNK N   1       3.619   9.943   0.778  0.00  0.00     0.024 A 
HETATM   27  C   UNK N   1       4.333  11.002   0.205  0.00  0.00     0.034 A 
HETATM   28 Cl   UNK N   1       3.579  12.569   0.012  0.00  0.00    -0.084 Cl
HETATM   29  C   UNK N   1       5.647  10.807  -0.225  0.00  0.00     0.024 A 
HETATM   30  C   UNK N   1       6.245   9.553  -0.091  0.00  0.00     0.009 A 
ENDBRANCH  23  24
ENDBRANCH   6  23
TORSDOF 5
