REMARK  4 active torsions:
REMARK  status: ('A' for Active; 'I' for Inactive)
REMARK    1  A    between atoms: N_1  and  C_14 
REMARK    2  A    between atoms: C_3  and  C_4 
REMARK    3  A    between atoms: C_3  and  C_7 
REMARK    4  A    between atoms: C_4  and  N_5 
ROOT
HETATM    1  N   UNK N   1      -3.072  -5.312  -0.438  0.00  0.00    -0.366 N 
HETATM    2  C   UNK N   1      -4.089  -4.544  -1.144  0.00  0.00     0.127 C 
HETATM    3  C   UNK N   1      -3.037  -2.406  -0.171  0.00  0.00     0.130 C 
HETATM    4  C   UNK N   1      -1.887  -4.632   0.042  0.00  0.00     0.127 C 
HETATM    5  C   UNK N   1      -3.611  -3.108  -1.427  0.00  0.00     0.059 C 
HETATM    6  C   UNK N   1      -2.368  -3.398   0.798  0.00  0.00     0.059 C 
ENDROOT
BRANCH   1   7
HETATM    7  C   UNK N   1      -3.251  -6.696  -0.135  0.00  0.00     0.118 A 
HETATM    8  N   UNK N   1      -2.176  -7.454   0.248  0.00  0.00    -0.338 N 
HETATM    9  C   UNK N   1      -2.303  -8.788   0.534  0.00  0.00     0.183 A 
ATOM     10  HN  UNK N   1      -1.259  -7.014   0.322  1.00  0.00     0.168 HD
HETATM   11  N   UNK N   1      -3.524  -9.397   0.465  0.00  0.00    -0.338 N 
HETATM   12  C   UNK N   1      -4.595  -8.651   0.107  0.00  0.00     0.120 A 
ATOM     13  HN  UNK N   1      -3.625 -10.389   0.678  1.00  0.00     0.168 HD
HETATM   14  N   UNK N   1      -5.858  -9.086   0.020  0.00  0.00    -0.351 N 
HETATM   15  C   UNK N   1      -4.497  -7.333  -0.198  0.00  0.00     0.053 A 
HETATM   16  C   UNK N   1      -6.590  -8.007  -0.351  0.00  0.00     0.091 A 
HETATM   17  H   UNK N   1      -6.187  -9.999   0.189  0.00  0.00     0.166 HD
HETATM   18  C   UNK N   1      -5.766  -6.888  -0.497  0.00  0.00     0.036 A 
ENDBRANCH   1   7
BRANCH   3  19
HETATM   19  C   UNK N   1      -4.098  -1.575   0.573  0.00  0.00     0.077 C 
BRANCH  19  20
HETATM   20  C   UNK N   1      -5.507  -2.085   0.489  0.00  0.00    -0.056 A 
HETATM   21  C   UNK N   1      -5.890  -3.293   1.089  0.00  0.00     0.009 A 
HETATM   22  C   UNK N   1      -7.203  -3.757   0.945  0.00  0.00     0.024 A 
HETATM   23  C   UNK N   1      -8.132  -3.015   0.206  0.00  0.00     0.034 A 
HETATM   24 Cl   UNK N   1      -9.769  -3.601   0.008  0.00  0.00    -0.084 Cl
HETATM   25  C   UNK N   1      -7.753  -1.806  -0.380  0.00  0.00     0.024 A 
HETATM   26  C   UNK N   1      -6.443  -1.343  -0.238  0.00  0.00     0.009 A 
ENDBRANCH  19  20
ENDBRANCH   3  19
BRANCH   3  27
HETATM   27  N   UNK N   1      -2.014  -1.482  -0.624  0.00  0.00    -0.070 N 
HETATM   28  H   UNK N   1      -1.092  -1.780  -0.943  0.00  0.00     0.275 HD
HETATM   29  H   UNK N   1      -2.227  -0.484  -0.624  0.00  0.00     0.275 HD
HETATM   30  H   UNK N   1      -1.322  -0.799  -0.935  0.00  0.00     0.275 HD
ENDBRANCH   3  27
TORSDOF 4
