REMARK  9 active torsions:
REMARK  status: ('A' for Active; 'I' for Inactive)
REMARK    1  A    between atoms: C_1  and  C_2 
REMARK    2  A    between atoms: C_1  and  C_22 
REMARK    3  A    between atoms: C_2  and  O_4 
REMARK    4  A    between atoms: O_4  and  C_5 
REMARK    5  A    between atoms: C_6  and  C_5 
REMARK       I    between atoms: N_10  and  C_11 
REMARK    6  A    between atoms: C_11  and  C_12 
REMARK    7  A    between atoms: C_12  and  N_13 
REMARK       I    between atoms: N_13  and  C_14 
REMARK    8  A    between atoms: C_14  and  O_15 
REMARK    9  A    between atoms: O_15  and  C_16 
ROOT
HETATM    1  C   UNK N   1      -2.393   1.893   0.141  0.00  0.00     0.111 C 
HETATM    2  C   UNK N   1      -2.764   3.038   1.053  0.00  0.00     0.029 C 
HETATM    3  C   UNK N   1      -2.118   4.258   0.347  0.00  0.00     0.022 C 
HETATM    4  C   UNK N   1      -1.070   3.686  -0.621  0.00  0.00     0.126 C 
HETATM    5  N   UNK N   1      -1.073   2.301  -0.273  0.00  0.00    -0.344 N 
HETATM    6  C   UNK N   1       0.104   1.621  -0.099  0.00  0.00     0.238 C 
HETATM    7  O   UNK N   1       0.133   0.548   0.473  0.00  0.00    -0.272 OA
ENDROOT
BRANCH   1   8
HETATM    8  C   UNK N   1      -2.568   0.475   0.701  0.00  0.00     0.204 C 
BRANCH   8   9
HETATM    9  O   UNK N   1      -2.852  -0.365  -0.362  0.00  0.00    -0.319 OA
BRANCH   9  10
HETATM   10  C   UNK N   1      -2.066  -1.389  -0.774  0.00  0.00     0.263 C 
HETATM   11  O   UNK N   1      -2.274  -1.893  -1.866  0.00  0.00    -0.265 OA
BRANCH  10  12
HETATM   12  C   UNK N   1      -0.921  -1.883   0.059  0.00  0.00     0.149 C 
BRANCH  12  13
HETATM   13  C   UNK N   1      -0.913  -3.361   0.216  0.00  0.00    -0.047 A 
HETATM   14  C   UNK N   1       0.193  -4.083  -0.241  0.00  0.00     0.031 A 
HETATM   15  C   UNK N   1       0.230  -5.470  -0.098  0.00  0.00     0.034 A 
HETATM   16 Cl   UNK N   1       1.620  -6.366  -0.668  0.00  0.00    -0.084 Cl
HETATM   17  C   UNK N   1      -0.840  -6.139   0.504  0.00  0.00     0.024 A 
HETATM   18  C   UNK N   1      -1.947  -5.418   0.964  0.00  0.00     0.002 A 
HETATM   19  C   UNK N   1      -1.983  -4.027   0.823  0.00  0.00     0.007 A 
ENDBRANCH  12  13
ENDBRANCH  10  12
ENDBRANCH   9  10
ENDBRANCH   8   9
ENDBRANCH   1   8
BRANCH   6  20
HETATM   20  C   UNK N   1       1.394   2.206  -0.589  0.00  0.00     0.227 C 
BRANCH  20  21
HETATM   21  N   UNK N   1       2.229   2.618   0.508  0.00  0.00    -0.328 N 
HETATM   22  C   UNK N   1       3.506   2.192   0.636  0.00  0.00     0.361 C 
HETATM   23  O   UNK N   1       4.180   2.617   1.557  0.00  0.00    -0.238 OA
HETATM   24  H   UNK N   1       1.859   3.229   1.186  0.00  0.00     0.165 HD
BRANCH  22  25
HETATM   25  O   UNK N   1       4.015   1.287  -0.256  0.00  0.00    -0.294 OA
BRANCH  25  26
HETATM   26  C   UNK N   1       5.329   0.847  -0.409  0.00  0.00     0.061 C 
HETATM   27  C   UNK N   1       6.367   1.609   0.406  0.00  0.00     0.046 C 
HETATM   28  C   UNK N   1       5.707   0.980  -1.869  0.00  0.00     0.046 C 
HETATM   29  C   UNK N   1       5.403  -0.619  -0.032  0.00  0.00     0.046 C 
ENDBRANCH  25  26
ENDBRANCH  22  25
ENDBRANCH  20  21
ENDBRANCH   6  20
TORSDOF 9
