REMARK  5 active torsions:
REMARK  status: ('A' for Active; 'I' for Inactive)
REMARK    1  A    between atoms: C_1  and  O_13 
REMARK    2  A    between atoms: C_5  and  O_15 
REMARK    3  A    between atoms: C_8  and  O_13 
REMARK    4  A    between atoms: O_15  and  C_16 
REMARK    5  A    between atoms: C_16  and  C_17 
ROOT
HETATM    1  C   UNK N   1      -0.321  -4.533  -0.021  0.00  0.00     0.061 A 
HETATM    2  C   UNK N   1       0.702  -3.630  -0.004  0.00  0.00     0.079 A 
HETATM    3  C   UNK N   1       2.035  -4.141   0.006  0.00  0.00     0.060 A 
HETATM    4  C   UNK N   1       2.243  -5.555   0.001  0.00  0.00     0.049 A 
HETATM    5  C   UNK N   1       1.144  -6.414  -0.011  0.00  0.00     0.046 A 
HETATM    6  C   UNK N   1      -0.138  -5.893  -0.022  0.00  0.00     0.038 A 
HETATM    7 Cl   UNK N   1      -1.548  -6.918  -0.032  0.00  0.00    -0.084 Cl
HETATM    8  C   UNK N   1       3.546  -6.172   0.009  0.00  0.00     0.099 C 
HETATM    9  N   UNK N   1       4.561  -6.733   0.011  0.00  0.00    -0.191 NA
ENDROOT
BRANCH   2  10
HETATM   10  O   UNK N   1       0.422  -2.288   0.001  0.00  0.00    -0.309 OA
BRANCH  10  11
HETATM   11  C   UNK N   1      -0.751  -1.526  -0.011  0.00  0.00     0.100 A 
HETATM   12  C   UNK N   1      -2.147  -1.956   0.000  0.00  0.00     0.068 A 
HETATM   13  C   UNK N   1      -3.163  -0.992  -0.028  0.00  0.00     0.029 A 
HETATM   14 Cl   UNK N   1      -2.846  -3.566   0.058  0.00  0.00    -0.081 Cl
HETATM   15  C   UNK N   1      -2.902   0.369  -0.051  0.00  0.00     0.038 A 
HETATM   16  C   UNK N   1      -1.592   0.811  -0.038  0.00  0.00     0.071 A 
HETATM   17  C   UNK N   1      -0.542  -0.141  -0.026  0.00  0.00     0.075 A 
BRANCH  16  18
HETATM   18  O   UNK N   1      -1.326   2.145  -0.012  0.00  0.00    -0.345 OA
BRANCH  18  19
HETATM   19  C   UNK N   1      -0.023   2.517   0.192  0.00  0.00     0.235 C 
BRANCH  19  20
HETATM   20  C   UNK N   1       0.381   3.938   0.069  0.00  0.00     0.062 A 
HETATM   21  N   UNK N   1      -0.369   5.067   0.015  0.00  0.00    -0.301 N 
HETATM   22  N   UNK N   1       0.465   6.110  -0.051  0.00  0.00    -0.300 N 
ATOM     23  HN  UNK N   1      -1.388   5.112   0.024  1.00  0.00     0.186 HD
HETATM   24  C   UNK N   1       1.727   5.629  -0.039  0.00  0.00     0.060 A 
HETATM   25  H   UNK N   1       0.206   7.059  -0.100  0.00  0.00     0.187 HD
HETATM   26  C   UNK N   1       1.692   4.278   0.032  0.00  0.00     0.018 A 
HETATM   27  C   UNK N   1       2.936   6.320  -0.079  0.00  0.00     0.032 A 
HETATM   28  C   UNK N   1       2.835   3.487   0.061  0.00  0.00     0.016 A 
HETATM   29  C   UNK N   1       4.073   4.141   0.017  0.00  0.00     0.001 A 
HETATM   30  C   UNK N   1       4.126   5.554  -0.049  0.00  0.00     0.002 A 
ENDBRANCH  19  20
ENDBRANCH  18  19
ENDBRANCH  16  18
ENDBRANCH  10  11
ENDBRANCH   2  10
TORSDOF 5
