REMARK  8 active torsions:
REMARK  status: ('A' for Active; 'I' for Inactive)
REMARK    1  A    between atoms: C_6  and  C_7 
REMARK    2  A    between atoms: C_7  and  C_8 
REMARK    3  A    between atoms: C_8  and  C_9 
REMARK    4  A    between atoms: C_9  and  C_10 
REMARK    5  A    between atoms: C_10  and  C_11 
REMARK    6  A    between atoms: C_10  and  C_14 
REMARK    7  A    between atoms: C_11  and  O_13 
REMARK    8  A    between atoms: C_14  and  S_15 
ROOT
HETATM    1  C   UNK N   1       0.579  -1.364   0.456  0.00  0.00     0.016 C 
ENDROOT
BRANCH   1   2
HETATM    2  C   UNK N   1      -0.222  -0.219  -0.143  0.00  0.00     0.006 C 
BRANCH   2   3
HETATM    3  C   UNK N   1      -1.627  -0.168   0.436  0.00  0.00     0.038 C 
BRANCH   3   4
HETATM    4  C   UNK N   1      -2.284   1.163   0.216  0.00  0.00    -0.058 A 
HETATM    5  C   UNK N   1      -3.681   1.245   0.224  0.00  0.00     0.007 A 
HETATM    6  C   UNK N   1      -4.315   2.481   0.050  0.00  0.00     0.001 A 
HETATM    7  C   UNK N   1      -3.554   3.640  -0.125  0.00  0.00     0.000 A 
HETATM    8  C   UNK N   1      -2.159   3.567  -0.128  0.00  0.00     0.001 A 
HETATM    9  C   UNK N   1      -1.525   2.334   0.045  0.00  0.00     0.007 A 
ENDBRANCH   3   4
ENDBRANCH   2   3
ENDBRANCH   1   2
BRANCH   1  10
HETATM   10  C   UNK N   1       1.749  -1.747  -0.457  0.00  0.00     0.092 C 
BRANCH  10  11
HETATM   11  C   UNK N   1       2.522  -2.898   0.141  0.00  0.00     0.144 C 
HETATM   12  O   UNK N   1       3.724  -2.807   0.350  0.00  0.00    -0.650 OA
BRANCH  11  13
HETATM   13  O   UNK N   1       1.889  -4.052   0.425  0.00  0.00    -0.776 OA
HETATM   14  H   UNK N   1       0.973  -4.072   0.623  0.00  0.00     0.167 HD
ENDBRANCH  11  13
ENDBRANCH  10  11
BRANCH  10  15
HETATM   15  C   UNK N   1       2.642  -0.534  -0.778  0.00  0.00     0.086 C 
BRANCH  15  16
HETATM   16  S   UNK N   1       3.317   0.279   0.709  0.00  0.00    -0.181 SA
HETATM   17  H   UNK N   1       4.094   0.146   1.818  0.00  0.00     0.101 HD
ENDBRANCH  15  16
ENDBRANCH  10  15
ENDBRANCH   1  10
TORSDOF 8
