REMARK  5 active torsions:
REMARK  status: ('A' for Active; 'I' for Inactive)
REMARK    1  A    between atoms: C_1  and  S_31 
REMARK    2  A    between atoms: C_5  and  C_29 
REMARK    3  A    between atoms: C_18  and  C_7 
REMARK    4  A    between atoms: C_10  and  N_20 
REMARK    5  A    between atoms: N_21  and  C_22 
ROOT
HETATM    1  C   UNK N   1       0.631  -2.946  -0.141  0.00  0.00     0.031 C 
HETATM    2  C   UNK N   1       3.164  -3.159   0.373  0.00  0.00     0.100 C 
HETATM    3  C   UNK N   1       3.415  -2.576  -1.032  0.00  0.00     0.149 C 
HETATM    4  C   UNK N   1       1.733  -3.797   0.523  0.00  0.00     0.047 C 
HETATM    5  C   UNK N   1       1.045  -2.508  -1.536  0.00  0.00     0.125 C 
HETATM    6  N   UNK N   1       2.267  -1.767  -1.365  0.00  0.00    -0.365 N 
ENDROOT
BRANCH   6   7
HETATM    7  C   UNK N   1       2.182  -0.429  -0.857  0.00  0.00     0.106 A 
HETATM    8  N   UNK N   1       3.299   0.304  -0.595  0.00  0.00    -0.339 N 
HETATM    9  C   UNK N   1       3.198   1.567  -0.089  0.00  0.00     0.182 A 
ATOM     10  HN  UNK N   1       4.220  -0.094  -0.779  1.00  0.00     0.168 HD
HETATM   11  N   UNK N   1       1.974   2.108   0.176  0.00  0.00    -0.352 N 
HETATM   12  C   UNK N   1       0.839   1.383  -0.023  0.00  0.00     0.046 A 
ATOM     13  HN  UNK N   1       1.908   3.064   0.525  1.00  0.00     0.166 HD
HETATM   14  C   UNK N   1       0.933   0.107  -0.551  0.00  0.00     0.078 A 
BRANCH  12  15
HETATM   15  C   UNK N   1      -0.497   1.946   0.236  0.00  0.00    -0.008 A 
HETATM   16  C   UNK N   1      -1.607   1.099   0.406  0.00  0.00     0.014 A 
HETATM   17  C   UNK N   1      -2.888   1.634   0.559  0.00  0.00     0.002 A 
HETATM   18  C   UNK N   1      -3.076   3.014   0.475  0.00  0.00     0.023 A 
HETATM   19  C   UNK N   1      -1.977   3.860   0.289  0.00  0.00     0.059 A 
HETATM   20  C   UNK N   1      -0.690   3.328   0.188  0.00  0.00     0.037 A 
BRANCH  19  21
HETATM   21  S   UNK N   1      -2.215   5.599  -0.025  0.00  0.00     0.171 S 
HETATM   22  C   UNK N   1      -1.300   6.495  -1.310  0.00  0.00     0.167 C 
HETATM   23  O   UNK N   1      -3.708   5.802  -0.329  0.00  0.00    -0.223 OA
HETATM   24  O   UNK N   1      -2.115   6.368   1.299  0.00  0.00    -0.223 OA
ENDBRANCH  19  21
ENDBRANCH  12  15
ENDBRANCH   6   7
BRANCH   2  25
HETATM   25  N   UNK N   1       3.301  -2.076   1.335  0.00  0.00    -0.424 N 
HETATM   26  H   UNK N   1       4.006  -1.780   2.010  0.00  0.00     0.150 HD
HETATM   27  H   UNK N   1       2.489  -1.460   1.335  0.00  0.00     0.150 HD
ENDBRANCH   2  25
BRANCH   4  28
HETATM   28  C   UNK N   1       1.577  -5.249   0.117  0.00  0.00    -0.010 A 
HETATM   29  C   UNK N   1       2.655  -5.999  -0.377  0.00  0.00     0.056 A 
HETATM   30  C   UNK N   1       2.504  -7.367  -0.634  0.00  0.00     0.155 A 
HETATM   31  C   UNK N   1       1.275  -7.994  -0.401  0.00  0.00     0.157 A 
HETATM   32  F   UNK N   1       3.558  -8.089  -1.084  0.00  0.00    -0.203 F 
HETATM   33  C   UNK N   1       0.194  -7.255   0.073  0.00  0.00     0.088 A 
HETATM   34  F   UNK N   1       1.130  -9.323  -0.623  0.00  0.00    -0.203 F 
HETATM   35  C   UNK N   1       0.337  -5.893   0.335  0.00  0.00     0.126 A 
HETATM   36  F   UNK N   1      -0.724  -5.208   0.833  0.00  0.00    -0.205 F 
ENDBRANCH   4  28
TORSDOF 5
