REMARK  2 active torsions:
REMARK  status: ('A' for Active; 'I' for Inactive)
REMARK    1  A    between atoms: C_2  and  S_10 
REMARK    2  A    between atoms: S_10  and  N_13 
ROOT
HETATM    1  C   UNK N   1      -0.757   0.854   0.144  0.00  0.00     0.033 A 
HETATM    2  C   UNK N   1       0.495   0.234   0.272  0.00  0.00     0.079 A 
HETATM    3  C   UNK N   1       0.579  -1.171   0.364  0.00  0.00     0.026 A 
HETATM    4  C   UNK N   1      -0.590  -1.948   0.312  0.00  0.00     0.009 A 
HETATM    5  C   UNK N   1      -1.900   0.058   0.095  0.00  0.00    -0.050 A 
HETATM    6  C   UNK N   1      -1.819  -1.301   0.173  0.00  0.00    -0.052 A 
HETATM    7  C   UNK N   1      -3.138  -1.953   0.095  0.00  0.00     0.039 A 
HETATM    8  C   UNK N   1      -4.106  -0.760  -0.052  0.00  0.00     0.009 A 
HETATM    9  C   UNK N   1      -3.282   0.544  -0.045  0.00  0.00     0.039 A 
ENDROOT
BRANCH   2  10
HETATM   10  S   UNK N   1       1.974   1.243   0.325  0.00  0.00     0.256 S 
HETATM   11  O   UNK N   1       3.397   0.682   0.185  0.00  0.00    -0.201 OA
HETATM   12  O   UNK N   1       1.980   2.696  -0.170  0.00  0.00    -0.201 OA
BRANCH  10  13
HETATM   13  N   UNK N   1       1.875   0.864  -1.397  0.00  0.00    -0.324 N 
HETATM   14  H   UNK N   1       1.657   0.804  -2.392  0.00  0.00     0.169 HD
HETATM   15  H   UNK N   1       2.601   0.147  -1.397  0.00  0.00     0.169 HD
ENDBRANCH  10  13
ENDBRANCH   2  10
TORSDOF 2
