REMARK  3 active torsions:
REMARK  status: ('A' for Active; 'I' for Inactive)
REMARK    1  A    between atoms: C_3  and  C_4 
REMARK    2  A    between atoms: N_11  and  C_12 
REMARK    3  A    between atoms: C_17  and  C_18 
ROOT
HETATM    1  C   UNK N   1       3.641   1.620   0.237  0.00  0.00     0.073 C 
HETATM    2  O   UNK N   1       3.550   0.277   0.074  0.00  0.00    -0.363 OA
HETATM    3  C   UNK N   1       2.549   2.434   0.068  0.00  0.00     0.141 C 
HETATM    4  C   UNK N   1       2.595   3.871   0.202  0.00  0.00     0.107 C 
HETATM    5  N   UNK N   1       2.559   5.023   0.295  0.00  0.00    -0.191 NA
HETATM    6  C   UNK N   1       1.238   1.860  -0.198  0.00  0.00     0.269 C 
HETATM    7  O   UNK N   1       0.248   2.578  -0.298  0.00  0.00    -0.266 OA
HETATM    8  N   UNK N   1       1.141   0.522  -0.185  0.00  0.00    -0.322 N 
HETATM    9  H   UNK N   1       2.715  -0.133  -0.038  0.00  0.00     0.217 HD
HETATM   10  H   UNK N   1       1.987   0.019  -0.217  0.00  0.00     0.169 HD
ENDROOT
BRANCH   1  11
HETATM   11  C   UNK N   1       4.972   2.140   0.643  0.00  0.00     0.044 A 
HETATM   12  C   UNK N   1       5.511   3.154  -0.335  0.00  0.00     0.012 A 
HETATM   13  C   UNK N   1       5.963   1.716  -0.424  0.00  0.00     0.012 A 
ENDBRANCH   1  11
BRANCH   8  14
HETATM   14  C   UNK N   1      -0.018  -0.222  -0.131  0.00  0.00     0.035 A 
HETATM   15  C   UNK N   1       0.100  -1.607  -0.112  0.00  0.00     0.030 A 
HETATM   16  C   UNK N   1      -1.042  -2.379  -0.026  0.00  0.00     0.014 A 
HETATM   17  C   UNK N   1      -2.288  -1.743   0.052  0.00  0.00    -0.026 A 
HETATM   18  C   UNK N   1      -2.377  -0.352   0.073  0.00  0.00     0.014 A 
HETATM   19  C   UNK N   1      -1.248   0.404  -0.010  0.00  0.00     0.030 A 
BRANCH  17  20
HETATM   20  C   UNK N   1      -3.518  -2.495   0.053  0.00  0.00    -0.026 A 
HETATM   21  C   UNK N   1      -3.508  -3.891   0.022  0.00  0.00     0.012 A 
HETATM   22  C   UNK N   1      -4.715  -4.582  -0.012  0.00  0.00     0.001 A 
HETATM   23  C   UNK N   1      -5.924  -3.878  -0.024  0.00  0.00     0.000 A 
HETATM   24  C   UNK N   1      -5.931  -2.484  -0.000  0.00  0.00     0.001 A 
HETATM   25  C   UNK N   1      -4.732  -1.798   0.038  0.00  0.00     0.012 A 
ENDBRANCH  17  20
ENDBRANCH   8  14
TORSDOF 3
