REMARK  7 active torsions:
REMARK  status: ('A' for Active; 'I' for Inactive)
REMARK    1  A    between atoms: C_2  and  O_3 
REMARK    2  A    between atoms: C_4  and  O_5 
REMARK    3  A    between atoms: C_9  and  C_10 
REMARK       I    between atoms: C_10  and  N_12 
REMARK    4  A    between atoms: N_12  and  O_13 
REMARK    5  A    between atoms: N_17  and  S_18 
REMARK    6  A    between atoms: S_18  and  C_21 
REMARK    7  A    between atoms: C_24  and  O_25 
ROOT
HETATM    1  C   UNK N   1      -3.716  -3.111  -0.675  0.00  0.00     0.047 A 
HETATM    2  C   UNK N   1      -4.854  -2.353  -0.409  0.00  0.00     0.099 A 
HETATM    3  C   UNK N   1      -4.731  -1.061   0.119  0.00  0.00     0.101 A 
HETATM    4  C   UNK N   1      -3.448  -0.541   0.381  0.00  0.00     0.049 A 
HETATM    5  C   UNK N   1      -2.291  -1.288   0.096  0.00  0.00    -0.021 A 
HETATM    6  C   UNK N   1      -0.891  -0.699   0.352  0.00  0.00     0.202 C 
HETATM    7  C   UNK N   1      -2.444  -2.592  -0.431  0.00  0.00    -0.046 A 
HETATM    8  C   UNK N   1      -1.265  -3.463  -0.700  0.00  0.00     0.055 C 
HETATM    9  C   UNK N   1      -0.078  -2.969   0.094  0.00  0.00     0.113 C 
HETATM   10  N   UNK N   1       0.167  -1.567  -0.230  0.00  0.00    -0.188 NA
ENDROOT
BRANCH  10  11
HETATM   11  S   UNK N   1       1.819  -1.182   0.338  0.00  0.00     0.244 S 
HETATM   12  O   UNK N   1       2.554  -2.501   0.639  0.00  0.00    -0.206 OA
HETATM   13  O   UNK N   1       2.196  -1.367  -1.142  0.00  0.00    -0.206 OA
BRANCH  11  14
HETATM   14  C   UNK N   1       2.938   0.222   0.194  0.00  0.00     0.074 A 
HETATM   15  C   UNK N   1       2.464   1.538   0.174  0.00  0.00     0.027 A 
HETATM   16  C   UNK N   1       3.363   2.605   0.047  0.00  0.00     0.038 A 
HETATM   17  C   UNK N   1       4.740   2.366  -0.054  0.00  0.00     0.068 A 
HETATM   18  C   UNK N   1       5.213   1.045  -0.013  0.00  0.00     0.038 A 
HETATM   19  C   UNK N   1       4.318  -0.016   0.114  0.00  0.00     0.027 A 
BRANCH  17  20
HETATM   20  O   UNK N   1       5.586   3.415  -0.193  0.00  0.00    -0.356 OA
HETATM   21  C   UNK N   1       6.950   3.269  -0.325  0.00  0.00     0.210 C 
ENDBRANCH  17  20
ENDBRANCH  11  14
ENDBRANCH  10  11
BRANCH   6  22
HETATM   22  C   UNK N   1      -0.811   0.693  -0.255  0.00  0.00     0.264 C 
HETATM   23  O   UNK N   1      -0.050   0.925  -1.181  0.00  0.00    -0.269 OA
HETATM   24  N   UNK N   1      -1.593   1.683   0.240  0.00  0.00    -0.236 N 
HETATM   25  H   UNK N   1      -2.205   1.491   0.986  0.00  0.00     0.197 HD
BRANCH  24  26
HETATM   26  O   UNK N   1      -1.544   2.921  -0.272  0.00  0.00    -0.287 OA
HETATM   27  H   UNK N   1      -0.750   3.338  -0.643  0.00  0.00     0.244 HD
ENDBRANCH  24  26
ENDBRANCH   6  22
BRANCH   3  28
HETATM   28  O   UNK N   1      -5.850  -0.335   0.355  0.00  0.00    -0.353 OA
HETATM   29  C   UNK N   1      -5.827   0.965   0.805  0.00  0.00     0.210 C 
ENDBRANCH   3  28
BRANCH   2  30
HETATM   30  O   UNK N   1      -6.068  -2.869  -0.664  0.00  0.00    -0.358 OA
HETATM   31  H   UNK N   1      -6.803  -2.316  -0.841  0.00  0.00     0.217 HD
ENDBRANCH   2  30
TORSDOF 7
