REMARK  5 active torsions:
REMARK  status: ('A' for Active; 'I' for Inactive)
REMARK       I    between atoms: C_1  and  N_25 
REMARK    1  A    between atoms: C_1  and  C_3 
REMARK    2  A    between atoms: C_4  and  C_16 
REMARK    3  A    between atoms: C_8  and  N_23 
REMARK    4  A    between atoms: C_11  and  N_18 
REMARK    5  A    between atoms: C_12  and  N_25 
REMARK       I    between atoms: C_16  and  N_23 
ROOT
HETATM    1  C   UNK N   1       3.881  -2.539  -1.534  0.00  0.00     0.252 C 
HETATM    2  N   UNK N   1       4.324  -3.822  -1.646  0.00  0.00    -0.350 N 
HETATM    3  O   UNK N   1       4.272  -1.753  -2.383  0.00  0.00    -0.268 OA
HETATM    4  H   UNK N   1       4.761  -3.973  -2.515  0.00  0.00     0.163 HD
ENDROOT
BRANCH   2   5
HETATM    5  C   UNK N   1       4.331  -5.025  -0.837  0.00  0.00     0.107 C 
HETATM    6  C   UNK N   1       5.777  -5.280  -0.456  0.00  0.00     0.027 C 
HETATM    7  C   UNK N   1       5.741  -6.199   0.748  0.00  0.00     0.004 C 
HETATM    8  C   UNK N   1       4.311  -6.159   1.264  0.00  0.00     0.027 C 
HETATM    9  C   UNK N   1       3.612  -5.036   0.499  0.00  0.00     0.107 C 
BRANCH   9  10
HETATM   10  N   UNK N   1       2.177  -5.256   0.360  0.00  0.00    -0.350 N 
HETATM   11  C   UNK N   1       1.566  -6.475   0.247  0.00  0.00     0.259 C 
HETATM   12  O   UNK N   1       2.216  -7.511   0.254  0.00  0.00    -0.267 OA
HETATM   13  H   UNK N   1       1.598  -4.460   0.346  0.00  0.00     0.163 HD
BRANCH  11  14
HETATM   14  C   UNK N   1       0.101  -6.550   0.154  0.00  0.00     0.074 A 
HETATM   15  C   UNK N   1      -0.781  -5.467   0.085  0.00  0.00     0.027 A 
HETATM   16  C   UNK N   1      -2.149  -5.867   0.032  0.00  0.00     0.033 A 
HETATM   17  C   UNK N   1      -2.314  -7.255   0.065  0.00  0.00     0.075 A 
HETATM   18  S   UNK N   1      -0.810  -7.936   0.150  0.00  0.00    -0.072 SA
HETATM   19 Cl   UNK N   1      -3.835  -8.120   0.044  0.00  0.00    -0.076 Cl
ENDBRANCH  11  14
ENDBRANCH   9  10
ENDBRANCH   2   5
BRANCH   1  20
HETATM   20  C   UNK N   1       2.994  -1.959  -0.491  0.00  0.00     0.032 A 
HETATM   21  C   UNK N   1       1.636  -2.316  -0.444  0.00  0.00     0.019 A 
HETATM   22  C   UNK N   1       0.678  -1.382   0.013  0.00  0.00     0.031 A 
HETATM   23  C   UNK N   1       1.066  -0.077   0.406  0.00  0.00     0.042 A 
HETATM   24  C   UNK N   1       2.433   0.215   0.441  0.00  0.00     0.031 A 
HETATM   25  C   UNK N   1       3.368  -0.694  -0.025  0.00  0.00     0.019 A 
BRANCH  23  26
HETATM   26  N   UNK N   1       0.082   0.993   0.561  0.00  0.00    -0.290 N 
HETATM   27  C   UNK N   1      -1.243   0.688   0.386  0.00  0.00     0.100 A 
HETATM   28  C   UNK N   1      -2.226   1.681   0.400  0.00  0.00     0.018 A 
HETATM   29  C   UNK N   1      -1.863   3.009   0.586  0.00  0.00     0.007 A 
HETATM   30  C   UNK N   1      -0.527   3.335   0.772  0.00  0.00     0.075 A 
HETATM   31  C   UNK N   1       0.443   2.331   0.760  0.00  0.00     0.252 A 
HETATM   32  O   UNK N   1       1.610   2.659   0.900  0.00  0.00    -0.268 OA
ENDBRANCH  23  26
ENDBRANCH   1  20
TORSDOF 5
