REMARK  5 active torsions:
REMARK  status: ('A' for Active; 'I' for Inactive)
REMARK    1  A    between atoms: C_1  and  N_15 
REMARK    2  A    between atoms: C_2  and  C_13 
REMARK    3  A    between atoms: C_7  and  N_17 
REMARK    4  A    between atoms: C_10  and  O_21 
REMARK    5  A    between atoms: C_13  and  O_20 
ROOT
HETATM    1  N   UNK N   1       0.274  -0.739   0.000  0.00  0.00    -0.299 N 
ATOM      2  HN  UNK N   1       1.147  -0.210   0.000  1.00  0.00     0.187 HD
HETATM    3  N   UNK N   1      -0.800  -0.107   0.000  0.00  0.00    -0.300 N 
ATOM      4  HN  UNK N   1      -1.690  -0.605   0.000  1.00  0.00     0.187 HD
ENDROOT
BRANCH   1   5
HETATM    5  C   UNK N   1       0.346  -2.153   0.000  0.00  0.00     0.065 A 
HETATM    6  C   UNK N   1       1.611  -2.787   0.000  0.00  0.00     0.065 A 
HETATM    7  C   UNK N   1       1.672  -4.190  -0.000  0.00  0.00     0.021 A 
HETATM    8  C   UNK N   1       0.504  -4.954  -0.000  0.00  0.00     0.001 A 
HETATM    9  C   UNK N   1      -0.742  -4.326   0.000  0.00  0.00     0.002 A 
HETATM   10  C   UNK N   1      -0.824  -2.932   0.000  0.00  0.00     0.032 A 
BRANCH   6  11
HETATM   11  C   UNK N   1       2.886  -2.013  -0.000  0.00  0.00     0.178 C 
HETATM   12  O   UNK N   1       3.956  -2.601  -0.000  0.00  0.00    -0.646 OA
BRANCH  11  13
HETATM   13  O   UNK N   1       2.884  -0.665   0.000  0.00  0.00    -0.773 OA
HETATM   14  H   UNK N   1       3.694  -0.195   0.000  0.00  0.00     0.167 HD
ENDBRANCH  11  13
ENDBRANCH   6  11
ENDBRANCH   1   5
BRANCH   3  15
HETATM   15  C   UNK N   1      -0.774   1.311   0.000  0.00  0.00     0.048 A 
HETATM   16  C   UNK N   1      -1.968   2.039  -0.000  0.00  0.00     0.040 A 
HETATM   17  C   UNK N   1      -1.937   3.440  -0.000  0.00  0.00    -0.027 A 
HETATM   18  C   UNK N   1      -0.704   4.115  -0.000  0.00  0.00     0.071 A 
HETATM   19  C   UNK N   1      -3.218   4.201  -0.000  0.00  0.00     0.051 C 
HETATM   20  C   UNK N   1       0.486   3.389   0.000  0.00  0.00     0.039 A 
HETATM   21  C   UNK N   1       0.453   1.996   0.000  0.00  0.00     0.034 A 
BRANCH  18  22
HETATM   22  O   UNK N   1      -0.657   5.459  -0.000  0.00  0.00    -0.360 OA
HETATM   23  H   UNK N   1       0.170   5.898  -0.000  0.00  0.00     0.217 HD
ENDBRANCH  18  22
ENDBRANCH   3  15
TORSDOF 5
