REMARK  4 active torsions:
REMARK  status: ('A' for Active; 'I' for Inactive)
REMARK    1  A    between atoms: C_3  and  O_20 
REMARK    2  A    between atoms: C_4  and  C_13 
REMARK       I    between atoms: N_5  and  C_6 
REMARK    3  A    between atoms: O_20  and  C_21 
REMARK    4  A    between atoms: C_21  and  C_22 
ROOT
HETATM    1  C   UNK N   1       2.893  -2.160  -0.214  0.00  0.00     0.055 A 
HETATM    2  C   UNK N   1       2.863  -3.567  -0.192  0.00  0.00     0.092 A 
HETATM    3  C   UNK N   1       1.695  -1.426  -0.146  0.00  0.00     0.085 A 
HETATM    4  C   UNK N   1      -0.878  -1.809  -0.024  0.00  0.00     0.023 A 
HETATM    5  C   UNK N   1      -1.567  -3.023   0.048  0.00  0.00     0.104 A 
HETATM    6  N   UNK N   1      -0.702  -4.058   0.028  0.00  0.00    -0.351 N 
HETATM    7  C   UNK N   1       0.523  -3.519  -0.053  0.00  0.00     0.119 A 
HETATM    8  N   UNK N   1       1.674  -4.228  -0.105  0.00  0.00    -0.351 N 
ATOM      9  HN  UNK N   1       1.653  -5.247  -0.079  1.00  0.00     0.166 HD
HETATM   10  C   UNK N   1       0.480  -2.144  -0.078  0.00  0.00     0.055 A 
HETATM   11  H   UNK N   1      -0.925  -5.016   0.065  0.00  0.00     0.166 HD
ENDROOT
BRANCH   4  12
HETATM   12  C   UNK N   1      -1.597  -0.505  -0.052  0.00  0.00     0.063 A 
HETATM   13  C   UNK N   1      -2.988  -0.497   0.108  0.00  0.00     0.048 A 
HETATM   14  C   UNK N   1      -3.669   0.715   0.079  0.00  0.00     0.108 A 
HETATM   15  N   UNK N   1      -2.983   1.869  -0.109  0.00  0.00    -0.202 N 
HETATM   16  C   UNK N   1      -1.635   1.856  -0.274  0.00  0.00     0.676 A 
ATOM     17  HN  UNK N   1      -3.484   2.757  -0.125  1.00  0.00     0.183 HD
HETATM   18  N   UNK N   1      -0.946   3.068  -0.473  0.00  0.00    -0.234 N 
HETATM   19  N   UNK N   1      -0.951   0.676  -0.249  0.00  0.00    -0.191 N 
HETATM   20  H   UNK N   1       0.029   3.075  -0.612  0.00  0.00     0.174 HD
HETATM   21  H   UNK N   1      -1.444   3.918  -0.473  0.00  0.00     0.174 HD
ATOM     22  HN  UNK N   1       0.060   0.679  -0.380  1.00  0.00     0.184 HD
ENDBRANCH   4  12
BRANCH   3  23
HETATM   23  O   UNK N   1       1.755  -0.082  -0.129  0.00  0.00    -0.350 OA
BRANCH  23  24
HETATM   24  C   UNK N   1       1.561   0.607   1.045  0.00  0.00     0.175 C 
BRANCH  24  25
HETATM   25  C   UNK N   1       1.706   2.097   0.803  0.00  0.00     0.022 C 
HETATM   26  C   UNK N   1       3.165   2.462   0.624  0.00  0.00     0.007 C 
ENDBRANCH  24  25
ENDBRANCH  23  24
ENDBRANCH   3  23
TORSDOF 4
