REMARK  4 active torsions:
REMARK  status: ('A' for Active; 'I' for Inactive)
REMARK    1  A    between atoms: C_7  and  C_6 
REMARK    2  A    between atoms: C_7  and  C_17 
REMARK    3  A    between atoms: N_8  and  C_17 
REMARK       I    between atoms: C_9  and  N_8 
REMARK    4  A    between atoms: O_14  and  C_13 
ROOT
HETATM    1  C   UNK N   1      -0.763  -1.828  -0.000  0.00  0.00     0.082 A 
HETATM    2  C   UNK N   1      -2.531  -0.606   0.000  0.00  0.00     0.044 A 
HETATM    3  C   UNK N   1      -3.848  -0.169   0.000  0.00  0.00     0.033 A 
HETATM    4  C   UNK N   1      -4.077   1.217   0.000  0.00  0.00     0.039 A 
HETATM    5  C   UNK N   1      -0.327  -0.510  -0.000  0.00  0.00    -0.011 A 
HETATM    6  I   UNK N   1       0.485  -3.530  -0.000  0.00  0.00    -0.024 I 
HETATM    7  N   UNK N   1      -2.113  -1.886   0.000  0.00  0.00    -0.350 N 
HETATM    8  C   UNK N   1      -2.989   2.132   0.000  0.00  0.00     0.069 A 
HETATM    9  C   UNK N   1      -1.665   1.646  -0.000  0.00  0.00     0.051 A 
HETATM   10  C   UNK N   1      -1.470   0.264  -0.000  0.00  0.00     0.002 A 
HETATM   11  H   UNK N   1      -2.674  -2.695   0.000  0.00  0.00     0.166 HD
ENDROOT
BRANCH   5  12
HETATM   12  C   UNK N   1       1.120  -0.134  -0.000  0.00  0.00     0.062 C 
BRANCH  12  13
HETATM   13  C   UNK N   1       1.462   1.347  -0.000  0.00  0.00     0.127 C 
BRANCH  13  14
HETATM   14  N   UNK N   1       2.897   1.620  -0.000  0.00  0.00    -0.361 N 
HETATM   15  C   UNK N   1       3.919   0.713   0.000  0.00  0.00     0.213 C 
HETATM   16  O   UNK N   1       3.712  -0.490   0.000  0.00  0.00    -0.274 OA
HETATM   17  C   UNK N   1       5.325   1.199   0.000  0.00  0.00     0.117 C 
HETATM   18  H   UNK N   1       3.159   2.569  -0.000  0.00  0.00     0.162 HD
ENDBRANCH  13  14
ENDBRANCH  12  13
ENDBRANCH   5  12
BRANCH   8  19
HETATM   19  O   UNK N   1      -3.199   3.470  -0.000  0.00  0.00    -0.356 OA
HETATM   20  C   UNK N   1      -4.455   4.034   0.000  0.00  0.00     0.210 C 
ENDBRANCH   8  19
TORSDOF 4
