REMARK  4 active torsions:
REMARK  status: ('A' for Active; 'I' for Inactive)
REMARK    1  A    between atoms: C_1  and  C_2 
REMARK    2  A    between atoms: C_1  and  O_13 
REMARK    3  A    between atoms: C_2  and  C_3 
REMARK    4  A    between atoms: C_5  and  N_6 
ROOT
HETATM    1  C   UNK N   1       0.200   0.900  -0.000  0.00  0.00    -0.046 A 
HETATM    2  C   UNK N   1       0.242  -0.495  -0.000  0.00  0.00     0.043 A 
HETATM    3  C   UNK N   1      -0.925  -1.260  -0.000  0.00  0.00     0.103 A 
HETATM    4  C   UNK N   1      -2.168  -0.610  -0.000  0.00  0.00     0.036 A 
HETATM    5  C   UNK N   1      -2.226   0.789  -0.000  0.00  0.00     0.003 A 
HETATM    6  C   UNK N   1      -1.044   1.542  -0.000  0.00  0.00     0.008 A 
ENDROOT
BRANCH   1   7
HETATM    7  C   UNK N   1       1.461   1.728   0.000  0.00  0.00     0.148 C 
BRANCH   7   8
HETATM    8  C   UNK N   1       2.796   1.008   0.000  0.00  0.00     0.143 C 
HETATM    9  O   UNK N   1       3.821   1.668   0.000  0.00  0.00    -0.650 OA
BRANCH   8  10
HETATM   10  O   UNK N   1       2.886  -0.337  -0.000  0.00  0.00    -0.776 OA
HETATM   11  H   UNK N   1       2.108  -0.859  -0.000  0.00  0.00     0.167 HD
ENDBRANCH   8  10
ENDBRANCH   7   8
ENDBRANCH   1   7
BRANCH   3  12
HETATM   12  N   UNK N   1      -0.836  -2.678   0.000  0.00  0.00    -0.116 N 
HETATM   13  O   UNK N   1      -1.929  -3.412   0.000  0.00  0.00    -0.532 OA
HETATM   14  O   UNK N   1       0.231  -3.214   0.000  0.00  0.00    -0.532 OA
ENDBRANCH   3  12
TORSDOF 4
