REMARK  0 active torsions:
REMARK  status: ('A' for Active; 'I' for Inactive)
REMARK       I    between atoms: N_1  and  C_2 
ROOT
HETATM    1  N   UNK N   1      -3.273  -1.605  -0.000  0.00  0.00    -0.234 N 
HETATM    2  C   UNK N   1      -2.077  -0.862  -0.000  0.00  0.00     0.676 A 
HETATM    3  N   UNK N   1      -2.119   0.491   0.000  0.00  0.00    -0.196 N 
ATOM      4  HN  UNK N   1      -3.022   0.965   0.000  1.00  0.00     0.184 HD
HETATM    5  C   UNK N   1      -0.978   1.224   0.000  0.00  0.00     0.031 A 
HETATM    6  C   UNK N   1      -1.087   2.714   0.000  0.00  0.00     0.069 C 
HETATM    7  C   UNK N   1       0.277   0.582   0.000  0.00  0.00    -0.003 A 
HETATM    8  N   UNK N   1      -0.884  -1.502  -0.000  0.00  0.00    -0.195 N 
ATOM      9  HN  UNK N   1      -0.870  -2.522  -0.000  1.00  0.00     0.184 HD
HETATM   10  C   UNK N   1       0.295  -0.826  -0.000  0.00  0.00     0.036 A 
HETATM   11  C   UNK N   1       1.530  -1.661  -0.000  0.00  0.00     0.068 A 
HETATM   12  C   UNK N   1       2.920  -1.056   0.000  0.00  0.00     0.080 A 
HETATM   13  S   UNK N   1       3.177   0.743  -0.000  0.00  0.00    -0.164 SA
HETATM   14  C   UNK N   1       1.501   1.447   0.000  0.00  0.00     0.116 A 
HETATM   15  H   UNK N   1      -4.141  -1.140  -0.000  0.00  0.00     0.174 HD
HETATM   16  H   UNK N   1      -3.241  -2.589  -0.000  0.00  0.00     0.174 HD
ENDROOT
TORSDOF 0
