REMARK  10 active torsions:
REMARK  status: ('A' for Active; 'I' for Inactive)
REMARK    1  A    between atoms: C_1  and  O_27 
REMARK    2  A    between atoms: C_2  and  C_7 
REMARK    3  A    between atoms: C_7  and  S_11 
REMARK    4  A    between atoms: C_8  and  C_9 
REMARK    5  A    between atoms: C_8  and  S_11 
REMARK    6  A    between atoms: C_9  and  C_10 
REMARK    7  A    between atoms: C_9  and  O_12 
REMARK       I    between atoms: C_10  and  N_15 
REMARK    8  A    between atoms: O_12  and  C_19 
REMARK    9  A    between atoms: N_15  and  C_17 
REMARK       I    between atoms: C_19  and  N_20 
REMARK   10  A    between atoms: O_27  and  C_28 
ROOT
HETATM    1  C   UNK N   1       3.110   1.278  -0.693  0.00  0.00     0.247 C 
HETATM    2  C   UNK N   1       4.468   1.179  -0.150  0.00  0.00     0.078 C 
HETATM    3  N   UNK N   1       5.533   1.106   0.296  0.00  0.00    -0.196 NA
ENDROOT
BRANCH   1   4
HETATM    4  N   UNK N   1       2.172   1.630   0.342  0.00  0.00    -0.347 N 
HETATM    5  C   UNK N   1       1.098   0.862   0.663  0.00  0.00     0.249 C 
HETATM    6  O   UNK N   1       0.300   1.290   1.484  0.00  0.00    -0.271 OA
HETATM    7  H   UNK N   1       2.317   2.466   0.841  0.00  0.00     0.163 HD
BRANCH   5   8
HETATM    8  C   UNK N   1       0.856  -0.497   0.018  0.00  0.00     0.239 C 
BRANCH   8   9
HETATM    9  C   UNK N   1      -0.532  -1.043   0.357  0.00  0.00     0.182 C 
BRANCH   9  10
HETATM   10  S   UNK N   1      -1.947  -0.126  -0.311  0.00  0.00     0.151 S 
HETATM   11  O   UNK N   1      -1.660  -0.766  -1.668  0.00  0.00    -0.227 OA
HETATM   12  O   UNK N   1      -3.196  -1.002  -0.150  0.00  0.00    -0.227 OA
BRANCH  10  13
HETATM   13  C   UNK N   1      -2.368   1.369  -1.231  0.00  0.00     0.181 C 
BRANCH  13  14
HETATM   14  C   UNK N   1      -3.625   1.991  -0.728  0.00  0.00    -0.011 A 
HETATM   15  C   UNK N   1      -3.571   3.275  -0.186  0.00  0.00     0.082 A 
HETATM   16  C   UNK N   1      -4.756   3.893   0.247  0.00  0.00     0.037 A 
HETATM   17  C   UNK N   1      -5.979   3.220   0.141  0.00  0.00     0.003 A 
HETATM   18  C   UNK N   1      -6.027   1.937  -0.411  0.00  0.00     0.001 A 
HETATM   19  C   UNK N   1      -4.852   1.326  -0.854  0.00  0.00     0.011 A 
BRANCH  15  20
HETATM   20  O   UNK N   1      -2.366   3.885  -0.095  0.00  0.00    -0.290 OA
BRANCH  20  21
HETATM   21  C   UNK N   1      -2.132   5.211  -0.376  0.00  0.00     0.505 C 
HETATM   22  F   UNK N   1      -2.939   6.046   0.369  0.00  0.00    -0.184 F 
HETATM   23  F   UNK N   1      -0.804   5.490  -0.117  0.00  0.00    -0.184 F 
ENDBRANCH  20  21
ENDBRANCH  15  20
ENDBRANCH  13  14
ENDBRANCH  10  13
ENDBRANCH   9  10
ENDBRANCH   8   9
BRANCH   8  24
HETATM   24  O   UNK N   1       1.703  -1.435   0.573  0.00  0.00    -0.288 OA
BRANCH  24  25
HETATM   25  C   UNK N   1       2.719  -2.102  -0.028  0.00  0.00     0.363 C 
HETATM   26  N   UNK N   1       2.986  -3.382   0.344  0.00  0.00    -0.324 N 
HETATM   27  C   UNK N   1       4.119  -4.103  -0.192  0.00  0.00     0.154 C 
HETATM   28  C   UNK N   1       2.064  -4.106   1.189  0.00  0.00     0.154 C 
HETATM   29  C   UNK N   1       3.605  -5.413  -0.791  0.00  0.00     0.187 C 
HETATM   30  O   UNK N   1       2.864  -6.126   0.176  0.00  0.00    -0.388 OA
HETATM   31  C   UNK N   1       1.691  -5.387   0.436  0.00  0.00     0.187 C 
HETATM   32  O   UNK N   1       3.409  -1.550  -0.872  0.00  0.00    -0.238 OA
ENDBRANCH  24  25
ENDBRANCH   8  24
ENDBRANCH   5   8
ENDBRANCH   1   4
TORSDOF 10
