REMARK  7 active torsions:
REMARK  status: ('A' for Active; 'I' for Inactive)
REMARK    1  A    between atoms: C_1  and  N_16 
REMARK    2  A    between atoms: C_2  and  C_13 
REMARK    3  A    between atoms: C_7  and  N_18 
REMARK    4  A    between atoms: C_9  and  O_22 
REMARK    5  A    between atoms: C_10  and  O_23 
REMARK    6  A    between atoms: C_11  and  O_24 
REMARK    7  A    between atoms: C_13  and  O_21 
ROOT
HETATM    1  N   UNK N   1       0.301  -1.238  -0.059  0.00  0.00    -0.299 N 
ATOM      2  HN  UNK N   1       1.150  -0.683  -0.164  1.00  0.00     0.187 HD
HETATM    3  N   UNK N   1      -0.797  -0.646  -0.062  0.00  0.00    -0.300 N 
ATOM      4  HN  UNK N   1      -1.670  -1.174  -0.051  1.00  0.00     0.187 HD
ENDROOT
BRANCH   3   5
HETATM    5  C   UNK N   1      -0.814   0.770  -0.083  0.00  0.00     0.053 A 
HETATM    6  C   UNK N   1      -2.021   1.469  -0.009  0.00  0.00     0.070 A 
HETATM    7  C   UNK N   1      -2.023   2.878   0.049  0.00  0.00     0.106 A 
HETATM    8  C   UNK N   1      -0.802   3.575   0.037  0.00  0.00     0.133 A 
HETATM    9  C   UNK N   1       0.411   2.877  -0.040  0.00  0.00     0.106 A 
HETATM   10  C   UNK N   1       0.393   1.481  -0.097  0.00  0.00     0.070 A 
BRANCH   7  11
HETATM   11  O   UNK N   1      -3.181   3.580   0.128  0.00  0.00    -0.353 OA
HETATM   12  C   UNK N   1      -4.423   2.989   0.159  0.00  0.00     0.210 C 
ENDBRANCH   7  11
BRANCH   8  13
HETATM   13  O   UNK N   1      -0.795   4.919   0.105  0.00  0.00    -0.356 OA
HETATM   14  H   UNK N   1       0.018   5.383   0.152  0.00  0.00     0.218 HD
ENDBRANCH   8  13
BRANCH   9  15
HETATM   15  O   UNK N   1       1.582   3.561  -0.047  0.00  0.00    -0.353 OA
HETATM   16  C   UNK N   1       2.813   2.945  -0.107  0.00  0.00     0.210 C 
ENDBRANCH   9  15
ENDBRANCH   3   5
BRANCH   1  17
HETATM   17  C   UNK N   1       0.432  -2.639   0.084  0.00  0.00     0.065 A 
HETATM   18  C   UNK N   1       1.725  -3.213   0.161  0.00  0.00     0.065 A 
HETATM   19  C   UNK N   1       1.844  -4.598   0.351  0.00  0.00     0.021 A 
HETATM   20  C   UNK N   1       0.710  -5.404   0.461  0.00  0.00     0.001 A 
HETATM   21  C   UNK N   1      -0.562  -4.835   0.382  0.00  0.00     0.002 A 
HETATM   22  C   UNK N   1      -0.703  -3.458   0.197  0.00  0.00     0.032 A 
BRANCH  18  23
HETATM   23  C   UNK N   1       2.966  -2.392   0.061  0.00  0.00     0.178 C 
HETATM   24  O   UNK N   1       4.060  -2.925   0.161  0.00  0.00    -0.646 OA
BRANCH  23  25
HETATM   25  O   UNK N   1       2.907  -1.060  -0.142  0.00  0.00    -0.773 OA
HETATM   26  H   UNK N   1       3.688  -0.562  -0.284  0.00  0.00     0.167 HD
ENDBRANCH  23  25
ENDBRANCH  18  23
ENDBRANCH   1  17
TORSDOF 7
