REMARK  3 active torsions:
REMARK  status: ('A' for Active; 'I' for Inactive)
REMARK    1  A    between atoms: C_4  and  C_5 
REMARK    2  A    between atoms: C_15  and  C_14 
REMARK    3  A    between atoms: N_18  and  O_20 
REMARK       I    between atoms: N_27  and  C_26 
ROOT
HETATM    1  C   UNK N   1       0.236  -0.961  -0.071  0.00  0.00     0.031 C 
HETATM    2  C   UNK N   1       0.361   0.143   0.978  0.00  0.00     0.069 C 
HETATM    3  C   UNK N   1       1.615   0.937   0.699  0.00  0.00     0.046 C 
HETATM    4  N   UNK N   1       1.602   2.224   0.766  0.00  0.00    -0.272 N 
ATOM      5  HN  UNK N   1       2.459   2.742   0.571  1.00  0.00     0.194 HD
HETATM    6  C   UNK N   1       2.858   0.189   0.340  0.00  0.00     0.034 A 
HETATM    7  C   UNK N   1       1.433  -1.912   0.150  0.00  0.00     0.068 C 
HETATM    8  C   UNK N   1       2.763  -1.202   0.113  0.00  0.00     0.041 A 
HETATM    9  N   UNK N   1       3.877  -1.918  -0.177  0.00  0.00    -0.195 N 
ATOM     10  HN  UNK N   1       3.799  -2.924  -0.328  1.00  0.00     0.184 HD
HETATM   11  C   UNK N   1       5.093  -1.324  -0.269  0.00  0.00     0.676 A 
HETATM   12  N   UNK N   1       6.232  -2.096  -0.558  0.00  0.00    -0.234 N 
HETATM   13  N   UNK N   1       5.209   0.017  -0.091  0.00  0.00    -0.195 N 
ATOM     14  HN  UNK N   1       6.126   0.454  -0.183  1.00  0.00     0.184 HD
HETATM   15  C   UNK N   1       4.133   0.790   0.205  0.00  0.00     0.037 A 
HETATM   16  C   UNK N   1       4.351   2.254   0.387  0.00  0.00     0.070 C 
HETATM   17  H   UNK N   1       6.163  -3.057  -0.761  0.00  0.00     0.174 HD
HETATM   18  H   UNK N   1       7.118  -1.666  -0.558  0.00  0.00     0.174 HD
ENDROOT
BRANCH   1  19
HETATM   19  C   UNK N   1      -1.114  -1.669  -0.002  0.00  0.00    -0.042 A 
HETATM   20  C   UNK N   1      -2.378  -0.996  -0.152  0.00  0.00    -0.015 A 
HETATM   21  C   UNK N   1      -3.556  -1.762  -0.056  0.00  0.00     0.055 A 
HETATM   22  C   UNK N   1      -3.522  -3.138   0.152  0.00  0.00     0.117 A 
HETATM   23  F   UNK N   1      -4.677  -3.843   0.208  0.00  0.00    -0.206 F 
HETATM   24  C   UNK N   1      -2.304  -3.787   0.291  0.00  0.00     0.043 A 
HETATM   25  C   UNK N   1      -1.119  -3.061   0.221  0.00  0.00     0.011 A 
BRANCH  20  26
HETATM   26  C   UNK N   1      -2.555   0.474  -0.406  0.00  0.00    -0.010 A 
HETATM   27  C   UNK N   1      -3.815   1.066  -0.203  0.00  0.00     0.099 A 
HETATM   28  N   UNK N   1      -4.003   2.398  -0.410  0.00  0.00    -0.374 N 
HETATM   29  C   UNK N   1      -2.992   3.199  -0.835  0.00  0.00     0.087 A 
ATOM     30  HN  UNK N   1      -4.924   2.803  -0.242  1.00  0.00     0.164 HD
HETATM   31  C   UNK N   1      -1.730   2.659  -1.076  0.00  0.00     0.018 A 
HETATM   32  C   UNK N   1      -1.518   1.299  -0.859  0.00  0.00     0.015 A 
ENDBRANCH  20  26
ENDBRANCH   1  19
BRANCH   4  33
HETATM   33  O   UNK N   1       0.508   2.885   1.081  0.00  0.00    -0.290 OA
HETATM   34  H   UNK N   1       0.526   3.794   1.305  0.00  0.00     0.244 HD
ENDBRANCH   4  33
TORSDOF 3
