REMARK  10 active torsions:
REMARK  status: ('A' for Active; 'I' for Inactive)
REMARK       I    between atoms: C_2  and  N_3 
REMARK    1  A    between atoms: C_2  and  O_14 
REMARK    2  A    between atoms: C_4  and  N_3 
REMARK    3  A    between atoms: C_4  and  C_5 
REMARK    4  A    between atoms: C_4  and  C_7 
REMARK    5  A    between atoms: C_5  and  S_6 
REMARK       I    between atoms: C_7  and  N_9 
REMARK    6  A    between atoms: N_9  and  C_10 
REMARK    7  A    between atoms: C_10  and  C_11 
REMARK    8  A    between atoms: C_11  and  O_12 
REMARK    9  A    between atoms: O_14  and  C_15 
REMARK   10  A    between atoms: C_15  and  C_16 
ROOT
HETATM    1  C   UNK N   1      -2.006   0.438   0.090  0.00  0.00     0.188 C 
ENDROOT
BRANCH   1   2
HETATM    2  N   UNK N   1      -0.763   0.571   0.825  0.00  0.00    -0.323 N 
HETATM    3  C   UNK N   1       0.472   0.562   0.274  0.00  0.00     0.361 C 
HETATM    4  O   UNK N   1       1.432   0.819   0.989  0.00  0.00    -0.238 OA
HETATM    5  H   UNK N   1      -0.822   0.676   1.802  0.00  0.00     0.165 HD
BRANCH   3   6
HETATM    6  O   UNK N   1       0.653   0.230  -1.035  0.00  0.00    -0.299 OA
BRANCH   6   7
HETATM    7  C   UNK N   1       1.874   0.264  -1.696  0.00  0.00     0.219 C 
BRANCH   7   8
HETATM    8  C   UNK N   1       2.969  -0.426  -0.937  0.00  0.00    -0.034 A 
HETATM    9  C   UNK N   1       4.099   0.306  -0.555  0.00  0.00     0.009 A 
HETATM   10  C   UNK N   1       5.103  -0.297   0.207  0.00  0.00     0.001 A 
HETATM   11  C   UNK N   1       4.977  -1.634   0.594  0.00  0.00     0.000 A 
HETATM   12  C   UNK N   1       3.851  -2.370   0.211  0.00  0.00     0.001 A 
HETATM   13  C   UNK N   1       2.845  -1.768  -0.553  0.00  0.00     0.009 A 
ENDBRANCH   7   8
ENDBRANCH   6   7
ENDBRANCH   3   6
ENDBRANCH   1   2
BRANCH   1  14
HETATM   14  C   UNK N   1      -2.940   1.537   0.590  0.00  0.00     0.105 C 
BRANCH  14  15
HETATM   15  S   UNK N   1      -2.362   3.188   0.094  0.00  0.00    -0.180 SA
HETATM   16  H   UNK N   1      -1.077   3.432  -0.277  0.00  0.00     0.101 HD
ENDBRANCH  14  15
ENDBRANCH   1  14
BRANCH   1  17
HETATM   17  C   UNK N   1      -2.626  -0.929   0.331  0.00  0.00     0.241 C 
HETATM   18  O   UNK N   1      -2.002  -1.769   0.961  0.00  0.00    -0.271 OA
HETATM   19  N   UNK N   1      -3.860  -1.252  -0.140  0.00  0.00    -0.349 N 
HETATM   20  H   UNK N   1      -4.195  -2.165   0.016  0.00  0.00     0.163 HD
BRANCH  19  21
HETATM   21  C   UNK N   1      -4.706  -0.327  -0.855  0.00  0.00     0.232 C 
BRANCH  21  22
HETATM   22  C   UNK N   1      -5.871   0.043   0.007  0.00  0.00     0.158 C 
HETATM   23  O   UNK N   1      -6.024   1.200   0.362  0.00  0.00    -0.649 OA
BRANCH  22  24
HETATM   24  O   UNK N   1      -6.744  -0.900   0.408  0.00  0.00    -0.775 OA
HETATM   25  H   UNK N   1      -7.616  -0.703   0.688  0.00  0.00     0.167 HD
ENDBRANCH  22  24
ENDBRANCH  21  22
ENDBRANCH  19  21
ENDBRANCH   1  17
TORSDOF 10
