REMARK  6 active torsions:
REMARK  status: ('A' for Active; 'I' for Inactive)
REMARK    1  A    between atoms: C_1  and  S_18 
REMARK    2  A    between atoms: C_4  and  N_7 
REMARK    3  A    between atoms: N_7  and  C_8 
REMARK    4  A    between atoms: C_8  and  N_10 
REMARK    5  A    between atoms: N_10  and  N_11 
REMARK    6  A    between atoms: S_18  and  N_19 
ROOT
HETATM    1  N   UNK N   1       2.416  -0.010   0.113  0.00  0.00    -0.332 N 
HETATM    2  H   UNK N   1       3.211  -0.523   0.385  0.00  0.00     0.168 HD
ENDROOT
BRANCH   1   3
HETATM    3  C   UNK N   1       2.445   1.410   0.168  0.00  0.00     0.034 A 
HETATM    4  C   UNK N   1       3.519   2.123  -0.383  0.00  0.00     0.031 A 
HETATM    5  C   UNK N   1       3.444   3.522  -0.500  0.00  0.00     0.027 A 
HETATM    6  C   UNK N   1       2.304   4.207  -0.046  0.00  0.00     0.079 A 
HETATM    7  C   UNK N   1       1.252   3.476   0.534  0.00  0.00     0.027 A 
HETATM    8  C   UNK N   1       1.327   2.099   0.644  0.00  0.00     0.031 A 
BRANCH   6   9
HETATM    9  S   UNK N   1       2.086   5.975  -0.407  0.00  0.00     0.256 S 
HETATM   10  O   UNK N   1       2.310   5.834   1.108  0.00  0.00    -0.201 OA
HETATM   11  O   UNK N   1       0.560   5.994  -0.232  0.00  0.00    -0.201 OA
BRANCH   9  12
HETATM   12  N   UNK N   1       2.309   7.618   0.194  0.00  0.00    -0.324 N 
HETATM   13  H   UNK N   1       3.197   7.981   0.541  0.00  0.00     0.169 HD
HETATM   14  H   UNK N   1       1.502   8.242   0.194  0.00  0.00     0.169 HD
ENDBRANCH   9  12
ENDBRANCH   6   9
ENDBRANCH   1   3
BRANCH   1  15
HETATM   15  C   UNK N   1       1.241  -0.706  -0.333  0.00  0.00     0.187 C 
HETATM   16  S   UNK N   1       0.359  -0.097  -1.307  0.00  0.00    -0.040 SA
BRANCH  15  17
HETATM   17  N   UNK N   1       0.994  -2.035   0.118  0.00  0.00    -0.295 N 
HETATM   18  H   UNK N   1       1.695  -2.520   0.612  0.00  0.00     0.183 HD
BRANCH  17  19
HETATM   19  N   UNK N   1      -0.233  -2.657  -0.133  0.00  0.00    -0.226 NA
HETATM   20  C   UNK N   1      -0.123  -4.069   0.226  0.00  0.00     0.144 C 
HETATM   21  C   UNK N   1      -1.501  -4.758   0.160  0.00  0.00     0.288 C 
HETATM   22  N   UNK N   1      -2.529  -3.847  -0.352  0.00  0.00     0.086 N 
HETATM   23  C   UNK N   1      -3.806  -4.530  -0.267  0.00  0.00     0.310 C 
HETATM   24  C   UNK N   1      -2.616  -2.664   0.505  0.00  0.00     0.288 C 
HETATM   25  C   UNK N   1      -1.238  -2.030   0.730  0.00  0.00     0.144 C 
ENDBRANCH  17  19
ENDBRANCH  15  17
ENDBRANCH   1  15
TORSDOF 6
