REMARK  5 active torsions:
REMARK  status: ('A' for Active; 'I' for Inactive)
REMARK    1  A    between atoms: C_7  and  N_25 
REMARK    2  A    between atoms: C_12  and  C_13 
REMARK    3  A    between atoms: C_12  and  C_19 
REMARK    4  A    between atoms: C_16  and  O_28 
REMARK    5  A    between atoms: C_22  and  O_29 
ROOT
HETATM    1  C   UNK N   1      -2.213  -0.669   1.619  0.00  0.00     0.296 C 
HETATM    2  C   UNK N   1      -2.591   0.582   0.967  0.00  0.00     0.051 A 
HETATM    3  C   UNK N   1      -3.750   1.265   1.356  0.00  0.00     0.018 A 
HETATM    4  C   UNK N   1      -4.021   2.530   0.842  0.00  0.00     0.002 A 
HETATM    5  C   UNK N   1      -3.110   3.136  -0.020  0.00  0.00     0.015 A 
HETATM    6  C   UNK N   1      -1.960   2.456  -0.453  0.00  0.00     0.009 A 
HETATM    7  C   UNK N   1      -0.995   3.088  -1.281  0.00  0.00     0.114 C 
HETATM    8  C   UNK N   1       0.088   2.326  -1.746  0.00  0.00     0.038 C 
HETATM    9  C   UNK N   1       0.277   1.005  -1.340  0.00  0.00     0.014 C 
HETATM   10  C   UNK N   1      -0.583   0.405  -0.402  0.00  0.00    -0.002 C 
HETATM   11  C   UNK N   1      -1.722   1.133   0.021  0.00  0.00     0.003 A 
HETATM   12  C   UNK N   1      -0.139  -0.898   0.336  0.00  0.00     0.153 C 
HETATM   13  O   UNK N   1      -0.975  -1.185   1.416  0.00  0.00    -0.291 OA
HETATM   14  O   UNK N   1      -2.965  -1.202   2.420  0.00  0.00    -0.259 OA
ENDROOT
BRANCH  12  15
HETATM   15  C   UNK N   1       1.288  -0.524   0.772  0.00  0.00    -0.014 A 
HETATM   16  C   UNK N   1       1.516   0.515   1.689  0.00  0.00     0.013 A 
HETATM   17  C   UNK N   1       2.799   1.065   1.826  0.00  0.00     0.037 A 
HETATM   18  C   UNK N   1       3.853   0.612   1.022  0.00  0.00     0.065 A 
HETATM   19  C   UNK N   1       3.641  -0.411   0.106  0.00  0.00     0.037 A 
HETATM   20  C   UNK N   1       2.373  -0.960  -0.028  0.00  0.00     0.013 A 
BRANCH  18  21
HETATM   21  O   UNK N   1       5.069   1.171   1.122  0.00  0.00    -0.361 OA
HETATM   22  H   UNK N   1       5.832   0.631   1.191  0.00  0.00     0.217 HD
ENDBRANCH  18  21
ENDBRANCH  12  15
BRANCH  12  23
HETATM   23  C   UNK N   1      -0.028  -2.265  -0.342  0.00  0.00    -0.014 A 
HETATM   24  C   UNK N   1       0.406  -3.325   0.488  0.00  0.00     0.013 A 
HETATM   25  C   UNK N   1       0.592  -4.608  -0.002  0.00  0.00     0.037 A 
HETATM   26  C   UNK N   1       0.352  -4.868  -1.343  0.00  0.00     0.065 A 
HETATM   27  C   UNK N   1      -0.094  -3.836  -2.190  0.00  0.00     0.037 A 
HETATM   28  C   UNK N   1      -0.288  -2.530  -1.692  0.00  0.00     0.013 A 
BRANCH  26  29
HETATM   29  O   UNK N   1       0.551  -6.108  -1.819  0.00  0.00    -0.361 OA
HETATM   30  H   UNK N   1      -0.129  -6.660  -2.152  0.00  0.00     0.217 HD
ENDBRANCH  26  29
ENDBRANCH  12  23
BRANCH   7  31
HETATM   31  N   UNK N   1      -1.041   4.491  -1.590  0.00  0.00    -0.115 N 
HETATM   32  O   UNK N   1      -1.943   5.278  -1.043  0.00  0.00    -0.532 OA
HETATM   33  O   UNK N   1      -0.133   4.992  -2.185  0.00  0.00    -0.532 OA
ENDBRANCH   7  31
TORSDOF 5
