REMARK  2 active torsions:
REMARK  status: ('A' for Active; 'I' for Inactive)
REMARK    1  A    between atoms: C_4  and  O_5 
REMARK    2  A    between atoms: C_9  and  C_10 
ROOT
HETATM    1  C   UNK N   1      -3.571   2.528   0.031  0.00  0.00     0.051 C 
HETATM    2  C   UNK N   1      -2.827   1.238   0.012  0.00  0.00    -0.027 A 
HETATM    3  C   UNK N   1      -1.426   1.252  -0.000  0.00  0.00     0.025 A 
HETATM    4  C   UNK N   1      -3.517   0.012   0.009  0.00  0.00     0.077 A 
HETATM    5  C   UNK N   1      -2.797  -1.192  -0.011  0.00  0.00    -0.027 A 
HETATM    6  C   UNK N   1      -3.497  -2.506  -0.010  0.00  0.00     0.051 C 
HETATM    7  C   UNK N   1      -1.404  -1.167  -0.030  0.00  0.00     0.025 A 
HETATM    8  C   UNK N   1      -0.711   0.047  -0.023  0.00  0.00     0.017 A 
ENDROOT
BRANCH   8   9
HETATM    9  C   UNK N   1       0.757   0.033  -0.026  0.00  0.00     0.159 A 
HETATM   10  N   UNK N   1       1.486  -1.112  -0.081  0.00  0.00    -0.334 N 
HETATM   11  C   UNK N   1       2.753  -0.678  -0.045  0.00  0.00     0.068 A 
ATOM     12  HN  UNK N   1       1.149  -2.074  -0.136  1.00  0.00     0.168 HD
HETATM   13  C   UNK N   1       2.765   0.680   0.031  0.00  0.00     0.104 A 
HETATM   14  C   UNK N   1       3.918  -1.435  -0.071  0.00  0.00     0.032 A 
HETATM   15  O   UNK N   1       1.528   1.108   0.039  0.00  0.00    -0.291 OA
HETATM   16  C   UNK N   1       3.951   1.405   0.091  0.00  0.00     0.040 A 
HETATM   17  C   UNK N   1       5.157   0.675   0.070  0.00  0.00     0.003 A 
HETATM   18  C   UNK N   1       5.140  -0.739  -0.013  0.00  0.00     0.002 A 
ENDBRANCH   8   9
BRANCH   4  19
HETATM   19  O   UNK N   1      -4.864  -0.008   0.026  0.00  0.00    -0.360 OA
HETATM   20  H   UNK N   1      -5.344   0.796   0.038  0.00  0.00     0.217 HD
ENDBRANCH   4  19
TORSDOF 2
