REMARK  2 active torsions:
REMARK  status: ('A' for Active; 'I' for Inactive)
REMARK    1  A    between atoms: C_4  and  O_5 
REMARK    2  A    between atoms: C_9  and  C_10 
ROOT
HETATM    1  C   UNK N   1      -0.762  -1.324  -0.010  0.00  0.00     0.038 A 
HETATM    2  C   UNK N   1      -2.162  -1.335  -0.012  0.00  0.00     0.046 A 
HETATM    3 Br   UNK N   1      -3.085  -3.009  -0.016  0.00  0.00    -0.048 Br
HETATM    4  C   UNK N   1      -2.873  -0.123  -0.012  0.00  0.00     0.100 A 
HETATM    5  C   UNK N   1      -2.176   1.093  -0.006  0.00  0.00     0.046 A 
HETATM    6 Br   UNK N   1      -3.097   2.766  -0.009  0.00  0.00    -0.048 Br
HETATM    7  C   UNK N   1      -0.783   1.095   0.001  0.00  0.00     0.038 A 
HETATM    8  C   UNK N   1      -0.069  -0.108  -0.001  0.00  0.00     0.018 A 
ENDROOT
BRANCH   8   9
HETATM    9  C   UNK N   1       1.397  -0.070   0.005  0.00  0.00     0.159 A 
HETATM   10  O   UNK N   1       2.182  -1.136  -0.030  0.00  0.00    -0.291 OA
HETATM   11  C   UNK N   1       3.412  -0.693  -0.014  0.00  0.00     0.104 A 
HETATM   12  C   UNK N   1       3.382   0.667   0.033  0.00  0.00     0.068 A 
HETATM   13  C   UNK N   1       4.607  -1.405  -0.040  0.00  0.00     0.040 A 
HETATM   14  C   UNK N   1       4.538   1.438   0.061  0.00  0.00     0.032 A 
HETATM   15  N   UNK N   1       2.110   1.086   0.044  0.00  0.00    -0.334 N 
HETATM   16  C   UNK N   1       5.769   0.756   0.037  0.00  0.00     0.002 A 
HETATM   17  C   UNK N   1       5.804  -0.660  -0.014  0.00  0.00     0.003 A 
ATOM     18  HN  UNK N   1       1.760   2.043   0.075  1.00  0.00     0.168 HD
ENDBRANCH   8   9
BRANCH   4  19
HETATM   19  O   UNK N   1      -4.218  -0.128  -0.016  0.00  0.00    -0.358 OA
HETATM   20  H   UNK N   1      -4.689   0.682  -0.019  0.00  0.00     0.217 HD
ENDBRANCH   4  19
TORSDOF 2
