REMARK  1 active torsions:
REMARK  status: ('A' for Active; 'I' for Inactive)
REMARK    1  A    between atoms: C_8  and  C_9 
ROOT
HETATM    1  C   UNK N   1       0.927   0.066   0.041  0.00  0.00     0.159 A 
HETATM    2  O   UNK N   1       1.676  -0.999  -0.207  0.00  0.00    -0.291 OA
HETATM    3  C   UNK N   1       2.918  -0.596  -0.171  0.00  0.00     0.104 A 
HETATM    4  C   UNK N   1       4.085  -1.323  -0.379  0.00  0.00     0.040 A 
HETATM    5  C   UNK N   1       5.307  -0.628  -0.272  0.00  0.00     0.003 A 
HETATM    6  C   UNK N   1       5.323   0.753   0.040  0.00  0.00     0.002 A 
HETATM    7  C   UNK N   1       4.117   1.454   0.237  0.00  0.00     0.032 A 
HETATM    8  C   UNK N   1       2.936   0.734   0.116  0.00  0.00     0.068 A 
HETATM    9  N   UNK N   1       1.676   1.179   0.248  0.00  0.00    -0.334 N 
ATOM     10  HN  UNK N   1       1.359   2.126   0.454  1.00  0.00     0.168 HD
ENDROOT
BRANCH   1  11
HETATM   11  C   UNK N   1      -0.540   0.057   0.085  0.00  0.00     0.016 A 
HETATM   12  C   UNK N   1      -1.248  -1.151   0.042  0.00  0.00     0.022 A 
HETATM   13  C   UNK N   1      -2.646  -1.145   0.095  0.00  0.00    -0.061 A 
HETATM   14  C   UNK N   1      -3.396  -2.428   0.082  0.00  0.00     0.048 C 
HETATM   15  C   UNK N   1      -3.339   0.068   0.168  0.00  0.00     0.013 A 
HETATM   16  C   UNK N   1      -2.634   1.274   0.199  0.00  0.00    -0.061 A 
HETATM   17  C   UNK N   1      -3.365   2.566   0.257  0.00  0.00     0.048 C 
HETATM   18  C   UNK N   1      -1.238   1.267   0.169  0.00  0.00     0.022 A 
ENDBRANCH   1  11
TORSDOF 1
