REMARK  5 active torsions:
REMARK  status: ('A' for Active; 'I' for Inactive)
REMARK    1  A    between atoms: C_6  and  N_7 
REMARK       I    between atoms: N_7  and  C_8 
REMARK    2  A    between atoms: C_8  and  C_11 
REMARK    3  A    between atoms: C_10  and  N_25 
REMARK    4  A    between atoms: C_13  and  S_17 
REMARK    5  A    between atoms: S_17  and  C_19 
ROOT
HETATM    1  C   UNK N   1       1.863   0.143  -0.156  0.00  0.00     0.044 A 
HETATM    2  C   UNK N   1       0.639  -0.529   0.077  0.00  0.00     0.060 A 
HETATM    3  C   UNK N   1      -0.479   0.224   0.484  0.00  0.00     0.041 A 
HETATM    4  C   UNK N   1      -0.387   1.611   0.690  0.00  0.00     0.048 A 
HETATM    5  C   UNK N   1       0.843   2.254   0.465  0.00  0.00     0.135 A 
HETATM    6  F   UNK N   1       1.007   3.571   0.726  0.00  0.00    -0.205 F 
HETATM    7  C   UNK N   1       1.945   1.522   0.027  0.00  0.00     0.073 A 
ENDROOT
BRANCH   2   8
HETATM    8  C   UNK N   1       0.522  -2.013  -0.030  0.00  0.00     0.259 C 
HETATM    9  N   UNK N   1       1.642  -2.782   0.021  0.00  0.00    -0.303 N 
HETATM   10  H   UNK N   1       2.502  -2.321   0.151  0.00  0.00     0.171 HD
HETATM   11  O   UNK N   1      -0.584  -2.535  -0.069  0.00  0.00    -0.267 OA
BRANCH   9  12
HETATM   12  C   UNK N   1       1.671  -4.195  -0.100  0.00  0.00     0.151 A 
HETATM   13  S   UNK N   1       2.904  -5.156   0.405  0.00  0.00    -0.064 SA
HETATM   14  C   UNK N   1       2.291  -6.606  -0.115  0.00  0.00     0.070 A 
HETATM   15  C   UNK N   1       1.058  -6.285  -0.721  0.00  0.00     0.097 A 
HETATM   16  N   UNK N   1       0.723  -4.945  -0.707  0.00  0.00    -0.346 N 
ATOM     17  HN  UNK N   1      -0.136  -4.567  -1.106  1.00  0.00     0.167 HD
ENDBRANCH   9  12
ENDBRANCH   2   8
BRANCH   1  18
HETATM   18  N   UNK N   1       3.018  -0.552  -0.574  0.00  0.00    -0.398 N 
HETATM   19  H   UNK N   1       3.001  -1.493  -0.865  0.00  0.00     0.156 HD
HETATM   20  H   UNK N   1       3.879  -0.075  -0.574  0.00  0.00     0.156 HD
ENDBRANCH   1  18
BRANCH   4  21
HETATM   21  S   UNK N   1      -1.789   2.457   1.467  0.00  0.00    -0.051 SA
BRANCH  21  22
HETATM   22  C   UNK N   1      -2.110   3.879   0.400  0.00  0.00     0.150 A 
HETATM   23  N   UNK N   1      -3.343   4.306   0.081  0.00  0.00    -0.341 N 
HETATM   24  C   UNK N   1      -3.195   5.434  -0.626  0.00  0.00     0.109 A 
HETATM   25  C   UNK N   1      -4.609   3.703   0.464  0.00  0.00     0.158 C 
HETATM   26  C   UNK N   1      -1.837   5.686  -0.728  0.00  0.00     0.107 A 
HETATM   27  N   UNK N   1      -1.166   4.713  -0.076  0.00  0.00    -0.345 N 
ATOM     28  HN  UNK N   1      -0.155   4.628   0.034  1.00  0.00     0.167 HD
ENDBRANCH  21  22
ENDBRANCH   4  21
TORSDOF 5
