REMARK  3 active torsions:
REMARK  status: ('A' for Active; 'I' for Inactive)
REMARK    1  A    between atoms: C_9  and  C_8 
REMARK       I    between atoms: C_9  and  N_10 
REMARK    2  A    between atoms: C_12  and  S_14 
REMARK    3  A    between atoms: S_14  and  N_17 
ROOT
HETATM    1 Br   UNK N   1       5.030   0.478  -0.248  0.00  0.00    -0.051 Br
HETATM    2  C   UNK N   1       3.349   1.367  -0.145  0.00  0.00     0.011 A 
HETATM    3  C   UNK N   1       2.157   0.621  -0.206  0.00  0.00     0.034 A 
HETATM    4  C   UNK N   1       3.306   2.772  -0.002  0.00  0.00     0.021 A 
HETATM    5  C   UNK N   1       2.072   3.442   0.079  0.00  0.00     0.032 A 
HETATM    6  C   UNK N   1       0.914   2.675   0.018  0.00  0.00     0.044 A 
HETATM    7  N   UNK N   1      -0.349   3.128   0.079  0.00  0.00    -0.350 N 
HETATM    8  C   UNK N   1      -1.149   2.039  -0.016  0.00  0.00     0.125 A 
HETATM    9  C   UNK N   1      -0.351   0.860  -0.145  0.00  0.00     0.119 A 
HETATM   10  C   UNK N   1       0.950   1.314  -0.118  0.00  0.00     0.017 A 
HETATM   11  H   UNK N   1      -0.635   4.065   0.174  0.00  0.00     0.166 HD
ENDROOT
BRANCH   9  12
HETATM   12  S   UNK N   1      -0.769  -0.913  -0.370  0.00  0.00     0.247 S 
HETATM   13  O   UNK N   1      -1.956  -0.472  -1.238  0.00  0.00    -0.206 OA
HETATM   14  O   UNK N   1      -1.277  -0.396   0.987  0.00  0.00    -0.206 OA
BRANCH  12  15
HETATM   15  N   UNK N   1      -1.708  -2.298   0.305  0.00  0.00    -0.206 NA
HETATM   16  C   UNK N   1      -1.567  -3.419  -0.615  0.00  0.00     0.107 C 
HETATM   17  C   UNK N   1      -2.832  -4.256  -0.526  0.00  0.00     0.017 C 
HETATM   18  C   UNK N   1      -3.807  -3.448   0.294  0.00  0.00     0.017 C 
HETATM   19  C   UNK N   1      -3.160  -2.094   0.419  0.00  0.00     0.107 C 
ENDBRANCH  12  15
ENDBRANCH   9  12
BRANCH   8  20
HETATM   20  C   UNK N   1      -2.631   2.186   0.051  0.00  0.00     0.267 C 
HETATM   21  N   UNK N   1      -3.453   1.123   0.103  0.00  0.00    -0.365 N 
HETATM   22  H   UNK N   1      -4.428   1.255   0.141  0.00  0.00     0.159 HD
HETATM   23  H   UNK N   1      -3.080   0.211   0.103  0.00  0.00     0.159 HD
HETATM   24  O   UNK N   1      -3.113   3.306   0.108  0.00  0.00    -0.266 OA
ENDBRANCH   8  20
TORSDOF 3
