REMARK  8 active torsions:
REMARK  status: ('A' for Active; 'I' for Inactive)
REMARK    1  A    between atoms: C_5  and  N_8 
REMARK    2  A    between atoms: N_8  and  C_9 
REMARK    3  A    between atoms: C_9  and  N_11 
REMARK    4  A    between atoms: C_12  and  N_11 
REMARK    5  A    between atoms: C_14  and  C_15 
REMARK    6  A    between atoms: C_16  and  O_25 
REMARK    7  A    between atoms: C_19  and  C_22 
REMARK    8  A    between atoms: C_20  and  O_21 
ROOT
HETATM    1  C   UNK N   1      -2.097   4.329  -0.003  0.00  0.00     0.060 A 
HETATM    2  C   UNK N   1      -1.061   5.118  -0.517  0.00  0.00     0.112 A 
HETATM    3  N   UNK N   1       0.175   4.574  -0.691  0.00  0.00    -0.351 N 
ATOM      4  HN  UNK N   1       0.929   5.142  -1.077  1.00  0.00     0.166 HD
HETATM    5  C   UNK N   1       0.409   3.284  -0.353  0.00  0.00     0.107 A 
HETATM    6  C   UNK N   1      -0.643   2.477   0.033  0.00  0.00     0.050 A 
HETATM    7  C   UNK N   1      -1.897   2.991   0.217  0.00  0.00     0.028 A 
HETATM    8  C   UNK N   1      -3.296   4.900   0.493  0.00  0.00     0.101 C 
HETATM    9  N   UNK N   1      -4.287   5.315   0.914  0.00  0.00    -0.191 NA
ENDROOT
BRANCH   5  10
HETATM   10  N   UNK N   1       1.731   2.809  -0.271  0.00  0.00    -0.319 N 
HETATM   11  H   UNK N   1       2.402   3.206  -0.872  0.00  0.00     0.169 HD
BRANCH  10  12
HETATM   12  C   UNK N   1       2.158   1.793   0.627  0.00  0.00     0.173 C 
HETATM   13  S   UNK N   1       1.604   1.672   1.972  0.00  0.00    -0.041 SA
BRANCH  12  14
HETATM   14  N   UNK N   1       3.179   0.929   0.155  0.00  0.00    -0.362 N 
HETATM   15  H   UNK N   1       3.836   1.308  -0.473  0.00  0.00     0.162 HD
BRANCH  14  16
HETATM   16  C   UNK N   1       3.335  -0.449   0.515  0.00  0.00     0.093 A 
HETATM   17  C   UNK N   1       3.118  -1.538  -0.529  0.00  0.00     0.037 A 
HETATM   18  C   UNK N   1       1.921  -0.983   0.139  0.00  0.00     0.049 A 
BRANCH  18  19
HETATM   19  C   UNK N   1       0.662  -1.829   0.047  0.00  0.00     0.015 C 
HETATM   20  C   UNK N   1       0.572  -3.193  -0.273  0.00  0.00     0.077 C 
HETATM   21  C   UNK N   1      -0.683  -3.832  -0.240  0.00  0.00     0.038 C 
HETATM   22  C   UNK N   1      -1.859  -3.097  -0.044  0.00  0.00     0.021 C 
HETATM   23  C   UNK N   1      -1.774  -1.728   0.171  0.00  0.00     0.043 C 
HETATM   24  C   UNK N   1      -0.526  -1.144   0.324  0.00  0.00     0.089 C 
BRANCH  20  25
HETATM   25  O   UNK N   1       1.663  -3.905  -0.586  0.00  0.00    -0.355 OA
HETATM   26  C   UNK N   1       2.410  -4.495   0.397  0.00  0.00     0.210 C 
ENDBRANCH  20  25
BRANCH  23  27
HETATM   27  C   UNK N   1      -2.954  -0.850  -0.026  0.00  0.00     0.158 C 
HETATM   28  O   UNK N   1      -4.088  -1.251   0.154  0.00  0.00    -0.293 OA
HETATM   29  C   UNK N   1      -2.760   0.389  -0.846  0.00  0.00     0.097 C 
ENDBRANCH  23  27
BRANCH  24  30
HETATM   30  O   UNK N   1      -0.469   0.108   0.741  0.00  0.00    -0.359 OA
HETATM   31  H   UNK N   1       0.321   0.517   1.038  0.00  0.00     0.217 HD
ENDBRANCH  24  30
ENDBRANCH  18  19
ENDBRANCH  14  16
ENDBRANCH  12  14
ENDBRANCH  10  12
ENDBRANCH   5  10
TORSDOF 8
