REMARK  2 active torsions:
REMARK  status: ('A' for Active; 'I' for Inactive)
REMARK    1  A    between atoms: C_3  and  O_4 
REMARK    2  A    between atoms: C_7  and  N_8 
ROOT
HETATM    1  C   UNK N   1      -0.363   0.153   0.000  0.00  0.00     0.033 A 
HETATM    2  C   UNK N   1      -0.353   1.551   0.000  0.00  0.00     0.039 A 
HETATM    3  C   UNK N   1       0.863   2.242   0.000  0.00  0.00     0.065 A 
HETATM    4  C   UNK N   1       2.068   1.538  -0.000  0.00  0.00     0.039 A 
HETATM    5  C   UNK N   1       2.060   0.142  -0.000  0.00  0.00     0.033 A 
HETATM    6  C   UNK N   1       0.846  -0.561  -0.000  0.00  0.00     0.039 A 
ENDROOT
BRANCH   6   7
HETATM    7  N   UNK N   1       0.850  -1.996  -0.000  0.00  0.00    -0.317 N 
HETATM    8  C   UNK N   1       1.936  -2.786   0.000  0.00  0.00     0.115 A 
HETATM    9  C   UNK N   1       1.502  -4.095   0.000  0.00  0.00     0.106 A 
HETATM   10  N   UNK N   1       0.152  -4.100  -0.000  0.00  0.00    -0.360 N 
HETATM   11  C   UNK N   1      -0.224  -2.806  -0.000  0.00  0.00     0.188 A 
ATOM     12  HN  UNK N   1      -0.459  -4.917  -0.000  1.00  0.00     0.166 HD
ENDBRANCH   6   7
BRANCH   3  13
HETATM   13  O   UNK N   1       0.873   3.584   0.000  0.00  0.00    -0.361 OA
HETATM   14  H   UNK N   1       1.688   4.046   0.000  0.00  0.00     0.217 HD
ENDBRANCH   3  13
TORSDOF 2
