REMARK  6 active torsions:
REMARK  status: ('A' for Active; 'I' for Inactive)
REMARK    1  A    between atoms: C_1  and  N_8 
REMARK    2  A    between atoms: C_3  and  N_20 
REMARK       I    between atoms: N_8  and  C_9 
REMARK    3  A    between atoms: C_9  and  C_11 
REMARK    4  A    between atoms: C_13  and  C_16 
REMARK    5  A    between atoms: N_20  and  C_27 
REMARK    6  A    between atoms: C_21  and  C_35 
ROOT
HETATM    1  C   UNK N   1       5.408  -1.058   0.124  0.00  0.00     0.037 C 
HETATM    2  C   UNK N   1       4.247  -1.806   0.150  0.00  0.00     0.059 C 
HETATM    3  C   UNK N   1       4.233  -3.166  -0.109  0.00  0.00     0.041 C 
HETATM    4  C   UNK N   1       5.478  -3.804  -0.414  0.00  0.00    -0.035 C 
HETATM    5  C   UNK N   1       6.609  -3.014  -0.622  0.00  0.00     0.011 C 
HETATM    6  C   UNK N   1       6.572  -1.654  -0.362  0.00  0.00     0.030 C 
HETATM    7  C   UNK N   1       5.708  -5.262  -0.494  0.00  0.00     0.050 C 
ENDROOT
BRANCH   3   8
HETATM    8  N   UNK N   1       2.957  -3.783   0.074  0.00  0.00    -0.341 N 
HETATM    9  H   UNK N   1       2.242  -3.123   0.223  0.00  0.00     0.167 HD
BRANCH   8  10
HETATM   10  C   UNK N   1       2.477  -5.105   0.093  0.00  0.00     0.118 A 
HETATM   11  C   UNK N   1       1.079  -5.361   0.164  0.00  0.00     0.035 A 
HETATM   12  C   UNK N   1       0.647  -6.689   0.167  0.00  0.00     0.019 A 
HETATM   13  C   UNK N   1       1.561  -7.738   0.110  0.00  0.00     0.018 A 
HETATM   14  C   UNK N   1       2.918  -7.448   0.052  0.00  0.00     0.090 A 
HETATM   15  N   UNK N   1       3.334  -6.165   0.047  0.00  0.00    -0.352 N 
ATOM     16  HN  UNK N   1       4.336  -5.979   0.009  1.00  0.00     0.166 HD
BRANCH  11  17
HETATM   17  C   UNK N   1       0.037  -4.282   0.216  0.00  0.00     0.048 A 
HETATM   18  C   UNK N   1       0.361  -2.922   0.262  0.00  0.00     0.047 A 
HETATM   19  C   UNK N   1      -0.667  -1.980   0.292  0.00  0.00     0.091 A 
HETATM   20  N   UNK N   1      -1.962  -2.389   0.273  0.00  0.00    -0.362 N 
HETATM   21  C   UNK N   1      -2.269  -3.710   0.231  0.00  0.00     0.180 A 
ATOM     22  HN  UNK N   1      -2.711  -1.697   0.290  1.00  0.00     0.165 HD
HETATM   23  N   UNK N   1      -1.280  -4.643   0.205  0.00  0.00    -0.352 N 
ATOM     24  HN  UNK N   1      -1.526  -5.632   0.177  1.00  0.00     0.166 HD
ENDBRANCH  11  17
ENDBRANCH   8  10
ENDBRANCH   3   8
BRANCH   1  25
HETATM   25  N   UNK N   1       5.612  -0.327   1.301  0.00  0.00    -0.323 N 
HETATM   26  C   UNK N   1       5.692   0.988   1.518  0.00  0.00     0.256 C 
HETATM   27  O   UNK N   1       6.155   1.356   2.585  0.00  0.00    -0.267 OA
HETATM   28  H   UNK N   1       5.715  -0.879   2.110  0.00  0.00     0.169 HD
BRANCH  26  29
HETATM   29  C   UNK N   1       5.328   1.991   0.528  0.00  0.00     0.033 A 
HETATM   30  C   UNK N   1       4.213   1.873  -0.315  0.00  0.00     0.017 A 
HETATM   31  C   UNK N   1       3.897   2.927  -1.186  0.00  0.00     0.002 A 
HETATM   32  C   UNK N   1       4.730   4.055  -1.252  0.00  0.00     0.016 A 
HETATM   33  C   UNK N   1       5.865   4.132  -0.430  0.00  0.00     0.048 A 
HETATM   34  C   UNK N   1       6.126   3.119   0.470  0.00  0.00     0.033 A 
BRANCH  33  35
HETATM   35  C   UNK N   1       6.871   5.229  -0.535  0.00  0.00     0.417 C 
HETATM   36  F   UNK N   1       6.485   6.179  -1.460  0.00  0.00    -0.166 F 
HETATM   37  F   UNK N   1       7.044   5.827   0.700  0.00  0.00    -0.166 F 
HETATM   38  F   UNK N   1       8.075   4.673  -0.936  0.00  0.00    -0.166 F 
ENDBRANCH  33  35
ENDBRANCH  26  29
ENDBRANCH   1  25
TORSDOF 6
