REMARK  12 active torsions:
REMARK  status: ('A' for Active; 'I' for Inactive)
REMARK    1  A    between atoms: C_1  and  C_2 
REMARK    2  A    between atoms: C_1  and  P_16 
REMARK    3  A    between atoms: C_2  and  C_3 
REMARK    4  A    between atoms: C_3  and  C_4 
REMARK    5  A    between atoms: C_4  and  C_5 
REMARK    6  A    between atoms: C_5  and  C_6 
REMARK    7  A    between atoms: C_6  and  C_7 
REMARK    8  A    between atoms: C_7  and  C_8 
REMARK    9  A    between atoms: C_8  and  C_9 
REMARK   10  A    between atoms: C_9  and  C_10 
REMARK   11  A    between atoms: P_16  and  O_14 
REMARK   12  A    between atoms: P_16  and  O_15 
ROOT
HETATM    1  C   UNK N   1       1.574   1.773  -0.231  0.00  0.00     0.001 C 
ENDROOT
BRANCH   1   2
HETATM    2  C   UNK N   1       2.274   1.421   1.072  0.00  0.00     0.012 C 
BRANCH   2   3
HETATM    3  C   UNK N   1       3.790   1.472   0.950  0.00  0.00     0.125 C 
BRANCH   3   4
HETATM    4  P   UNK N   1       4.428   0.251  -0.314  0.00  0.00     0.237 P 
HETATM    5  O   UNK N   1       3.695  -1.113  -0.177  0.00  0.00    -0.653 OA
BRANCH   4   6
HETATM    6  O   UNK N   1       6.118  -0.153  -0.229  0.00  0.00    -0.324 OA
HETATM    7  C   UNK N   1       6.471  -0.007   1.114  0.00  0.00     0.212 C 
ENDBRANCH   4   6
BRANCH   4   8
HETATM    8  O   UNK N   1       4.117   0.721  -1.956  0.00  0.00    -0.329 OA
HETATM    9  H   UNK N   1       4.258   1.003  -2.873  0.00  0.00     0.220 HD
ENDBRANCH   4   8
ENDBRANCH   3   4
ENDBRANCH   2   3
ENDBRANCH   1   2
BRANCH   1  10
HETATM   10  C   UNK N   1       0.670   0.629  -0.664  0.00  0.00     0.000 C 
BRANCH  10  11
HETATM   11  C   UNK N   1      -0.507   0.497   0.284  0.00  0.00     0.000 C 
BRANCH  11  12
HETATM   12  C   UNK N   1      -1.480  -0.540  -0.234  0.00  0.00     0.000 C 
BRANCH  12  13
HETATM   13  C   UNK N   1      -2.725  -0.497   0.625  0.00  0.00     0.000 C 
BRANCH  13  14
HETATM   14  C   UNK N   1      -3.867  -1.192  -0.082  0.00  0.00     0.000 C 
BRANCH  14  15
HETATM   15  C   UNK N   1      -5.158  -0.501   0.301  0.00  0.00    -0.000 C 
BRANCH  15  16
HETATM   16  C   UNK N   1      -6.329  -1.177  -0.378  0.00  0.00    -0.005 C 
HETATM   17  C   UNK N   1      -7.593  -0.399  -0.080  0.00  0.00     0.005 C 
ENDBRANCH  15  16
ENDBRANCH  14  15
ENDBRANCH  13  14
ENDBRANCH  12  13
ENDBRANCH  11  12
ENDBRANCH  10  11
ENDBRANCH   1  10
TORSDOF 12
