REMARK  5 active torsions:
REMARK  status: ('A' for Active; 'I' for Inactive)
REMARK    1  A    between atoms: C_8  and  O_1 
REMARK    2  A    between atoms: C_19  and  O_5 
REMARK    3  A    between atoms: C_6  and  C_11 
REMARK    4  A    between atoms: C_11  and  C_12 
REMARK    5  A    between atoms: C_13  and  C_12 
ROOT
HETATM    1  C   UNK N   1      -2.600  -1.736  -0.736  0.00  0.00     0.014 C 
HETATM    2  C   UNK N   1      -0.124  -1.317  -0.478  0.00  0.00     0.004 C 
HETATM    3  C   UNK N   1      -1.386  -1.979   0.149  0.00  0.00     0.009 C 
HETATM    4  C   UNK N   1      -1.235  -3.467   0.356  0.00  0.00    -0.022 C 
HETATM    5  C   UNK N   1      -0.047  -4.086   0.320  0.00  0.00     0.004 C 
HETATM    6  C   UNK N   1       1.203  -3.324   0.152  0.00  0.00    -0.055 C 
HETATM    7  C   UNK N   1       1.164  -1.803   0.240  0.00  0.00     0.052 C 
HETATM    8  C   UNK N   1       2.456  -1.174  -0.345  0.00  0.00     0.127 C 
HETATM    9  C   UNK N   1       3.672  -1.869   0.244  0.00  0.00     0.036 C 
HETATM   10  C   UNK N   1       3.691  -3.335  -0.182  0.00  0.00     0.030 C 
HETATM   11  C   UNK N   1       2.347  -4.003  -0.044  0.00  0.00    -0.019 C 
ENDROOT
BRANCH   2  12
HETATM   12  C   UNK N   1      -0.272   0.213  -0.468  0.00  0.00     0.009 C 
BRANCH  12  13
HETATM   13  C   UNK N   1      -0.237   0.780   0.953  0.00  0.00     0.033 C 
BRANCH  13  14
HETATM   14  C   UNK N   1      -0.475   2.278   0.982  0.00  0.00     0.134 C 
HETATM   15  O   UNK N   1       0.468   2.947   0.219  0.00  0.00    -0.316 OA
HETATM   16  C   UNK N   1       0.340   4.279  -0.002  0.00  0.00     0.261 C 
HETATM   17  O   UNK N   1       1.213   4.894  -0.589  0.00  0.00    -0.265 OA
HETATM   18  C   UNK N   1      -0.953   4.948   0.360  0.00  0.00     0.142 C 
HETATM   19  C   UNK N   1      -2.070   4.002  -0.086  0.00  0.00     0.130 C 
HETATM   20  C   UNK N   1      -1.916   2.602   0.534  0.00  0.00     0.065 C 
BRANCH  19  21
HETATM   21  O   UNK N   1      -3.312   4.532   0.257  0.00  0.00    -0.395 OA
HETATM   22  H   UNK N   1      -3.425   5.465   0.496  0.00  0.00     0.210 HD
ENDBRANCH  19  21
ENDBRANCH  13  14
ENDBRANCH  12  13
ENDBRANCH   2  12
BRANCH   8  23
HETATM   23  O   UNK N   1       2.532   0.188  -0.051  0.00  0.00    -0.395 OA
HETATM   24  H   UNK N   1       3.379   0.615   0.154  0.00  0.00     0.210 HD
ENDBRANCH   8  23
TORSDOF 5
