REMARK  13 active torsions:
REMARK  status: ('A' for Active; 'I' for Inactive)
REMARK    1  A    between atoms: N_3  and  C_25 
REMARK       I    between atoms: N_3  and  C_26 
REMARK    2  A    between atoms: C_4  and  O_6 
REMARK    3  A    between atoms: C_5  and  C_9 
REMARK    4  A    between atoms: C_8  and  C_21 
REMARK    5  A    between atoms: C_9  and  C_10 
REMARK    6  A    between atoms: C_12  and  C_13 
REMARK    7  A    between atoms: C_14  and  C_15 
REMARK    8  A    between atoms: C_15  and  C_16 
REMARK    9  A    between atoms: C_16  and  C_17 
REMARK   10  A    between atoms: C_21  and  C_22 
REMARK   11  A    between atoms: C_22  and  C_23 
REMARK   12  A    between atoms: C_23  and  C_24 
REMARK   13  A    between atoms: C_26  and  O_29 
ROOT
HETATM    1  O   UNK N   1       0.544   1.827   0.208  0.00  0.00    -0.279 OA
HETATM    2  C   UNK N   1      -1.662   1.671  -0.615  0.00  0.00     0.070 A 
HETATM    3  C   UNK N   1      -1.641   0.292  -0.427  0.00  0.00     0.088 A 
HETATM    4  C   UNK N   1      -0.467  -0.331   0.050  0.00  0.00     0.123 A 
HETATM    5  C   UNK N   1       0.614   0.516   0.410  0.00  0.00     0.305 A 
HETATM    6  C   UNK N   1      -0.528   2.416  -0.306  0.00  0.00     0.059 A 
HETATM    7  O   UNK N   1       1.617   0.063   0.932  0.00  0.00    -0.259 OA
ENDROOT
BRANCH   4   8
HETATM    8  C   UNK N   1      -0.397  -1.835   0.138  0.00  0.00     0.196 C 
HETATM    9  O   UNK N   1      -1.429  -2.458   0.341  0.00  0.00    -0.287 OA
BRANCH   8  10
HETATM   10  C   UNK N   1       0.867  -2.600  -0.179  0.00  0.00    -0.011 C 
HETATM   11  C   UNK N   1       0.962  -3.936  -0.137  0.00  0.00     0.011 C 
HETATM   12  C   UNK N   1       2.065  -1.910  -0.743  0.00  0.00     0.052 C 
BRANCH  11  13
HETATM   13  C   UNK N   1      -0.082  -4.889   0.275  0.00  0.00     0.003 C 
HETATM   14  C   UNK N   1       0.100  -6.214   0.151  0.00  0.00    -0.084 C 
HETATM   15  C   UNK N   1      -0.997  -7.137   0.551  0.00  0.00     0.043 C 
BRANCH  14  16
HETATM   16  C   UNK N   1       1.360  -6.801  -0.430  0.00  0.00     0.034 C 
BRANCH  16  17
HETATM   17  C   UNK N   1       2.562  -6.527   0.465  0.00  0.00     0.004 C 
BRANCH  17  18
HETATM   18  C   UNK N   1       3.845  -6.978  -0.210  0.00  0.00    -0.004 C 
HETATM   19  C   UNK N   1       3.974  -8.487  -0.147  0.00  0.00     0.005 C 
ENDBRANCH  17  18
ENDBRANCH  16  17
ENDBRANCH  14  16
ENDBRANCH  11  13
ENDBRANCH   8  10
ENDBRANCH   4   8
BRANCH   3  20
HETATM   20  O   UNK N   1      -2.727  -0.427  -0.762  0.00  0.00    -0.359 OA
HETATM   21  H   UNK N   1      -3.540  -0.023  -0.995  0.00  0.00     0.217 HD
ENDBRANCH   3  20
BRANCH   6  22
HETATM   22  C   UNK N   1      -0.482   3.861  -0.651  0.00  0.00     0.065 C 
BRANCH  22  23
HETATM   23  C   UNK N   1      -0.209   4.748   0.554  0.00  0.00     0.010 C 
BRANCH  23  24
HETATM   24  C   UNK N   1      -0.552   6.192   0.208  0.00  0.00     0.029 C 
BRANCH  24  25
HETATM   25  C   UNK N   1      -2.002   6.251  -0.124  0.00  0.00    -0.009 C 
HETATM   26  C   UNK N   1      -2.856   7.006   0.561  0.00  0.00     0.089 C 
BRANCH  26  27
HETATM   27  N   UNK N   1      -4.259   6.909   0.335  0.00  0.00    -0.313 N 
HETATM   28  C   UNK N   1      -4.895   5.747  -0.003  0.00  0.00     0.364 C 
HETATM   29  O   UNK N   1      -4.272   4.699  -0.090  0.00  0.00    -0.238 OA
HETATM   30  H   UNK N   1      -4.802   7.725   0.429  0.00  0.00     0.170 HD
BRANCH  28  31
HETATM   31  O   UNK N   1      -6.230   5.732  -0.222  0.00  0.00    -0.309 OA
HETATM   32  C   UNK N   1      -7.007   6.862  -0.135  0.00  0.00     0.215 C 
ENDBRANCH  28  31
ENDBRANCH  26  27
ENDBRANCH  24  25
ENDBRANCH  23  24
ENDBRANCH  22  23
ENDBRANCH   6  22
TORSDOF 13
