REMARK  2 active torsions:
REMARK  status: ('A' for Active; 'I' for Inactive)
REMARK    1  A    between atoms: N_1  and  C_7 
REMARK    2  A    between atoms: N_2  and  O_3 
ROOT
HETATM    1  N   UNK N   1       1.342  -1.490   0.717  0.00  0.00    -0.182 NA
HETATM    2  C   UNK N   1      -0.321   0.670  -0.379  0.00  0.00     0.099 C 
HETATM    3  C   UNK N   1      -0.915  -0.624   0.199  0.00  0.00     0.052 C 
HETATM    4  C   UNK N   1       1.009   0.917   0.343  0.00  0.00     0.052 C 
HETATM    5  C   UNK N   1       0.030  -1.823   0.114  0.00  0.00     0.034 C 
HETATM    6  C   UNK N   1       0.147  -2.293  -1.333  0.00  0.00     0.034 C 
HETATM    7  C   UNK N   1      -0.613  -2.943   0.912  0.00  0.00     0.034 C 
HETATM    8  C   UNK N   1       1.976  -0.257   0.199  0.00  0.00     0.034 C 
HETATM    9  C   UNK N   1       2.436  -0.396  -1.252  0.00  0.00     0.034 C 
HETATM   10  C   UNK N   1       3.198   0.072   1.037  0.00  0.00     0.034 C 
ENDROOT
BRANCH   2  11
HETATM   11  N   UNK N   1      -1.234   1.818  -0.232  0.00  0.00    -0.283 N 
HETATM   12  C   UNK N   1      -2.573   1.762  -0.091  0.00  0.00     0.227 A 
HETATM   13  O   UNK N   1      -3.214   0.722  -0.087  0.00  0.00    -0.273 OA
HETATM   14  C   UNK N   1      -3.212   3.108   0.025  0.00  0.00     0.112 A 
HETATM   15  C   UNK N   1      -1.998   4.062  -0.089  0.00  0.00     0.112 A 
HETATM   16  C   UNK N   1      -0.858   3.109  -0.259  0.00  0.00     0.227 A 
HETATM   17  O   UNK N   1       0.299   3.473  -0.407  0.00  0.00    -0.273 OA
ENDBRANCH   2  11
BRANCH   1  18
HETATM   18  O   UNK N   1       2.194  -2.543   0.582  0.00  0.00    -0.312 OA
HETATM   19  H   UNK N   1       1.848  -3.444   0.486  0.00  0.00     0.237 HD
ENDBRANCH   1  18
TORSDOF 2
