REMARK  2 active torsions:
REMARK  status: ('A' for Active; 'I' for Inactive)
REMARK    1  A    between atoms: O_7  and  C_6 
REMARK    2  A    between atoms: C_11  and  O_12 
ROOT
HETATM    1  O   UNK N   1      -3.341  -1.681  -0.000  0.00  0.00    -0.268 OA
HETATM    2  C   UNK N   1      -2.295  -1.051   0.000  0.00  0.00     0.248 A 
HETATM    3  N   UNK N   1      -1.083  -1.698  -0.000  0.00  0.00    -0.316 N 
HETATM    4  C   UNK N   1      -1.126  -3.162  -0.000  0.00  0.00     0.160 C 
HETATM    5  C   UNK N   1       0.111  -0.985  -0.000  0.00  0.00     0.084 A 
HETATM    6  C   UNK N   1       1.372  -1.667  -0.000  0.00  0.00     0.096 A 
HETATM    7  C   UNK N   1       2.550  -0.938  -0.000  0.00  0.00     0.042 A 
HETATM    8  C   UNK N   1       2.540   0.431  -0.000  0.00  0.00     0.040 A 
HETATM    9  C   UNK N   1       1.372   1.179   0.000  0.00  0.00     0.081 A 
HETATM   10  C   UNK N   1       0.088   0.474   0.000  0.00  0.00     0.033 A 
HETATM   11  C   UNK N   1      -1.212   1.090   0.000  0.00  0.00    -0.041 A 
HETATM   12  C   UNK N   1      -1.511   2.533   0.000  0.00  0.00     0.049 C 
HETATM   13  C   UNK N   1      -2.353   0.316   0.000  0.00  0.00     0.082 A 
ENDROOT
BRANCH   6  14
HETATM   14  O   UNK N   1       1.446  -3.023  -0.000  0.00  0.00    -0.354 OA
HETATM   15  C   UNK N   1       2.633  -3.726  -0.000  0.00  0.00     0.210 C 
ENDBRANCH   6  14
BRANCH   9  16
HETATM   16  O   UNK N   1       1.628   2.520   0.000  0.00  0.00    -0.355 OA
HETATM   17  C   UNK N   1       0.865   3.653  -0.000  0.00  0.00     0.210 C 
ENDBRANCH   9  16
TORSDOF 2
