REMARK  6 active torsions:
REMARK  status: ('A' for Active; 'I' for Inactive)
REMARK    1  A    between atoms: C_4  and  O_5 
REMARK    2  A    between atoms: C_7  and  O_8 
REMARK    3  A    between atoms: C_12  and  C_14 
REMARK    4  A    between atoms: C_16  and  O_17 
REMARK    5  A    between atoms: C_18  and  O_19 
REMARK    6  A    between atoms: C_20  and  O_22 
ROOT
HETATM    1  O   UNK N   1       2.309   6.103  -0.002  0.00  0.00    -0.287 OA
HETATM    2  C   UNK N   1       2.292   4.886   0.001  0.00  0.00     0.190 A 
HETATM    3  C   UNK N   1       3.486   4.131   0.003  0.00  0.00     0.081 A 
HETATM    4  C   UNK N   1       4.776   4.715  -0.001  0.00  0.00     0.085 A 
HETATM    5  C   UNK N   1       5.911   3.893  -0.002  0.00  0.00     0.074 A 
HETATM    6  C   UNK N   1       5.780   2.503   0.001  0.00  0.00     0.071 A 
HETATM    7  C   UNK N   1       3.376   2.722   0.007  0.00  0.00     0.095 A 
HETATM    8  C   UNK N   1       4.517   1.921   0.006  0.00  0.00     0.075 A 
HETATM    9  O   UNK N   1       2.189   2.138   0.009  0.00  0.00    -0.309 OA
HETATM   10  C   UNK N   1       1.048   2.818   0.005  0.00  0.00     0.090 A 
HETATM   11  C   UNK N   1       1.065   4.219   0.002  0.00  0.00     0.094 A 
ENDROOT
BRANCH  10  12
HETATM   12  C   UNK N   1      -0.207   2.054  -0.005  0.00  0.00     0.003 A 
HETATM   13  C   UNK N   1      -0.137   0.657   0.000  0.00  0.00     0.053 A 
HETATM   14  C   UNK N   1      -1.294  -0.114  -0.021  0.00  0.00     0.102 A 
HETATM   15  C   UNK N   1      -2.547   0.511  -0.049  0.00  0.00     0.132 A 
HETATM   16  C   UNK N   1      -2.629   1.912  -0.054  0.00  0.00     0.102 A 
HETATM   17  C   UNK N   1      -1.460   2.683  -0.032  0.00  0.00     0.053 A 
BRANCH  14  18
HETATM   18  O   UNK N   1      -1.198  -1.454  -0.015  0.00  0.00    -0.358 OA
HETATM   19  H   UNK N   1      -1.974  -1.980  -0.011  0.00  0.00     0.217 HD
ENDBRANCH  14  18
BRANCH  15  20
HETATM   20  O   UNK N   1      -3.667  -0.233  -0.072  0.00  0.00    -0.356 OA
HETATM   21  H   UNK N   1      -4.506   0.185  -0.088  0.00  0.00     0.218 HD
ENDBRANCH  15  20
BRANCH  16  22
HETATM   22  O   UNK N   1      -3.826   2.521  -0.081  0.00  0.00    -0.358 OA
HETATM   23  H   UNK N   1      -3.876   3.456  -0.101  0.00  0.00     0.217 HD
ENDBRANCH  16  22
ENDBRANCH  10  12
BRANCH   4  24
HETATM   24  O   UNK N   1       4.939   6.049  -0.005  0.00  0.00    -0.360 OA
HETATM   25  H   UNK N   1       5.801   6.415  -0.008  0.00  0.00     0.217 HD
ENDBRANCH   4  24
BRANCH   6  26
HETATM   26  O   UNK N   1       6.872   1.722  -0.001  0.00  0.00    -0.361 OA
HETATM   27  H   UNK N   1       6.781   0.789  -0.002  0.00  0.00     0.217 HD
ENDBRANCH   6  26
TORSDOF 6
