REMARK  4 active torsions:
REMARK  status: ('A' for Active; 'I' for Inactive)
REMARK    1  A    between atoms: C_10  and  C_11 
REMARK    2  A    between atoms: C_11  and  C_12 
REMARK    3  A    between atoms: C_12  and  N_13 
REMARK       I    between atoms: N_13  and  C_14 
REMARK    4  A    between atoms: C_14  and  C_16 
ROOT
HETATM    1  C   UNK N   1      -3.597  -2.442   0.006  0.00  0.00     0.068 C 
HETATM    2  C   UNK N   1      -3.067  -1.050   0.002  0.00  0.00     0.013 A 
HETATM    3  N   UNK N   1      -3.864   0.041  -0.004  0.00  0.00    -0.359 N 
HETATM    4  C   UNK N   1      -3.035   1.095  -0.005  0.00  0.00     0.043 A 
HETATM    5  C   UNK N   1      -3.412   2.436  -0.007  0.00  0.00     0.030 A 
HETATM    6  C   UNK N   1      -2.396   3.406  -0.005  0.00  0.00     0.002 A 
HETATM    7  C   UNK N   1      -1.043   3.015   0.000  0.00  0.00     0.001 A 
HETATM    8  C   UNK N   1      -0.698   1.653   0.003  0.00  0.00     0.014 A 
HETATM    9  C   UNK N   1      -1.717   0.700   0.000  0.00  0.00    -0.001 A 
HETATM   10  C   UNK N   1      -1.720  -0.695   0.005  0.00  0.00    -0.022 A 
HETATM   11  H   UNK N   1      -4.849   0.058  -0.008  0.00  0.00     0.166 HD
ENDROOT
BRANCH  10  12
HETATM   12  C   UNK N   1      -0.632  -1.754   0.019  0.00  0.00     0.061 C 
BRANCH  12  13
HETATM   13  C   UNK N   1       0.881  -1.513  -0.030  0.00  0.00     0.127 C 
BRANCH  13  14
HETATM   14  N   UNK N   1       1.271  -0.135   0.003  0.00  0.00    -0.356 N 
HETATM   15  C   UNK N   1       2.552   0.314   0.005  0.00  0.00     0.258 C 
HETATM   16  O   UNK N   1       2.742   1.520   0.016  0.00  0.00    -0.267 OA
HETATM   17  H   UNK N   1       0.554   0.538   0.026  0.00  0.00     0.162 HD
BRANCH  15  18
HETATM   18  C   UNK N   1       3.736  -0.587  -0.001  0.00  0.00     0.072 A 
HETATM   19  C   UNK N   1       5.061  -0.150  -0.001  0.00  0.00     0.025 A 
HETATM   20  C   UNK N   1       6.003  -1.217  -0.002  0.00  0.00     0.009 A 
HETATM   21  C   UNK N   1       5.424  -2.493  -0.003  0.00  0.00     0.050 A 
HETATM   22  S   UNK N   1       3.786  -2.246  -0.002  0.00  0.00    -0.097 SA
ENDBRANCH  15  18
ENDBRANCH  13  14
ENDBRANCH  12  13
ENDBRANCH  10  12
TORSDOF 4
