REMARK  3 active torsions:
REMARK  status: ('A' for Active; 'I' for Inactive)
REMARK    1  A    between atoms: S_1  and  O_2 
REMARK    2  A    between atoms: S_1  and  C_6 
REMARK    3  A    between atoms: C_9  and  N_15 
ROOT
HETATM    1  C   UNK N   1       0.918  -3.156   0.038  0.00  0.00     0.037 A 
HETATM    2  C   UNK N   1      -0.295  -2.462  -0.000  0.00  0.00     0.073 A 
HETATM    3  C   UNK N   1      -0.302  -1.064  -0.019  0.00  0.00     0.026 A 
HETATM    4  C   UNK N   1       0.902  -0.354  -0.011  0.00  0.00     0.016 A 
HETATM    5  C   UNK N   1       3.347  -0.346  -0.023  0.00  0.00     0.036 A 
HETATM    6  C   UNK N   1       4.551  -1.058  -0.011  0.00  0.00     0.030 A 
HETATM    7  C   UNK N   1       4.546  -2.455   0.035  0.00  0.00     0.003 A 
HETATM    8  C   UNK N   1       3.336  -3.153   0.061  0.00  0.00     0.012 A 
HETATM    9  C   UNK N   1       2.126  -2.455   0.045  0.00  0.00    -0.022 A 
HETATM   10  C   UNK N   1       2.124  -1.041   0.008  0.00  0.00     0.000 A 
ENDROOT
BRANCH   2  11
HETATM   11  S   UNK N   1      -1.829  -3.370  -0.136  0.00  0.00     0.129 S 
HETATM   12  O   UNK N   1      -1.871  -4.151  -1.458  0.00  0.00    -0.598 OA
HETATM   13  O   UNK N   1      -3.035  -2.435  -0.314  0.00  0.00    -0.598 OA
BRANCH  11  14
HETATM   14  O   UNK N   1      -2.291  -4.498   1.072  0.00  0.00    -0.292 OA
HETATM   15  H   UNK N   1      -2.974  -4.590   1.755  0.00  0.00     0.232 HD
ENDBRANCH  11  14
ENDBRANCH   2  11
BRANCH   5  16
HETATM   16  N   UNK N   1       3.377   1.064  -0.081  0.00  0.00    -0.398 N 
HETATM   17  H   UNK N   1       4.239   1.538  -0.121  0.00  0.00     0.156 HD
HETATM   18  H   UNK N   1       2.535   1.574  -0.081  0.00  0.00     0.156 HD
ENDBRANCH   5  16
TORSDOF 3
