REMARK  3 active torsions:
REMARK  status: ('A' for Active; 'I' for Inactive)
REMARK    1  A    between atoms: C_3  and  C_7 
REMARK       I    between atoms: N_9  and  C_18 
REMARK    2  A    between atoms: C_10  and  C_12 
REMARK       I    between atoms: C_18  and  N_19 
REMARK    3  A    between atoms: N_19  and  C_20 
ROOT
HETATM    1  C   UNK N   1       1.739  -1.086  -0.342  0.00  0.00    -0.028 A 
HETATM    2  C   UNK N   1       0.303  -1.092  -0.685  0.00  0.00     0.168 A 
HETATM    3  N   UNK N   1      -0.196   0.069  -0.002  0.00  0.00    -0.318 N 
HETATM    4  C   UNK N   1       0.883   0.865   0.584  0.00  0.00     0.146 A 
HETATM    5  C   UNK N   1       2.090   0.019   0.309  0.00  0.00     0.013 A 
HETATM    6  C   UNK N   1      -1.514   0.230   0.386  0.00  0.00     0.321 C 
HETATM    7  N   UNK N   1      -2.478  -0.770   0.214  0.00  0.00    -0.334 N 
HETATM    8  O   UNK N   1      -1.815   1.254   0.975  0.00  0.00    -0.247 OA
HETATM    9  C   UNK N   1      -2.123  -2.080  -0.292  0.00  0.00     0.155 C 
ENDROOT
BRANCH   4  10
HETATM   10  C   UNK N   1       1.012   2.334   0.245  0.00  0.00    -0.032 A 
HETATM   11  C   UNK N   1       0.113   3.016  -0.588  0.00  0.00     0.009 A 
HETATM   12  C   UNK N   1       0.219   4.407  -0.743  0.00  0.00     0.001 A 
HETATM   13  C   UNK N   1       1.213   5.121  -0.063  0.00  0.00     0.000 A 
HETATM   14  C   UNK N   1       2.115   4.446   0.759  0.00  0.00     0.001 A 
HETATM   15  C   UNK N   1       2.011   3.064   0.914  0.00  0.00     0.009 A 
ENDBRANCH   4  10
BRANCH   1  16
HETATM   16  C   UNK N   1       2.550  -2.327  -0.393  0.00  0.00     0.013 A 
HETATM   17  C   UNK N   1       1.878  -3.538  -0.632  0.00  0.00     0.057 A 
HETATM   18  C   UNK N   1       2.549  -4.757  -0.561  0.00  0.00     0.117 A 
HETATM   19  C   UNK N   1       3.912  -4.783  -0.263  0.00  0.00     0.045 A 
HETATM   20  F   UNK N   1       1.869  -5.915  -0.747  0.00  0.00    -0.206 F 
HETATM   21  C   UNK N   1       4.600  -3.586  -0.038  0.00  0.00     0.046 A 
HETATM   22  C   UNK N   1       3.926  -2.359  -0.090  0.00  0.00     0.127 A 
HETATM   23  F   UNK N   1       4.612  -1.219   0.166  0.00  0.00    -0.205 F 
ENDBRANCH   1  16
BRANCH   7  24
HETATM   24  C   UNK N   1      -3.812  -0.684   0.836  0.00  0.00     0.091 C 
HETATM   25  C   UNK N   1      -4.860  -1.581   0.143  0.00  0.00     0.044 C 
HETATM   26  C   UNK N   1      -5.796  -0.793  -0.777  0.00  0.00     0.115 C 
HETATM   27  N   UNK N   1      -5.121   0.391  -1.301  0.00  0.00    -0.421 N 
HETATM   28  C   UNK N   1      -4.903   1.360  -0.220  0.00  0.00     0.115 C 
HETATM   29  H   UNK N   1      -4.842   0.525  -2.273  0.00  0.00     0.153 HD
HETATM   30  C   UNK N   1      -4.384   0.718   1.074  0.00  0.00     0.044 C 
ENDBRANCH   7  24
TORSDOF 3
