REMARK  6 active torsions:
REMARK  status: ('A' for Active; 'I' for Inactive)
REMARK    1  A    between atoms: C_11  and  C_15 
REMARK       I    between atoms: C_11  and  N_18 
REMARK    2  A    between atoms: C_13  and  N_18 
REMARK    3  A    between atoms: C_14  and  O_23 
REMARK    4  A    between atoms: O_21  and  P_25 
REMARK    5  A    between atoms: O_22  and  P_25 
REMARK    6  A    between atoms: O_23  and  P_25 
ROOT
HETATM    1  C   UNK N   1      -3.385  -3.889   0.012  0.00  0.00     0.001 A 
HETATM    2  C   UNK N   1      -3.418  -2.502  -0.169  0.00  0.00     0.001 A 
HETATM    3  C   UNK N   1      -2.162  -4.546   0.181  0.00  0.00     0.012 A 
HETATM    4  C   UNK N   1      -2.227  -1.767  -0.178  0.00  0.00     0.012 A 
HETATM    5  C   UNK N   1       0.252  -4.467   0.332  0.00  0.00     0.050 A 
HETATM    6  C   UNK N   1       0.188  -1.693  -0.024  0.00  0.00     0.032 A 
HETATM    7  C   UNK N   1       1.459  -3.746   0.323  0.00  0.00     0.097 A 
HETATM    8  C   UNK N   1       1.426  -2.338   0.135  0.00  0.00     0.067 A 
HETATM    9  C   UNK N   1      -0.970  -3.817   0.169  0.00  0.00    -0.023 A 
HETATM   10  C   UNK N   1      -1.003  -2.419  -0.008  0.00  0.00    -0.025 A 
ENDROOT
BRANCH   8  11
HETATM   11  C   UNK N   1       2.676  -1.530   0.051  0.00  0.00     0.259 C 
HETATM   12  O   UNK N   1       2.604  -0.312  -0.051  0.00  0.00    -0.267 OA
HETATM   13  N   UNK N   1       3.883  -2.157   0.019  0.00  0.00    -0.323 N 
HETATM   14  H   UNK N   1       3.865  -3.139   0.087  0.00  0.00     0.169 HD
BRANCH  13  15
HETATM   15  C   UNK N   1       5.166  -1.559  -0.102  0.00  0.00     0.035 A 
HETATM   16  C   UNK N   1       6.271  -2.395  -0.296  0.00  0.00     0.031 A 
HETATM   17  C   UNK N   1       7.552  -1.856  -0.433  0.00  0.00     0.026 A 
HETATM   18  C   UNK N   1       7.737  -0.474  -0.371  0.00  0.00     0.034 A 
HETATM   19  C   UNK N   1       6.640   0.371  -0.172  0.00  0.00     0.026 A 
HETATM   20 Cl   UNK N   1       9.343   0.198  -0.543  0.00  0.00    -0.084 Cl
HETATM   21  C   UNK N   1       5.356  -0.169  -0.040  0.00  0.00     0.031 A 
ENDBRANCH  13  15
ENDBRANCH   8  11
BRANCH   7  22
HETATM   22  O   UNK N   1       2.666  -4.373   0.497  0.00  0.00    -0.254 OA
BRANCH  22  23
HETATM   23  P   UNK N   1       3.119  -6.058   0.400  0.00  0.00     0.396 P 
HETATM   24  O   UNK N   1       2.020  -6.173   1.491  0.00  0.00    -0.631 OA
BRANCH  23  25
HETATM   25  O   UNK N   1       2.571  -5.640  -1.196  0.00  0.00    -0.307 OA
HETATM   26  H   UNK N   1       2.621  -5.259  -2.087  0.00  0.00     0.222 HD
ENDBRANCH  23  25
BRANCH  23  27
HETATM   27  O   UNK N   1       1.951  -7.168  -0.241  0.00  0.00    -0.307 OA
HETATM   28  H   UNK N   1       1.087  -6.913  -0.600  0.00  0.00     0.222 HD
ENDBRANCH  23  27
ENDBRANCH  22  23
ENDBRANCH   7  22
TORSDOF 6
