REMARK  7 active torsions:
REMARK  status: ('A' for Active; 'I' for Inactive)
REMARK    1  A    between atoms: N_3  and  C_5 
REMARK    2  A    between atoms: C_14  and  N_11 
REMARK    3  A    between atoms: C_16  and  C_20 
REMARK    4  A    between atoms: C_17  and  O_18 
REMARK    5  A    between atoms: C_20  and  O_21 
REMARK    6  A    between atoms: O_21  and  P_22 
REMARK    7  A    between atoms: P_22  and  O_23 
ROOT
HETATM    1  O   UNK N   1      -3.030  -3.860   1.045  0.00  0.00    -0.307 OA
HETATM    2  P   UNK N   1      -2.876  -3.737  -0.678  0.00  0.00     0.390 P 
HETATM    3  O   UNK N   1      -1.508  -3.996   0.004  0.00  0.00    -0.632 OA
HETATM    4  H   UNK N   1      -3.133  -3.820   2.008  0.00  0.00     0.222 HD
ENDROOT
BRANCH   2   5
HETATM    5  O   UNK N   1      -1.871  -2.396  -1.293  0.00  0.00    -0.294 OA
BRANCH   5   6
HETATM    6  C   UNK N   1      -1.915  -1.177  -0.577  0.00  0.00     0.215 C 
BRANCH   6   7
HETATM    7  C   UNK N   1      -0.850  -1.041   0.536  0.00  0.00     0.177 C 
HETATM    8  O   UNK N   1      -0.667   0.333   0.808  0.00  0.00    -0.356 OA
HETATM    9  C   UNK N   1       0.149   0.765  -0.269  0.00  0.00     0.230 C 
HETATM   10  C   UNK N   1       1.117  -0.368  -0.597  0.00  0.00     0.088 C 
HETATM   11  C   UNK N   1       0.539  -1.535   0.158  0.00  0.00     0.153 C 
BRANCH   9  12
HETATM   12  N   UNK N   1       0.773   2.070  -0.013  0.00  0.00    -0.329 N 
HETATM   13  C   UNK N   1       2.074   2.429  -0.019  0.00  0.00     0.046 A 
HETATM   14  C   UNK N   1       2.186   3.779   0.152  0.00  0.00    -0.005 A 
HETATM   15  C   UNK N   1       3.199   1.624  -0.199  0.00  0.00     0.033 A 
HETATM   16  C   UNK N   1       3.417   4.428   0.136  0.00  0.00     0.049 A 
HETATM   17  C   UNK N   1       0.918   4.299   0.292  0.00  0.00     0.031 A 
HETATM   18  C   UNK N   1       4.580   3.646  -0.050  0.00  0.00     0.103 A 
HETATM   19  C   UNK N   1       4.460   2.243  -0.205  0.00  0.00     0.038 A 
HETATM   20  C   UNK N   1       0.058   3.206   0.183  0.00  0.00     0.095 A 
BRANCH  18  21
HETATM   21  N   UNK N   1       5.861   4.261  -0.095  0.00  0.00    -0.116 N 
HETATM   22  O   UNK N   1       5.964   5.449  -0.034  0.00  0.00    -0.532 OA
HETATM   23  O   UNK N   1       6.944   3.524  -0.228  0.00  0.00    -0.532 OA
ENDBRANCH  18  21
ENDBRANCH   9  12
BRANCH  11  24
HETATM   24  O   UNK N   1       1.291  -1.709   1.322  0.00  0.00    -0.393 OA
HETATM   25  H   UNK N   1       1.448  -2.222   2.131  0.00  0.00     0.210 HD
ENDBRANCH  11  24
ENDBRANCH   6   7
ENDBRANCH   5   6
ENDBRANCH   2   5
BRANCH   2  26
HETATM   26  O   UNK N   1      -3.923  -2.512  -0.008  0.00  0.00    -0.307 OA
HETATM   27  H   UNK N   1      -3.625  -1.668   0.364  0.00  0.00     0.222 HD
ENDBRANCH   2  26
TORSDOF 7
