REMARK  4 active torsions:
REMARK  status: ('A' for Active; 'I' for Inactive)
REMARK       I    between atoms: N_1  and  C_2 
REMARK    1  A    between atoms: C_9  and  C_10 
REMARK    2  A    between atoms: C_16  and  O_17 
REMARK    3  A    between atoms: O_17  and  C_18 
REMARK    4  A    between atoms: C_18  and  C_19 
ROOT
HETATM    1  N   UNK N   1       3.220   4.231  -0.170  0.00  0.00    -0.234 N 
HETATM    2  C   UNK N   1       2.079   3.408  -0.096  0.00  0.00     0.679 A 
HETATM    3  N   UNK N   1       2.223   2.039  -0.043  0.00  0.00    -0.168 N 
ATOM      4  HN  UNK N   1       3.156   1.627  -0.074  1.00  0.00     0.186 HD
HETATM    5  N   UNK N   1       0.831   3.978  -0.061  0.00  0.00    -0.174 N 
ATOM      6  HN  UNK N   1       0.714   4.990  -0.099  1.00  0.00     0.186 HD
HETATM    7  C   UNK N   1      -0.242   3.155   0.025  0.00  0.00     0.153 A 
HETATM    8  N   UNK N   1      -1.536   3.503   0.089  0.00  0.00    -0.329 N 
HETATM    9  C   UNK N   1      -2.180   2.304   0.172  0.00  0.00     0.086 A 
HETATM   10  C   UNK N   1      -0.118   1.819   0.082  0.00  0.00     0.131 A 
HETATM   11  N   UNK N   1      -1.324   1.248   0.179  0.00  0.00    -0.339 N 
ATOM     12  HN  UNK N   1      -1.548   0.255   0.243  1.00  0.00     0.167 HD
HETATM   13  C   UNK N   1       1.125   1.225   0.049  0.00  0.00     0.188 A 
HETATM   14  H   UNK N   1       4.117   3.827  -0.222  0.00  0.00     0.174 HD
HETATM   15  H   UNK N   1       3.121   5.210  -0.170  0.00  0.00     0.174 HD
HETATM   16  H   UNK N   1      -1.927   4.406   0.078  0.00  0.00     0.168 HD
ENDROOT
BRANCH  13  17
HETATM   17  O   UNK N   1       1.216  -0.116   0.125  0.00  0.00    -0.333 OA
BRANCH  17  18
HETATM   18  C   UNK N   1       2.364  -0.849  -0.046  0.00  0.00     0.182 C 
BRANCH  18  19
HETATM   19  C   UNK N   1       2.047  -2.300   0.299  0.00  0.00     0.010 C 
HETATM   20  C   UNK N   1       3.198  -3.221  -0.092  0.00  0.00     0.007 C 
HETATM   21  C   UNK N   1       2.870  -4.661   0.309  0.00  0.00     0.000 C 
HETATM   22  C   UNK N   1       1.561  -5.120  -0.335  0.00  0.00     0.000 C 
HETATM   23  C   UNK N   1       0.421  -4.184   0.050  0.00  0.00     0.000 C 
HETATM   24  C   UNK N   1       0.758  -2.765  -0.387  0.00  0.00     0.007 C 
ENDBRANCH  18  19
ENDBRANCH  17  18
ENDBRANCH  13  17
BRANCH   9  25
HETATM   25  C   UNK N   1      -3.664   2.157   0.350  0.00  0.00     0.045 C 
HETATM   26  C   UNK N   1      -4.429   3.274  -0.331  0.00  0.00     0.017 C 
HETATM   27  C   UNK N   1      -4.157   0.814  -0.165  0.00  0.00     0.017 C 
ENDBRANCH   9  25
TORSDOF 4
