REMARK  7 active torsions:
REMARK  status: ('A' for Active; 'I' for Inactive)
REMARK    1  A    between atoms: C_3  and  C_7 
REMARK       I    between atoms: N_10  and  C_19 
REMARK    2  A    between atoms: C_11  and  C_13 
REMARK    3  A    between atoms: C_11  and  C_25 
REMARK       I    between atoms: C_19  and  N_20 
REMARK    4  A    between atoms: N_20  and  C_21 
REMARK    5  A    between atoms: C_25  and  C_26 
REMARK    6  A    between atoms: C_26  and  C_28 
REMARK    7  A    between atoms: C_28  and  N_29 
ROOT
HETATM    1  C   UNK N   1       2.519  -0.165   0.499  0.00  0.00     0.042 C 
HETATM    2  N   UNK N   1       2.189  -1.102  -0.291  0.00  0.00    -0.297 N 
ATOM      3  HN  UNK N   1       2.846  -1.715  -0.774  1.00  0.00     0.187 HD
HETATM    4  N   UNK N   1       0.840  -1.173  -0.403  0.00  0.00    -0.228 N 
HETATM    5  C   UNK N   1       0.230   0.078   0.069  0.00  0.00     0.091 C 
HETATM    6  C   UNK N   1       1.283   0.463   1.146  0.00  0.00     0.098 C 
HETATM    7  C   UNK N   1       0.241  -2.373  -0.686  0.00  0.00     0.338 C 
HETATM    8  N   UNK N   1      -1.100  -2.532  -0.600  0.00  0.00    -0.342 N 
HETATM    9  O   UNK N   1       0.943  -3.336  -0.971  0.00  0.00    -0.245 OA
HETATM   10  H   UNK N   1      -1.662  -1.751  -0.390  0.00  0.00     0.164 HD
ENDROOT
BRANCH   5  11
HETATM   11  C   UNK N   1      -1.263   0.004   0.383  0.00  0.00    -0.028 A 
HETATM   12  C   UNK N   1      -1.754  -0.450   1.613  0.00  0.00     0.010 A 
HETATM   13  C   UNK N   1      -3.138  -0.577   1.808  0.00  0.00     0.001 A 
HETATM   14  C   UNK N   1      -4.035  -0.268   0.777  0.00  0.00     0.000 A 
HETATM   15  C   UNK N   1      -3.555   0.166  -0.456  0.00  0.00     0.001 A 
HETATM   16  C   UNK N   1      -2.184   0.290  -0.652  0.00  0.00     0.010 A 
ENDBRANCH   5  11
BRANCH   5  17
HETATM   17  C   UNK N   1       0.414   1.245  -0.941  0.00  0.00     0.040 C 
BRANCH  17  18
HETATM   18  C   UNK N   1       0.115   2.583  -0.231  0.00  0.00     0.022 C 
BRANCH  18  19
HETATM   19  C   UNK N   1      -0.537   3.594  -1.137  0.00  0.00     0.111 C 
BRANCH  19  20
HETATM   20  N   UNK N   1       0.337   4.744  -1.265  0.00  0.00    -0.430 N 
HETATM   21  H   UNK N   1       1.345   4.616  -1.355  0.00  0.00     0.149 HD
HETATM   22  H   UNK N   1      -0.058   5.685  -1.265  0.00  0.00     0.149 HD
ENDBRANCH  19  20
ENDBRANCH  18  19
ENDBRANCH  17  18
ENDBRANCH   5  17
BRANCH   1  23
HETATM   23  C   UNK N   1       3.882   0.406   0.422  0.00  0.00     0.029 A 
HETATM   24  C   UNK N   1       4.950  -0.416   0.031  0.00  0.00     0.058 A 
HETATM   25  C   UNK N   1       6.232   0.114  -0.134  0.00  0.00     0.117 A 
HETATM   26  C   UNK N   1       6.451   1.479   0.055  0.00  0.00     0.045 A 
HETATM   27  F   UNK N   1       7.260  -0.696  -0.483  0.00  0.00    -0.206 F 
HETATM   28  C   UNK N   1       5.391   2.312   0.422  0.00  0.00     0.046 A 
HETATM   29  C   UNK N   1       4.111   1.783   0.617  0.00  0.00     0.128 A 
HETATM   30  F   UNK N   1       3.091   2.625   0.913  0.00  0.00    -0.205 F 
ENDBRANCH   1  23
BRANCH   8  31
HETATM   31  C   UNK N   1      -1.732  -3.811  -0.807  0.00  0.00     0.120 C 
HETATM   32  C   UNK N   1      -3.192  -3.722  -0.420  0.00  0.00     0.026 C 
ENDBRANCH   8  31
TORSDOF 7
