REMARK  9 active torsions:
REMARK  status: ('A' for Active; 'I' for Inactive)
REMARK    1  A    between atoms: C_2  and  C_20 
REMARK    2  A    between atoms: C_7  and  C_8 
REMARK       I    between atoms: C_8  and  N_10 
REMARK    3  A    between atoms: C_11  and  N_10 
REMARK    4  A    between atoms: C_11  and  C_12 
REMARK    5  A    between atoms: C_11  and  C_13 
REMARK    6  A    between atoms: C_12  and  C_15 
REMARK    7  A    between atoms: C_15  and  O_17 
REMARK    8  A    between atoms: C_23  and  C_24 
REMARK    9  A    between atoms: C_24  and  O_25 
ROOT
HETATM    1  C   UNK N   1      -0.363   0.121  -0.193  0.00  0.00     0.032 A 
HETATM    2  C   UNK N   1      -1.381   0.991   0.125  0.00  0.00    -0.009 A 
HETATM    3  C   UNK N   1      -1.038   2.338   0.321  0.00  0.00     0.100 A 
HETATM    4  N   UNK N   1       0.284   2.710   0.241  0.00  0.00    -0.373 N 
ATOM      5  HN  UNK N   1       0.532   3.685   0.410  1.00  0.00     0.164 HD
HETATM    6  C   UNK N   1       1.286   1.813  -0.061  0.00  0.00     0.104 A 
HETATM    7  C   UNK N   1       0.953   0.467  -0.302  0.00  0.00     0.048 A 
ENDROOT
BRANCH   7   8
HETATM    8  C   UNK N   1       1.832  -0.629  -0.811  0.00  0.00     0.253 C 
HETATM    9  O   UNK N   1       1.270  -1.571  -1.365  0.00  0.00    -0.268 OA
HETATM   10  N   UNK N   1       3.174  -0.697  -0.727  0.00  0.00    -0.346 N 
HETATM   11  H   UNK N   1       3.597  -1.345  -1.336  0.00  0.00     0.163 HD
BRANCH  10  12
HETATM   12  C   UNK N   1       4.084   0.031   0.116  0.00  0.00     0.156 C 
BRANCH  12  13
HETATM   13  C   UNK N   1       4.987   0.871  -0.790  0.00  0.00     0.142 C 
BRANCH  13  14
HETATM   14  C   UNK N   1       6.260   1.325  -0.144  0.00  0.00     0.141 C 
HETATM   15  O   UNK N   1       6.415   2.499   0.143  0.00  0.00    -0.650 OA
BRANCH  14  16
HETATM   16  O   UNK N   1       7.257   0.444   0.070  0.00  0.00    -0.776 OA
HETATM   17  H   UNK N   1       7.073  -0.463   0.219  0.00  0.00     0.167 HD
ENDBRANCH  14  16
ENDBRANCH  13  14
ENDBRANCH  12  13
BRANCH  12  18
HETATM   18  C   UNK N   1       4.885  -0.995   0.887  0.00  0.00     0.256 C 
HETATM   19  O   UNK N   1       4.722  -2.197   0.720  0.00  0.00    -0.305 OA
ENDBRANCH  12  18
ENDBRANCH  10  12
ENDBRANCH   7   8
BRANCH   2  20
HETATM   20  C   UNK N   1      -2.731   0.368   0.177  0.00  0.00    -0.025 A 
HETATM   21  C   UNK N   1      -3.953   1.064   0.198  0.00  0.00     0.013 A 
HETATM   22  C   UNK N   1      -5.165   0.333   0.157  0.00  0.00     0.019 A 
HETATM   23  C   UNK N   1      -5.148  -1.082   0.111  0.00  0.00     0.037 A 
HETATM   24  C   UNK N   1      -3.936  -1.748   0.123  0.00  0.00     0.019 A 
HETATM   25  C   UNK N   1      -2.761  -1.038   0.147  0.00  0.00     0.013 A 
BRANCH  23  26
HETATM   26  C   UNK N   1      -6.370  -1.902   0.033  0.00  0.00     0.176 C 
HETATM   27  O   UNK N   1      -7.469  -1.378  -0.020  0.00  0.00    -0.646 OA
BRANCH  26  28
HETATM   28  O   UNK N   1      -6.271  -3.249  -0.001  0.00  0.00    -0.773 OA
HETATM   29  H   UNK N   1      -7.046  -3.775  -0.024  0.00  0.00     0.167 HD
ENDBRANCH  26  28
ENDBRANCH  23  26
ENDBRANCH   2  20
TORSDOF 9
