REMARK  5 active torsions:
REMARK  status: ('A' for Active; 'I' for Inactive)
REMARK    1  A    between atoms: C_1  and  N_18 
REMARK    2  A    between atoms: C_2  and  C_17 
REMARK    3  A    between atoms: C_7  and  N_20 
REMARK    4  A    between atoms: C_10  and  O_24 
REMARK    5  A    between atoms: C_17  and  O_23 
ROOT
HETATM    1  N   UNK N   1      -1.645  -0.891  -0.000  0.00  0.00    -0.299 N 
ATOM      2  HN  UNK N   1      -2.550  -0.421  -0.000  1.00  0.00     0.187 HD
HETATM    3  N   UNK N   1      -0.621  -0.188   0.000  0.00  0.00    -0.300 N 
ATOM      4  HN  UNK N   1       0.290  -0.646   0.000  1.00  0.00     0.187 HD
ENDROOT
BRANCH   3   5
HETATM    5  C   UNK N   1      -0.675   1.232   0.000  0.00  0.00     0.059 A 
HETATM    6  C   UNK N   1      -1.903   1.912  -0.000  0.00  0.00     0.034 A 
HETATM    7  C   UNK N   1      -1.939   3.310  -0.000  0.00  0.00     0.040 A 
HETATM    8  C   UNK N   1      -0.752   4.049  -0.000  0.00  0.00     0.076 A 
HETATM    9  C   UNK N   1       0.485   3.387   0.000  0.00  0.00     0.009 A 
HETATM   10  C   UNK N   1       1.686   4.111   0.000  0.00  0.00     0.015 A 
HETATM   11  C   UNK N   1       0.523   1.972   0.000  0.00  0.00     0.005 A 
HETATM   12  C   UNK N   1       2.914   3.443   0.000  0.00  0.00     0.001 A 
HETATM   13  C   UNK N   1       2.952   2.049   0.000  0.00  0.00     0.001 A 
HETATM   14  C   UNK N   1       1.764   1.319   0.000  0.00  0.00     0.014 A 
BRANCH   8  15
HETATM   15  O   UNK N   1      -0.809   5.394  -0.000  0.00  0.00    -0.360 OA
HETATM   16  H   UNK N   1      -0.017   5.896  -0.000  0.00  0.00     0.217 HD
ENDBRANCH   8  15
ENDBRANCH   3   5
BRANCH   1  17
HETATM   17  C   UNK N   1      -1.630  -2.320  -0.000  0.00  0.00     0.065 A 
HETATM   18  C   UNK N   1      -0.458  -3.180  -0.000  0.00  0.00     0.065 A 
HETATM   19  C   UNK N   1      -0.672  -4.572   0.000  0.00  0.00     0.021 A 
HETATM   20  C   UNK N   1      -1.944  -5.130   0.000  0.00  0.00     0.001 A 
HETATM   21  C   UNK N   1      -3.057  -4.305   0.000  0.00  0.00     0.002 A 
HETATM   22  C   UNK N   1      -2.897  -2.923  -0.000  0.00  0.00     0.032 A 
BRANCH  18  23
HETATM   23  C   UNK N   1       0.996  -2.785  -0.000  0.00  0.00     0.178 C 
HETATM   24  O   UNK N   1       1.848  -3.661   0.000  0.00  0.00    -0.646 OA
BRANCH  23  25
HETATM   25  O   UNK N   1       1.414  -1.516  -0.000  0.00  0.00    -0.773 OA
HETATM   26  H   UNK N   1       2.331  -1.325  -0.000  0.00  0.00     0.167 HD
ENDBRANCH  23  25
ENDBRANCH  18  23
ENDBRANCH   1  17
TORSDOF 5
