REMARK  4 active torsions:
REMARK  status: ('A' for Active; 'I' for Inactive)
REMARK    1  A    between atoms: C_2  and  N_1 
REMARK    2  A    between atoms: C_2  and  C_3 
REMARK    3  A    between atoms: C_2  and  C_4 
REMARK    4  A    between atoms: C_3  and  C_7 
REMARK       I    between atoms: C_4  and  N_6 
ROOT
HETATM    1  C   UNK N   1      -0.198   0.379   0.188  0.00  0.00    -0.045 A 
HETATM    2  C   UNK N   1      -1.306   1.241   0.145  0.00  0.00     0.008 A 
HETATM    3  C   UNK N   1      -1.126   2.622   0.012  0.00  0.00     0.001 A 
HETATM    4  C   UNK N   1       0.160   3.159  -0.080  0.00  0.00     0.012 A 
HETATM    5  C   UNK N   1       1.274   2.317  -0.039  0.00  0.00    -0.025 A 
HETATM    6  C   UNK N   1       2.561   2.855  -0.132  0.00  0.00     0.012 A 
HETATM    7  C   UNK N   1       3.678   2.014  -0.092  0.00  0.00     0.001 A 
HETATM    8  C   UNK N   1       3.513   0.633   0.041  0.00  0.00     0.001 A 
HETATM    9  C   UNK N   1       2.231   0.088   0.136  0.00  0.00     0.013 A 
HETATM   10  C   UNK N   1       1.100   0.920   0.097  0.00  0.00    -0.020 A 
ENDROOT
BRANCH   1  11
HETATM   11  C   UNK N   1      -0.362  -1.112   0.348  0.00  0.00     0.073 C 
BRANCH  11  12
HETATM   12  C   UNK N   1      -1.687  -1.743  -0.087  0.00  0.00     0.171 C 
BRANCH  12  13
HETATM   13  N   UNK N   1      -2.748  -1.342   0.824  0.00  0.00    -0.418 N 
HETATM   14  H   UNK N   1      -2.877  -0.557   1.462  0.00  0.00     0.150 HD
HETATM   15  H   UNK N   1      -3.537  -1.988   0.824  0.00  0.00     0.150 HD
ENDBRANCH  12  13
BRANCH  12  16
HETATM   16  C   UNK N   1      -1.574  -3.250  -0.087  0.00  0.00     0.237 C 
HETATM   17  O   UNK N   1      -2.535  -3.928  -0.406  0.00  0.00    -0.271 OA
HETATM   18  N   UNK N   1      -0.415  -3.861   0.249  0.00  0.00    -0.368 N 
HETATM   19  H   UNK N   1      -0.379  -4.813   0.494  0.00  0.00     0.159 HD
HETATM   20  H   UNK N   1       0.418  -3.336   0.249  0.00  0.00     0.159 HD
ENDBRANCH  12  16
ENDBRANCH  11  12
ENDBRANCH   1  11
TORSDOF 4
