REMARK  2 active torsions:
REMARK  status: ('A' for Active; 'I' for Inactive)
REMARK    1  A    between atoms: S_1  and  O_4 
REMARK    2  A    between atoms: S_1  and  C_6 
ROOT
HETATM    1  C   UNK N   1      -0.034  -1.169   0.125  0.00  0.00     0.037 A 
HETATM    2  C   UNK N   1      -1.296  -0.572   0.224  0.00  0.00     0.073 A 
HETATM    3  C   UNK N   1      -1.406   0.827   0.271  0.00  0.00     0.026 A 
HETATM    4  C   UNK N   1      -0.258   1.626   0.192  0.00  0.00     0.014 A 
HETATM    5  C   UNK N   1       2.154   1.816  -0.002  0.00  0.00     0.012 A 
HETATM    6  C   UNK N   1       3.409   1.208  -0.111  0.00  0.00     0.001 A 
HETATM    7  C   UNK N   1       3.516  -0.187  -0.137  0.00  0.00     0.001 A 
HETATM    8  C   UNK N   1       2.369  -0.981  -0.057  0.00  0.00     0.012 A 
HETATM    9  C   UNK N   1       1.113  -0.380   0.050  0.00  0.00    -0.025 A 
HETATM   10  C   UNK N   1       1.001   1.028   0.079  0.00  0.00    -0.026 A 
ENDROOT
BRANCH   2  11
HETATM   11  S   UNK N   1      -2.748  -1.622   0.343  0.00  0.00     0.129 S 
HETATM   12  O   UNK N   1      -4.153  -1.088   0.029  0.00  0.00    -0.598 OA
HETATM   13  O   UNK N   1      -2.676  -3.034  -0.258  0.00  0.00    -0.598 OA
BRANCH  11  14
HETATM   14  O   UNK N   1      -2.564  -1.218  -1.320  0.00  0.00    -0.292 OA
HETATM   15  H   UNK N   1      -2.315  -1.194  -2.257  0.00  0.00     0.232 HD
ENDBRANCH  11  14
ENDBRANCH   2  11
TORSDOF 2
