REMARK  4 active torsions:
REMARK  status: ('A' for Active; 'I' for Inactive)
REMARK    1  A    between atoms: C_1  and  N_2 
REMARK       I    between atoms: N_2  and  C_3 
REMARK       I    between atoms: C_3  and  N_4 
REMARK    2  A    between atoms: N_4  and  C_5 
REMARK    3  A    between atoms: C_5  and  C_6 
REMARK    4  A    between atoms: C_6  and  O_7 
ROOT
HETATM    1  N   UNK N   1      -0.198  -0.339   0.068  0.00  0.00    -0.339 N 
HETATM    2  C   UNK N   1       0.840   0.532   0.199  0.00  0.00     0.316 C 
HETATM    3  N   UNK N   1       2.118   0.108   0.059  0.00  0.00    -0.333 N 
HETATM    4  O   UNK N   1       0.632   1.706   0.466  0.00  0.00    -0.247 OA
HETATM    5  H   UNK N   1      -0.003  -1.263  -0.211  0.00  0.00     0.164 HD
HETATM    6  H   UNK N   1       2.845   0.767   0.129  0.00  0.00     0.164 HD
ENDROOT
BRANCH   1   7
HETATM    7  C   UNK N   1      -1.575   0.032   0.319  0.00  0.00     0.086 C 
HETATM    8  C   UNK N   1      -2.488  -1.166   0.070  0.00  0.00     0.025 C 
HETATM    9  C   UNK N   1      -3.932  -0.802   0.412  0.00  0.00     0.002 C 
HETATM   10  C   UNK N   1      -4.391   0.409  -0.399  0.00  0.00     0.000 C 
HETATM   11  C   UNK N   1      -3.453   1.593  -0.175  0.00  0.00     0.002 C 
HETATM   12  C   UNK N   1      -2.027   1.204  -0.554  0.00  0.00     0.025 C 
ENDBRANCH   1   7
BRANCH   3  13
HETATM   13  C   UNK N   1       2.456  -1.274  -0.187  0.00  0.00     0.234 C 
BRANCH  13  14
HETATM   14  C   UNK N   1       3.940  -1.471  -0.120  0.00  0.00     0.158 C 
HETATM   15  O   UNK N   1       4.403  -2.595  -0.221  0.00  0.00    -0.649 OA
BRANCH  14  16
HETATM   16  O   UNK N   1       4.768  -0.423   0.062  0.00  0.00    -0.775 OA
HETATM   17  H   UNK N   1       5.687  -0.557   0.188  0.00  0.00     0.167 HD
ENDBRANCH  14  16
ENDBRANCH  13  14
ENDBRANCH   3  13
TORSDOF 4
