REMARK  8 active torsions:
REMARK  status: ('A' for Active; 'I' for Inactive)
REMARK    1  A    between atoms: C_1  and  N_2 
REMARK       I    between atoms: N_2  and  C_3 
REMARK       I    between atoms: C_3  and  N_4 
REMARK    2  A    between atoms: N_4  and  C_5 
REMARK    3  A    between atoms: C_5  and  C_6 
REMARK    4  A    between atoms: C_6  and  C_7 
REMARK    5  A    between atoms: C_7  and  C_8 
REMARK    6  A    between atoms: C_8  and  C_9 
REMARK    7  A    between atoms: C_9  and  C_11 
REMARK    8  A    between atoms: C_11  and  O_12 
ROOT
HETATM    1  N   UNK N   1      -2.462  -0.914   0.103  0.00  0.00    -0.339 N 
HETATM    2  C   UNK N   1      -1.188  -0.448   0.100  0.00  0.00     0.316 C 
HETATM    3  N   UNK N   1      -0.188  -1.240   0.550  0.00  0.00    -0.343 N 
HETATM    4  O   UNK N   1      -0.947   0.693  -0.276  0.00  0.00    -0.247 OA
HETATM    5  H   UNK N   1      -2.625  -1.833   0.415  0.00  0.00     0.164 HD
HETATM    6  H   UNK N   1      -0.376  -2.181   0.772  0.00  0.00     0.164 HD
ENDROOT
BRANCH   3   7
HETATM    7  C   UNK N   1       1.146  -0.724   0.709  0.00  0.00     0.124 C 
BRANCH   7   8
HETATM    8  C   UNK N   1       2.064  -1.213  -0.396  0.00  0.00     0.020 C 
BRANCH   8   9
HETATM    9  C   UNK N   1       2.955  -0.076  -0.886  0.00  0.00     0.002 C 
BRANCH   9  10
HETATM   10  C   UNK N   1       3.688   0.600   0.268  0.00  0.00     0.010 C 
BRANCH  10  11
HETATM   11  C   UNK N   1       5.152   0.832  -0.074  0.00  0.00     0.110 C 
BRANCH  11  12
HETATM   12  C   UNK N   1       5.983  -0.415   0.030  0.00  0.00     0.139 C 
HETATM   13  O   UNK N   1       5.478  -1.488   0.327  0.00  0.00    -0.650 OA
BRANCH  12  14
HETATM   14  O   UNK N   1       7.306  -0.346  -0.201  0.00  0.00    -0.776 OA
HETATM   15  H   UNK N   1       7.809  -1.120  -0.362  0.00  0.00     0.167 HD
ENDBRANCH  12  14
ENDBRANCH  11  12
ENDBRANCH  10  11
ENDBRANCH   9  10
ENDBRANCH   8   9
ENDBRANCH   7   8
ENDBRANCH   3   7
BRANCH   1  16
HETATM   16  C   UNK N   1      -3.593  -0.122  -0.330  0.00  0.00     0.086 C 
HETATM   17  C   UNK N   1      -4.874  -0.926  -0.111  0.00  0.00     0.025 C 
HETATM   18  C   UNK N   1      -6.100  -0.112  -0.524  0.00  0.00     0.002 C 
HETATM   19  C   UNK N   1      -6.154   1.207   0.244  0.00  0.00     0.000 C 
HETATM   20  C   UNK N   1      -4.877   2.004   0.004  0.00  0.00     0.002 C 
HETATM   21  C   UNK N   1      -3.676   1.188   0.463  0.00  0.00     0.025 C 
ENDBRANCH   1  16
TORSDOF 8
