REMARK  4 active torsions:
REMARK  status: ('A' for Active; 'I' for Inactive)
REMARK    1  A    between atoms: C_2  and  C_11 
REMARK    2  A    between atoms: C_7  and  C_14 
REMARK    3  A    between atoms: C_11  and  O_13 
REMARK    4  A    between atoms: C_14  and  O_16 
ROOT
HETATM    1  C   UNK N   1      -1.100  -1.486  -0.000  0.00  0.00     0.030 A 
HETATM    2  C   UNK N   1      -2.364  -0.878  -0.000  0.00  0.00     0.038 A 
HETATM    3  C   UNK N   1      -2.463   0.521  -0.000  0.00  0.00     0.019 A 
HETATM    4  C   UNK N   1      -1.310   1.310  -0.000  0.00  0.00     0.013 A 
HETATM    5  C   UNK N   1      -0.053   0.704  -0.000  0.00  0.00    -0.025 A 
HETATM    6  C   UNK N   1       1.100   1.485  -0.000  0.00  0.00     0.030 A 
HETATM    7  C   UNK N   1       2.364   0.878  -0.000  0.00  0.00     0.038 A 
HETATM    8  C   UNK N   1       2.463  -0.521  -0.000  0.00  0.00     0.019 A 
HETATM    9  C   UNK N   1       1.310  -1.311  -0.000  0.00  0.00     0.013 A 
HETATM   10  C   UNK N   1       0.053  -0.704  -0.000  0.00  0.00    -0.025 A 
ENDROOT
BRANCH   2  11
HETATM   11  C   UNK N   1      -3.579  -1.710   0.000  0.00  0.00     0.176 C 
HETATM   12  O   UNK N   1      -3.491  -2.927   0.000  0.00  0.00    -0.646 OA
BRANCH  11  13
HETATM   13  O   UNK N   1      -4.796  -1.131  -0.000  0.00  0.00    -0.773 OA
HETATM   14  H   UNK N   1      -4.870  -0.197  -0.000  0.00  0.00     0.167 HD
ENDBRANCH  11  13
ENDBRANCH   2  11
BRANCH   7  15
HETATM   15  C   UNK N   1       3.579   1.709   0.000  0.00  0.00     0.176 C 
HETATM   16  O   UNK N   1       3.491   2.927   0.000  0.00  0.00    -0.646 OA
BRANCH  15  17
HETATM   17  O   UNK N   1       4.796   1.131  -0.000  0.00  0.00    -0.773 OA
HETATM   18  H   UNK N   1       4.870   0.197  -0.000  0.00  0.00     0.167 HD
ENDBRANCH  15  17
ENDBRANCH   7  15
TORSDOF 4
