REMARK  7 active torsions:
REMARK  status: ('A' for Active; 'I' for Inactive)
REMARK    1  A    between atoms: C_6  and  C_7 
REMARK    2  A    between atoms: C_7  and  C_8 
REMARK    3  A    between atoms: C_8  and  C_9 
REMARK    4  A    between atoms: C_8  and  N_12 
REMARK    5  A    between atoms: C_9  and  O_11 
REMARK       I    between atoms: N_12  and  C_13 
REMARK    6  A    between atoms: C_13  and  C_15 
REMARK    7  A    between atoms: C_15  and  O_16 
ROOT
HETATM    1  C   UNK N   1       0.617   0.426  -0.048  0.00  0.00     0.187 C 
ENDROOT
BRANCH   1   2
HETATM    2  C   UNK N   1       0.010  -0.749   0.730  0.00  0.00     0.074 C 
BRANCH   2   3
HETATM    3  C   UNK N   1      -1.313  -1.295   0.282  0.00  0.00    -0.056 A 
HETATM    4  C   UNK N   1      -1.405  -2.656  -0.033  0.00  0.00     0.007 A 
HETATM    5  C   UNK N   1      -2.638  -3.219  -0.377  0.00  0.00     0.001 A 
HETATM    6  C   UNK N   1      -3.786  -2.423  -0.403  0.00  0.00     0.000 A 
HETATM    7  C   UNK N   1      -3.701  -1.065  -0.085  0.00  0.00     0.001 A 
HETATM    8  C   UNK N   1      -2.469  -0.505   0.266  0.00  0.00     0.007 A 
ENDBRANCH   2   3
ENDBRANCH   1   2
BRANCH   1   9
HETATM    9  C   UNK N   1       0.010   1.740   0.411  0.00  0.00     0.163 C 
HETATM   10  O   UNK N   1      -1.166   1.980   0.195  0.00  0.00    -0.648 OA
BRANCH   9  11
HETATM   11  O   UNK N   1       0.760   2.659   1.051  0.00  0.00    -0.775 OA
HETATM   12  H   UNK N   1       1.574   2.528   1.495  0.00  0.00     0.167 HD
ENDBRANCH   9  11
ENDBRANCH   1   9
BRANCH   1  13
HETATM   13  N   UNK N   1       2.045   0.378   0.213  0.00  0.00    -0.337 N 
HETATM   14  C   UNK N   1       2.966   1.235  -0.300  0.00  0.00     0.315 C 
HETATM   15  O   UNK N   1       2.623   2.169  -1.013  0.00  0.00    -0.261 OA
HETATM   16  H   UNK N   1       2.372  -0.333   0.810  0.00  0.00     0.164 HD
BRANCH  14  17
HETATM   17  C   UNK N   1       4.394   1.040   0.012  0.00  0.00     0.236 C 
HETATM   18  O   UNK N   1       4.751   0.074   0.671  0.00  0.00    -0.643 OA
BRANCH  17  19
HETATM   19  O   UNK N   1       5.313   1.919  -0.429  0.00  0.00    -0.769 OA
HETATM   20  H   UNK N   1       6.163   1.671  -0.736  0.00  0.00     0.168 HD
ENDBRANCH  17  19
ENDBRANCH  14  17
ENDBRANCH   1  13
TORSDOF 7
