REMARK  2 active torsions:
REMARK  status: ('A' for Active; 'I' for Inactive)
REMARK    1  A    between atoms: C_2  and  O_1 
REMARK    2  A    between atoms: C_3  and  O_4 
ROOT
HETATM    1  C   UNK N   1      -0.679   1.254   0.513  0.00  0.00     0.184 C 
HETATM    2  C   UNK N   1      -1.908   0.648  -0.189  0.00  0.00     0.174 C 
HETATM    3  C   UNK N   1      -1.940  -0.851  -0.024  0.00  0.00     0.008 C 
HETATM    4  C   UNK N   1      -0.805  -1.564  -0.103  0.00  0.00     0.010 C 
HETATM    5  C   UNK N   1       0.501  -0.876  -0.152  0.00  0.00    -0.028 A 
HETATM    6  C   UNK N   1       0.578   0.508   0.117  0.00  0.00    -0.017 A 
HETATM    7  C   UNK N   1       1.827   1.144   0.115  0.00  0.00     0.011 A 
HETATM    8  C   UNK N   1       1.666  -1.600  -0.430  0.00  0.00     0.012 A 
HETATM    9  C   UNK N   1       2.905  -0.953  -0.445  0.00  0.00     0.001 A 
HETATM   10  C   UNK N   1       2.986   0.416  -0.173  0.00  0.00     0.001 A 
ENDROOT
BRANCH   1  11
HETATM   11  O   UNK N   1      -0.576   2.613   0.200  0.00  0.00    -0.388 OA
HETATM   12  H   UNK N   1       0.276   3.023  -0.016  0.00  0.00     0.210 HD
ENDBRANCH   1  11
BRANCH   2  13
HETATM   13  O   UNK N   1      -3.084   1.204   0.316  0.00  0.00    -0.389 OA
HETATM   14  H   UNK N   1      -3.158   2.106   0.667  0.00  0.00     0.210 HD
ENDBRANCH   2  13
TORSDOF 2
