REMARK  3 active torsions:
REMARK  status: ('A' for Active; 'I' for Inactive)
REMARK    1  A    between atoms: N_10  and  S_13 
REMARK    2  A    between atoms: B_11  and  O_12 
REMARK    3  A    between atoms: S_13  and  C_16 
ROOT
HETATM    1  C   UNK N   1      -3.209  -2.185  -0.206  0.00  0.00    -0.019 A 
HETATM    2  C   UNK N   1      -3.086  -0.787  -0.250  0.00  0.00    -0.026 A 
HETATM    3  C   UNK N   1      -4.229   0.017  -0.195  0.00  0.00     0.001 A 
HETATM    4  C   UNK N   1      -5.494  -0.576  -0.090  0.00  0.00    -0.000 A 
HETATM    5  C   UNK N   1      -5.615  -1.970  -0.036  0.00  0.00     0.001 A 
HETATM    6  C   UNK N   1      -4.473  -2.773  -0.098  0.00  0.00     0.012 A 
HETATM    7  C   UNK N   1      -2.008  -3.046  -0.256  0.00  0.00     0.117 A 
HETATM    8  N   UNK N   1      -0.806  -2.567  -0.265  0.00  0.00    -0.311 N 
ATOM      9  HN  UNK N   1      -0.028  -3.227  -0.294  1.00  0.00     0.185 HD
HETATM   10  N   UNK N   1      -0.509  -1.209  -0.238  0.00  0.00    -0.228 N 
HETATM   11  B   UNK N   1      -1.640  -0.198  -0.307  0.00  0.00     0.521 B 
ENDROOT
BRANCH  10  12
HETATM   12  S   UNK N   1       1.117  -0.757   0.273  0.00  0.00     0.267 S 
HETATM   13  O   UNK N   1       1.913  -2.026  -0.068  0.00  0.00    -0.200 OA
HETATM   14  O   UNK N   1       1.040  -0.971   1.791  0.00  0.00    -0.200 OA
BRANCH  12  15
HETATM   15  C   UNK N   1       2.262   0.606   0.006  0.00  0.00     0.080 A 
HETATM   16  C   UNK N   1       1.903   1.810  -0.611  0.00  0.00     0.026 A 
HETATM   17  C   UNK N   1       2.856   2.839  -0.729  0.00  0.00     0.008 A 
HETATM   18  C   UNK N   1       4.154   2.664  -0.225  0.00  0.00    -0.062 A 
HETATM   19  C   UNK N   1       4.504   1.464   0.389  0.00  0.00     0.008 A 
HETATM   20  C   UNK N   1       5.164   3.750  -0.335  0.00  0.00     0.048 C 
HETATM   21  C   UNK N   1       3.561   0.445   0.505  0.00  0.00     0.026 A 
ENDBRANCH  12  15
ENDBRANCH  10  12
BRANCH  11  22
HETATM   22  O   UNK N   1      -1.391   1.242  -0.276  0.00  0.00    -0.438 OA
HETATM   23  H   UNK N   1      -0.481   1.577  -0.256  0.00  0.00     0.184 HD
ENDBRANCH  11  22
TORSDOF 3
