REMARK  3 active torsions:
REMARK  status: ('A' for Active; 'I' for Inactive)
REMARK    1  A    between atoms: C_1  and  C_2 
REMARK    2  A    between atoms: C_1  and  C_20 
REMARK    3  A    between atoms: C_2  and  C_3 
REMARK       I    between atoms: C_7  and  N_8 
ROOT
HETATM    1  C   UNK N   1       0.007  -0.869  -0.011  0.00  0.00    -0.001 A 
HETATM    2  C   UNK N   1       1.292  -1.454  -0.007  0.00  0.00     0.073 A 
HETATM    3  N   UNK N   1       2.399  -0.662  -0.011  0.00  0.00    -0.190 N 
ATOM      4  HN  UNK N   1       2.287   0.351  -0.018  1.00  0.00     0.184 HD
HETATM    5  C   UNK N   1       3.647  -1.192  -0.006  0.00  0.00     0.679 A 
HETATM    6  N   UNK N   1       4.768  -0.340  -0.010  0.00  0.00    -0.234 N 
HETATM    7  N   UNK N   1       3.817  -2.540   0.004  0.00  0.00    -0.156 N 
HETATM    8  C   UNK N   1       2.743  -3.392   0.008  0.00  0.00     0.272 A 
HETATM    9  O   UNK N   1       2.929  -4.596   0.018  0.00  0.00    -0.267 OA
HETATM   10  C   UNK N   1       1.443  -2.868   0.002  0.00  0.00     0.062 A 
HETATM   11  C   UNK N   1       0.304  -3.702   0.006  0.00  0.00     0.051 A 
HETATM   12  C   UNK N   1      -0.945  -3.087   0.001  0.00  0.00     0.061 A 
HETATM   13  N   UNK N   1      -2.148  -3.677   0.004  0.00  0.00    -0.350 N 
HETATM   14  C   UNK N   1      -3.030  -2.644  -0.004  0.00  0.00     0.181 A 
HETATM   15  N   UNK N   1      -2.405  -1.438  -0.010  0.00  0.00    -0.350 N 
ATOM     16  HN  UNK N   1      -2.834  -0.512  -0.016  1.00  0.00     0.166 HD
HETATM   17  C   UNK N   1      -1.096  -1.736  -0.007  0.00  0.00     0.068 A 
HETATM   18  H   UNK N   1       5.676  -0.721  -0.013  0.00  0.00     0.174 HD
HETATM   19  H   UNK N   1       4.644   0.637  -0.010  0.00  0.00     0.174 HD
HETATM   20  H   UNK N   1       4.729  -2.912   0.008  0.00  0.00     0.187 HD
HETATM   21  H   UNK N   1      -2.347  -4.641   0.009  0.00  0.00     0.166 HD
ENDROOT
BRANCH   1  22
HETATM   22  C   UNK N   1      -0.080   0.630  -0.018  0.00  0.00     0.048 C 
BRANCH  22  23
HETATM   23  C   UNK N   1      -1.449   1.289   0.008  0.00  0.00     0.043 C 
BRANCH  23  24
HETATM   24  C   UNK N   1      -1.319   2.788   0.009  0.00  0.00    -0.058 A 
HETATM   25  C   UNK N   1      -2.476   3.572   0.012  0.00  0.00     0.007 A 
HETATM   26  C   UNK N   1      -2.379   4.968   0.008  0.00  0.00     0.001 A 
HETATM   27  C   UNK N   1      -1.124   5.586   0.001  0.00  0.00     0.000 A 
HETATM   28  C   UNK N   1       0.036   4.810  -0.001  0.00  0.00     0.001 A 
HETATM   29  C   UNK N   1      -0.060   3.419   0.003  0.00  0.00     0.007 A 
ENDBRANCH  23  24
ENDBRANCH  22  23
ENDBRANCH   1  22
TORSDOF 3
