REMARK  3 active torsions:
REMARK  status: ('A' for Active; 'I' for Inactive)
REMARK    1  A    between atoms: C_1  and  C_2 
REMARK    2  A    between atoms: C_1  and  C_19 
REMARK       I    between atoms: C_6  and  N_7 
REMARK    3  A    between atoms: C_19  and  C_20 
ROOT
HETATM    1  C   UNK N   1      -0.343  -1.372   0.011  0.00  0.00    -0.001 A 
HETATM    2  C   UNK N   1       1.015  -1.815   0.007  0.00  0.00     0.073 A 
HETATM    3  N   UNK N   1       2.047  -0.929   0.013  0.00  0.00    -0.190 N 
ATOM      4  HN  UNK N   1       1.844   0.071   0.020  1.00  0.00     0.184 HD
HETATM    5  C   UNK N   1       3.341  -1.341   0.008  0.00  0.00     0.679 A 
HETATM    6  N   UNK N   1       4.379  -0.390   0.014  0.00  0.00    -0.234 N 
HETATM    7  N   UNK N   1       3.637  -2.666  -0.002  0.00  0.00    -0.156 N 
HETATM    8  C   UNK N   1       2.648  -3.613  -0.007  0.00  0.00     0.272 A 
HETATM    9  O   UNK N   1       2.945  -4.795  -0.017  0.00  0.00    -0.267 OA
HETATM   10  C   UNK N   1       1.305  -3.213  -0.002  0.00  0.00     0.062 A 
HETATM   11  C   UNK N   1       0.258  -4.159  -0.006  0.00  0.00     0.051 A 
HETATM   12  C   UNK N   1      -1.044  -3.678   0.000  0.00  0.00     0.061 A 
HETATM   13  N   UNK N   1      -2.183  -4.386  -0.003  0.00  0.00    -0.350 N 
HETATM   14  C   UNK N   1      -3.164  -3.446   0.005  0.00  0.00     0.181 A 
HETATM   15  N   UNK N   1      -2.662  -2.185   0.012  0.00  0.00    -0.350 N 
ATOM     16  HN  UNK N   1      -3.179  -1.306   0.018  1.00  0.00     0.166 HD
HETATM   17  C   UNK N   1      -1.330  -2.355   0.009  0.00  0.00     0.068 A 
HETATM   18  H   UNK N   1       5.318  -0.686   0.018  0.00  0.00     0.174 HD
HETATM   19  H   UNK N   1       4.166   0.572   0.014  0.00  0.00     0.174 HD
HETATM   20  H   UNK N   1       4.580  -2.952  -0.005  0.00  0.00     0.187 HD
HETATM   21  H   UNK N   1      -2.285  -5.365  -0.009  0.00  0.00     0.166 HD
ENDROOT
BRANCH   1  22
HETATM   22  C   UNK N   1      -0.796   0.064   0.016  0.00  0.00     0.048 C 
BRANCH  22  23
HETATM   23  C   UNK N   1       0.277   1.142  -0.021  0.00  0.00     0.043 C 
BRANCH  23  24
HETATM   24  C   UNK N   1      -0.298   2.523  -0.018  0.00  0.00    -0.058 A 
HETATM   25  C   UNK N   1      -1.685   2.746  -0.006  0.00  0.00     0.007 A 
HETATM   26  C   UNK N   1      -2.189   4.046   0.003  0.00  0.00     0.007 A 
HETATM   27  C   UNK N   1      -1.312   5.132   0.002  0.00  0.00    -0.062 A 
HETATM   28  C   UNK N   1      -1.849   6.515   0.016  0.00  0.00     0.048 C 
HETATM   29  C   UNK N   1       0.070   4.917  -0.012  0.00  0.00     0.007 A 
HETATM   30  C   UNK N   1       0.575   3.614  -0.022  0.00  0.00     0.007 A 
ENDBRANCH  23  24
ENDBRANCH  22  23
ENDBRANCH   1  22
TORSDOF 3
