REMARK  8 active torsions:
REMARK  status: ('A' for Active; 'I' for Inactive)
REMARK    1  A    between atoms: C_3  and  O_7 
REMARK    2  A    between atoms: C_6  and  S_9 
REMARK    3  A    between atoms: S_9  and  N_12 
REMARK    4  A    between atoms: N_12  and  C_13 
REMARK    5  A    between atoms: N_12  and  C_14 
REMARK    6  A    between atoms: C_13  and  C_19 
REMARK    7  A    between atoms: C_14  and  C_15 
REMARK       I    between atoms: C_15  and  N_16 
REMARK    8  A    between atoms: N_16  and  O_17 
ROOT
HETATM    1  N   UNK N   1       0.950   1.256   0.034  0.00  0.00    -0.197 NA
ENDROOT
BRANCH   1   2
HETATM    2  S   UNK N   1       1.087  -0.415  -0.570  0.00  0.00     0.244 S 
HETATM    3  O   UNK N   1       2.543  -0.862  -0.355  0.00  0.00    -0.206 OA
HETATM    4  O   UNK N   1       1.067  -0.255  -2.097  0.00  0.00    -0.206 OA
BRANCH   2   5
HETATM    5  C   UNK N   1      -0.087  -1.683  -0.090  0.00  0.00     0.074 A 
HETATM    6  C   UNK N   1       0.321  -2.756   0.710  0.00  0.00     0.027 A 
HETATM    7  C   UNK N   1      -0.568  -3.798   0.993  0.00  0.00     0.038 A 
HETATM    8  C   UNK N   1      -1.867  -3.780   0.470  0.00  0.00     0.068 A 
HETATM    9  C   UNK N   1      -2.278  -2.690  -0.317  0.00  0.00     0.038 A 
HETATM   10  C   UNK N   1      -1.389  -1.650  -0.597  0.00  0.00     0.027 A 
BRANCH   8  11
HETATM   11  O   UNK N   1      -2.690  -4.827   0.715  0.00  0.00    -0.356 OA
HETATM   12  C   UNK N   1      -3.937  -4.952   0.145  0.00  0.00     0.210 C 
ENDBRANCH   8  11
ENDBRANCH   2   5
ENDBRANCH   1   2
BRANCH   1  13
HETATM   13  C   UNK N   1      -0.286   1.380   0.792  0.00  0.00     0.112 C 
BRANCH  13  14
HETATM   14  C   UNK N   1      -1.461   1.619  -0.146  0.00  0.00    -0.009 C 
HETATM   15  C   UNK N   1      -2.757   1.494   0.625  0.00  0.00     0.011 C 
HETATM   16  C   UNK N   1      -1.374   3.001  -0.766  0.00  0.00     0.011 C 
ENDBRANCH  13  14
ENDBRANCH   1  13
BRANCH   1  17
HETATM   17  C   UNK N   1       2.054   1.558   0.935  0.00  0.00     0.212 C 
BRANCH  17  18
HETATM   18  C   UNK N   1       3.171   2.203   0.174  0.00  0.00     0.255 C 
HETATM   19  N   UNK N   1       4.380   1.603   0.123  0.00  0.00    -0.236 N 
HETATM   20  H   UNK N   1       4.519   0.747   0.590  0.00  0.00     0.197 HD
HETATM   21  O   UNK N   1       2.984   3.267  -0.394  0.00  0.00    -0.270 OA
BRANCH  19  22
HETATM   22  O   UNK N   1       5.394   2.159  -0.556  0.00  0.00    -0.287 OA
HETATM   23  H   UNK N   1       6.109   1.726  -1.048  0.00  0.00     0.244 HD
ENDBRANCH  19  22
ENDBRANCH  17  18
ENDBRANCH   1  17
TORSDOF 8
