REMARK  10 active torsions:
REMARK  status: ('A' for Active; 'I' for Inactive)
REMARK    1  A    between atoms: C_1  and  C_12 
REMARK    2  A    between atoms: C_3  and  N_4 
REMARK    3  A    between atoms: C_7  and  O_8 
REMARK    4  A    between atoms: C_12  and  C_13 
REMARK       I    between atoms: C_13  and  N_15 
REMARK    5  A    between atoms: N_15  and  C_16 
REMARK    6  A    between atoms: C_16  and  C_17 
REMARK    7  A    between atoms: C_17  and  C_18 
REMARK    8  A    between atoms: C_18  and  C_19 
REMARK    9  A    between atoms: C_19  and  C_20 
REMARK   10  A    between atoms: C_20  and  C_21 
ROOT
HETATM    1  C   UNK N   1       2.031   2.598   0.871  0.00  0.00     0.141 C 
ENDROOT
BRANCH   1   2
HETATM    2  C   UNK N   1       0.666   3.176   0.706  0.00  0.00    -0.046 A 
HETATM    3  C   UNK N   1      -0.422   2.332   0.478  0.00  0.00     0.046 A 
HETATM    4  C   UNK N   1      -1.663   2.855   0.075  0.00  0.00     0.137 A 
HETATM    5  C   UNK N   1      -1.785   4.255  -0.115  0.00  0.00     0.115 A 
HETATM    6  C   UNK N   1      -0.685   5.093   0.126  0.00  0.00     0.042 A 
HETATM    7  I   UNK N   1      -0.795   7.176  -0.189  0.00  0.00    -0.042 I 
HETATM    8  C   UNK N   1       0.531   4.552   0.527  0.00  0.00     0.028 A 
BRANCH   4   9
HETATM    9  N   UNK N   1      -2.753   1.965  -0.174  0.00  0.00    -0.113 N 
HETATM   10  O   UNK N   1      -3.914   2.416  -0.595  0.00  0.00    -0.532 OA
HETATM   11  O   UNK N   1      -2.610   0.787  -0.018  0.00  0.00    -0.532 OA
ENDBRANCH   4   9
BRANCH   5  12
HETATM   12  O   UNK N   1      -2.940   4.796  -0.540  0.00  0.00    -0.357 OA
HETATM   13  H   UNK N   1      -3.016   5.682  -0.835  0.00  0.00     0.217 HD
ENDBRANCH   5  12
ENDBRANCH   1   2
BRANCH   1  14
HETATM   14  C   UNK N   1       2.712   2.593  -0.487  0.00  0.00     0.221 C 
HETATM   15  O   UNK N   1       2.384   3.407  -1.338  0.00  0.00    -0.273 OA
HETATM   16  N   UNK N   1       3.682   1.707  -0.790  0.00  0.00    -0.361 N 
HETATM   17  H   UNK N   1       3.999   1.654  -1.720  0.00  0.00     0.162 HD
BRANCH  16  18
HETATM   18  C   UNK N   1       4.272   0.837   0.188  0.00  0.00     0.122 C 
BRANCH  18  19
HETATM   19  C   UNK N   1       5.741   1.205   0.295  0.00  0.00     0.020 C 
BRANCH  19  20
HETATM   20  C   UNK N   1       5.884   2.696   0.587  0.00  0.00     0.002 C 
BRANCH  20  21
HETATM   21  C   UNK N   1       6.778   3.363  -0.443  0.00  0.00     0.010 C 
BRANCH  21  22
HETATM   22  C   UNK N   1       8.096   3.721   0.216  0.00  0.00     0.113 C 
BRANCH  22  23
HETATM   23  C   UNK N   1       9.065   2.587   0.129  0.00  0.00     0.172 C 
HETATM   24  O   UNK N   1      10.171   2.774  -0.346  0.00  0.00    -0.648 OA
HETATM   25  O   UNK N   1       8.731   1.367   0.590  0.00  0.00    -0.648 OA
ENDBRANCH  22  23
ENDBRANCH  21  22
ENDBRANCH  20  21
ENDBRANCH  19  20
ENDBRANCH  18  19
ENDBRANCH  16  18
ENDBRANCH   1  14
TORSDOF 10
