REMARK  4 active torsions:
REMARK  status: ('A' for Active; 'I' for Inactive)
REMARK    1  A    between atoms: C_1  and  C_15 
REMARK    2  A    between atoms: C_7  and  O_8 
REMARK    3  A    between atoms: C_9  and  C_15 
REMARK    4  A    between atoms: C_15  and  C_16 
ROOT
HETATM    1  C   UNK N   1      -0.912  -0.750  -0.425  0.00  0.00     0.060 A 
HETATM    2  C   UNK N   1      -0.969  -2.093   0.046  0.00  0.00     0.297 A 
HETATM    3  O   UNK N   1      -2.031  -2.643   0.254  0.00  0.00    -0.259 OA
HETATM    4  O   UNK N   1       0.148  -2.792   0.230  0.00  0.00    -0.279 OA
HETATM    5  C   UNK N   1       1.360  -2.308   0.001  0.00  0.00     0.066 A 
HETATM    6  C   UNK N   1       1.517  -0.988  -0.452  0.00  0.00     0.006 A 
HETATM    7  C   UNK N   1       0.372  -0.213  -0.673  0.00  0.00     0.087 A 
HETATM    8  C   UNK N   1       2.534  -3.224   0.184  0.00  0.00     0.066 C 
HETATM    9  C   UNK N   1       3.484  -2.741   1.268  0.00  0.00     0.006 C 
HETATM   10  C   UNK N   1       4.446  -1.695   0.726  0.00  0.00     0.001 C 
HETATM   11  C   UNK N   1       3.747  -0.363   0.505  0.00  0.00     0.005 C 
HETATM   12  C   UNK N   1       2.874  -0.411  -0.742  0.00  0.00     0.044 C 
ENDROOT
BRANCH   1  13
HETATM   13  C   UNK N   1      -2.162   0.103  -0.765  0.00  0.00     0.060 C 
BRANCH  13  14
HETATM   14  C   UNK N   1      -2.216   1.500  -0.163  0.00  0.00    -0.049 A 
HETATM   15  C   UNK N   1      -3.141   2.421  -0.686  0.00  0.00     0.008 A 
HETATM   16  C   UNK N   1      -3.205   3.725  -0.190  0.00  0.00     0.001 A 
HETATM   17  C   UNK N   1      -2.349   4.122   0.838  0.00  0.00     0.000 A 
HETATM   18  C   UNK N   1      -1.433   3.213   1.375  0.00  0.00     0.001 A 
HETATM   19  C   UNK N   1      -1.364   1.907   0.877  0.00  0.00     0.008 A 
ENDBRANCH  13  14
BRANCH  13  20
HETATM   20  C   UNK N   1      -3.528  -0.578  -0.558  0.00  0.00     0.010 C 
HETATM   21  C   UNK N   1      -3.937  -0.667   0.909  0.00  0.00     0.006 C 
ENDBRANCH  13  20
ENDBRANCH   1  13
BRANCH   7  22
HETATM   22  O   UNK N   1       0.507   1.041  -1.149  0.00  0.00    -0.359 OA
HETATM   23  H   UNK N   1       1.309   1.395  -1.480  0.00  0.00     0.217 HD
ENDBRANCH   7  22
TORSDOF 4
