REMARK  16 active torsions:
REMARK  status: ('A' for Active; 'I' for Inactive)
REMARK       I    between atoms: N_1  and  C_2 
REMARK    1  A    between atoms: C_15  and  N_1 
REMARK    2  A    between atoms: C_2  and  C_4 
REMARK    3  A    between atoms: C_4  and  C_5 
REMARK    4  A    between atoms: C_5  and  C_6 
REMARK    5  A    between atoms: C_6  and  C_7 
REMARK    6  A    between atoms: C_7  and  C_8 
REMARK    7  A    between atoms: C_8  and  C_9 
REMARK    8  A    between atoms: C_9  and  C_10 
REMARK    9  A    between atoms: C_10  and  C_11 
REMARK   10  A    between atoms: C_11  and  C_12 
REMARK   11  A    between atoms: C_12  and  C_13 
REMARK   12  A    between atoms: C_15  and  C_16 
REMARK   13  A    between atoms: C_15  and  C_24 
REMARK   14  A    between atoms: C_16  and  C_17 
REMARK   15  A    between atoms: C_20  and  O_23 
REMARK   16  A    between atoms: C_24  and  O_25 
ROOT
HETATM    1  N   UNK N   1       2.690   1.545  -0.450  0.00  0.00    -0.346 N 
HETATM    2  C   UNK N   1       1.485   1.577   0.168  0.00  0.00     0.218 C 
HETATM    3  O   UNK N   1       1.277   0.902   1.170  0.00  0.00    -0.274 OA
HETATM    4  H   UNK N   1       2.802   2.113  -1.247  0.00  0.00     0.163 HD
ENDROOT
BRANCH   1   5
HETATM    5  C   UNK N   1       3.829   0.745  -0.040  0.00  0.00     0.186 C 
BRANCH   5   6
HETATM    6  C   UNK N   1       5.007   1.223  -0.897  0.00  0.00     0.074 C 
BRANCH   6   7
HETATM    7  C   UNK N   1       6.388   0.915  -0.397  0.00  0.00    -0.056 A 
HETATM    8  C   UNK N   1       7.298   1.967  -0.240  0.00  0.00     0.010 A 
HETATM    9  C   UNK N   1       8.621   1.706   0.127  0.00  0.00     0.037 A 
HETATM   10  C   UNK N   1       9.042   0.389   0.335  0.00  0.00     0.065 A 
HETATM   11  C   UNK N   1       8.135  -0.665   0.189  0.00  0.00     0.037 A 
HETATM   12  C   UNK N   1       6.812  -0.403  -0.183  0.00  0.00     0.010 A 
BRANCH  10  13
HETATM   13  O   UNK N   1      10.318   0.137   0.667  0.00  0.00    -0.361 OA
HETATM   14  H   UNK N   1      10.611  -0.723   0.899  0.00  0.00     0.217 HD
ENDBRANCH  10  13
ENDBRANCH   6   7
ENDBRANCH   5   6
BRANCH   5  15
HETATM   15  C   UNK N   1       3.552  -0.734  -0.247  0.00  0.00     0.163 C 
HETATM   16  O   UNK N   1       2.663  -1.285   0.380  0.00  0.00    -0.648 OA
BRANCH  15  17
HETATM   17  O   UNK N   1       4.277  -1.455  -1.126  0.00  0.00    -0.775 OA
HETATM   18  H   UNK N   1       4.094  -2.142  -1.737  0.00  0.00     0.167 HD
ENDBRANCH  15  17
ENDBRANCH   5  15
ENDBRANCH   1   5
BRANCH   2  19
HETATM   19  C   UNK N   1       0.422   2.489  -0.375  0.00  0.00     0.103 C 
BRANCH  19  20
HETATM   20  C   UNK N   1      -0.846   2.491   0.469  0.00  0.00     0.009 C 
BRANCH  20  21
HETATM   21  C   UNK N   1      -2.042   1.988  -0.329  0.00  0.00     0.000 C 
BRANCH  21  22
HETATM   22  C   UNK N   1      -1.858   0.553  -0.811  0.00  0.00     0.000 C 
BRANCH  22  23
HETATM   23  C   UNK N   1      -1.658  -0.401   0.358  0.00  0.00     0.000 C 
BRANCH  23  24
HETATM   24  C   UNK N   1      -2.562  -1.606   0.207  0.00  0.00     0.000 C 
BRANCH  24  25
HETATM   25  C   UNK N   1      -3.979  -1.220   0.579  0.00  0.00     0.000 C 
BRANCH  25  26
HETATM   26  C   UNK N   1      -4.950  -2.011  -0.270  0.00  0.00     0.000 C 
BRANCH  26  27
HETATM   27  C   UNK N   1      -6.121  -1.129  -0.652  0.00  0.00    -0.000 C 
BRANCH  27  28
HETATM   28  C   UNK N   1      -7.254  -1.298   0.339  0.00  0.00    -0.005 C 
HETATM   29  C   UNK N   1      -8.359  -0.319   0.003  0.00  0.00     0.005 C 
ENDBRANCH  27  28
ENDBRANCH  26  27
ENDBRANCH  25  26
ENDBRANCH  24  25
ENDBRANCH  23  24
ENDBRANCH  22  23
ENDBRANCH  21  22
ENDBRANCH  20  21
ENDBRANCH  19  20
ENDBRANCH   2  19
TORSDOF 16
