REMARK  6 active torsions:
REMARK  status: ('A' for Active; 'I' for Inactive)
REMARK    1  A    between atoms: C_7  and  C_23 
REMARK       I    between atoms: C_7  and  N_15 
REMARK    2  A    between atoms: C_9  and  O_25 
REMARK    3  A    between atoms: C_11  and  O_27 
REMARK    4  A    between atoms: C_16  and  N_15 
REMARK    5  A    between atoms: C_19  and  C_20 
REMARK       I    between atoms: C_20  and  N_22 
REMARK    6  A    between atoms: C_23  and  O_25 
ROOT
HETATM    1  C   UNK N   1       0.727  -1.282  -0.484  0.00  0.00     0.252 C 
HETATM    2  O   UNK N   1      -0.062  -0.452  -0.928  0.00  0.00    -0.270 OA
HETATM    3  N   UNK N   1       1.999  -0.901  -0.161  0.00  0.00    -0.353 N 
HETATM    4  H   UNK N   1       2.634  -1.578   0.167  0.00  0.00     0.163 HD
ENDROOT
BRANCH   3   5
HETATM    5  C   UNK N   1       2.439   0.484  -0.290  0.00  0.00     0.092 C 
HETATM    6  C   UNK N   1       3.467   0.637  -1.430  0.00  0.00     0.010 C 
HETATM    7  C   UNK N   1       4.804  -0.042  -1.068  0.00  0.00     0.026 C 
HETATM    8  C   UNK N   1       3.715   2.138  -1.646  0.00  0.00     0.011 C 
HETATM    9  C   UNK N   1       5.397   0.591   0.212  0.00  0.00     0.042 C 
HETATM   10  C   UNK N   1       4.386   0.370   1.356  0.00  0.00     0.026 C 
HETATM   11  C   UNK N   1       5.597   2.102  -0.019  0.00  0.00     0.024 C 
HETATM   12  C   UNK N   1       3.041   1.047   1.021  0.00  0.00     0.010 C 
HETATM   13  C   UNK N   1       3.292   2.553   0.812  0.00  0.00     0.011 C 
HETATM   14  C   UNK N   1       4.266   2.771  -0.359  0.00  0.00    -0.013 C 
BRANCH   9  15
HETATM   15  C   UNK N   1       6.739  -0.000   0.579  0.00  0.00     0.224 C 
HETATM   16  O   UNK N   1       7.335   0.413   1.563  0.00  0.00    -0.273 OA
HETATM   17  N   UNK N   1       7.305  -0.961  -0.180  0.00  0.00    -0.369 N 
HETATM   18  H   UNK N   1       6.905  -1.670  -0.734  0.00  0.00     0.159 HD
HETATM   19  H   UNK N   1       8.290  -0.952  -0.180  0.00  0.00     0.159 HD
ENDBRANCH   9  15
ENDBRANCH   3   5
BRANCH   1  20
HETATM   20  C   UNK N   1       0.242  -2.717  -0.326  0.00  0.00     0.141 C 
HETATM   21  C   UNK N   1      -0.216  -3.239  -1.683  0.00  0.00     0.057 C 
HETATM   22  C   UNK N   1       1.357  -3.630   0.156  0.00  0.00     0.057 C 
BRANCH  20  23
HETATM   23  O   UNK N   1      -0.798  -2.777   0.600  0.00  0.00    -0.331 OA
BRANCH  23  24
HETATM   24  C   UNK N   1      -1.920  -2.018   0.509  0.00  0.00     0.070 A 
HETATM   25  C   UNK N   1      -2.939  -2.335  -0.400  0.00  0.00     0.039 A 
HETATM   26  C   UNK N   1      -4.037  -1.478  -0.545  0.00  0.00     0.039 A 
HETATM   27  C   UNK N   1      -4.116  -0.295   0.202  0.00  0.00     0.068 A 
HETATM   28  C   UNK N   1      -3.105  -0.000   1.132  0.00  0.00     0.039 A 
HETATM   29  C   UNK N   1      -2.020  -0.862   1.288  0.00  0.00     0.039 A 
BRANCH  27  30
HETATM   30  O   UNK N   1      -5.155   0.549  -0.001  0.00  0.00    -0.356 OA
HETATM   31  C   UNK N   1      -5.246   1.786   0.598  0.00  0.00     0.210 C 
ENDBRANCH  27  30
ENDBRANCH  23  24
ENDBRANCH  20  23
ENDBRANCH   1  20
TORSDOF 6
