REMARK  6 active torsions:
REMARK  status: ('A' for Active; 'I' for Inactive)
REMARK    1  A    between atoms: C_7  and  N_8 
REMARK    2  A    between atoms: N_8  and  C_9 
REMARK    3  A    between atoms: C_9  and  O_11 
REMARK    4  A    between atoms: O_11  and  C_12 
REMARK    5  A    between atoms: C_12  and  C_13 
REMARK    6  A    between atoms: C_13  and  N_14 
ROOT
HETATM    1  C   UNK N   1       6.224  10.109  -0.365  0.00  0.00     0.198 C 
ENDROOT
BRANCH   1   2
HETATM    2  O   UNK N   1       5.231  10.369   0.543  0.00  0.00    -0.325 OA
BRANCH   2   3
HETATM    3  C   UNK N   1       4.169   9.566   0.766  0.00  0.00     0.214 C 
HETATM    4  S   UNK N   1       3.603   9.561   2.091  0.00  0.00    -0.033 SA
BRANCH   3   5
HETATM    5  N   UNK N   1       3.673   8.691  -0.261  0.00  0.00    -0.328 N 
HETATM    6  H   UNK N   1       4.262   8.496  -1.025  0.00  0.00     0.169 HD
BRANCH   5   7
HETATM    7  C   UNK N   1       2.378   8.085  -0.244  0.00  0.00     0.034 A 
HETATM    8  C   UNK N   1       2.187   6.838  -0.849  0.00  0.00     0.031 A 
HETATM    9  C   UNK N   1       0.948   6.191  -0.747  0.00  0.00     0.026 A 
HETATM   10  C   UNK N   1      -0.107   6.796  -0.053  0.00  0.00     0.034 A 
HETATM   11 Cl   UNK N   1      -1.633   5.963   0.141  0.00  0.00    -0.084 Cl
HETATM   12  C   UNK N   1       0.064   8.060   0.510  0.00  0.00     0.026 A 
HETATM   13  C   UNK N   1       1.298   8.700   0.414  0.00  0.00     0.031 A 
ENDBRANCH   5   7
ENDBRANCH   3   5
ENDBRANCH   2   3
ENDBRANCH   1   2
BRANCH   1  14
HETATM   14  C   UNK N   1       7.524  10.232   0.415  0.00  0.00     0.162 C 
BRANCH  14  15
HETATM   15  N   UNK N   1       8.430   9.128   0.192  0.00  0.00    -0.278 N 
HETATM   16  C   UNK N   1       9.758   9.260  -0.023  0.00  0.00     0.261 A 
HETATM   17  O   UNK N   1      10.344  10.330  -0.081  0.00  0.00    -0.267 OA
HETATM   18  C   UNK N   1      10.365   7.936  -0.132  0.00  0.00     0.048 A 
HETATM   19  C   UNK N   1      11.682   7.533  -0.330  0.00  0.00     0.018 A 
HETATM   20  C   UNK N   1       9.343   7.026   0.026  0.00  0.00     0.048 A 
HETATM   21  C   UNK N   1      11.944   6.152  -0.374  0.00  0.00     0.001 A 
HETATM   22  C   UNK N   1      10.894   5.217  -0.218  0.00  0.00     0.001 A 
HETATM   23  C   UNK N   1       9.572   5.654  -0.013  0.00  0.00     0.018 A 
HETATM   24  C   UNK N   1       8.126   7.808   0.236  0.00  0.00     0.261 A 
HETATM   25  O   UNK N   1       7.008   7.360   0.439  0.00  0.00    -0.267 OA
ENDBRANCH  14  15
ENDBRANCH   1  14
TORSDOF 6
