REMARK  4 active torsions:
REMARK  status: ('A' for Active; 'I' for Inactive)
REMARK    1  A    between atoms: C_1  and  C_2 
REMARK    2  A    between atoms: C_1  and  O_14 
REMARK    3  A    between atoms: C_2  and  O_15 
REMARK    4  A    between atoms: C_3  and  O_15 
ROOT
HETATM    1  C   UNK N   1      -1.280  -0.158  -0.000  0.00  0.00     0.080 A 
HETATM    2  C   UNK N   1      -2.517   0.509  -0.000  0.00  0.00     0.038 A 
HETATM    3  C   UNK N   1      -2.588   1.903  -0.000  0.00  0.00     0.004 A 
HETATM    4  C   UNK N   1      -1.423   2.668  -0.000  0.00  0.00     0.012 A 
HETATM    5  C   UNK N   1      -0.174   2.042  -0.000  0.00  0.00    -0.023 A 
HETATM    6  C   UNK N   1       0.984   2.824  -0.000  0.00  0.00     0.012 A 
HETATM    7  C   UNK N   1       2.242   2.217   0.000  0.00  0.00     0.001 A 
HETATM    8  C   UNK N   1       2.346   0.828   0.000  0.00  0.00     0.001 A 
HETATM    9  C   UNK N   1       1.194   0.043   0.000  0.00  0.00     0.015 A 
HETATM   10  C   UNK N   1      -0.087   0.629   0.000  0.00  0.00     0.007 A 
ENDROOT
BRANCH   1  11
HETATM   11  O   UNK N   1      -1.302  -1.521  -0.000  0.00  0.00    -0.340 OA
BRANCH  11  12
HETATM   12  C   UNK N   1      -0.178  -2.325  -0.000  0.00  0.00     0.285 C 
BRANCH  12  13
HETATM   13  C   UNK N   1      -0.499  -3.781   0.000  0.00  0.00     0.164 C 
HETATM   14  O   UNK N   1       0.417  -4.590  -0.000  0.00  0.00    -0.648 OA
BRANCH  13  15
HETATM   15  O   UNK N   1      -1.772  -4.214   0.001  0.00  0.00    -0.775 OA
HETATM   16  H   UNK N   1      -2.477  -3.596   0.001  0.00  0.00     0.167 HD
ENDBRANCH  13  15
ENDBRANCH  12  13
ENDBRANCH  11  12
ENDBRANCH   1  11
TORSDOF 4
