REMARK  10 active torsions:
REMARK  status: ('A' for Active; 'I' for Inactive)
REMARK    1  A    between atoms: C_2  and  C_3 
REMARK    2  A    between atoms: C_3  and  C_4 
REMARK       I    between atoms: C_4  and  N_6 
REMARK    3  A    between atoms: C_7  and  N_6 
REMARK    4  A    between atoms: C_8  and  O_9 
REMARK    5  A    between atoms: C_10  and  O_11 
REMARK    6  A    between atoms: C_12  and  C_13 
REMARK    7  A    between atoms: C_13  and  O_14 
REMARK    8  A    between atoms: N_17  and  O_19 
REMARK    9  A    between atoms: O_19  and  C_20 
REMARK       I    between atoms: C_20  and  N_22 
REMARK   10  A    between atoms: N_22  and  C_23 
ROOT
HETATM    1  C   UNK N   1      -0.953   0.904   0.052  0.00  0.00     0.192 C 
HETATM    2  C   UNK N   1      -1.030   2.190  -0.817  0.00  0.00     0.180 C 
HETATM    3  C   UNK N   1       0.161   3.120  -0.520  0.00  0.00     0.180 C 
HETATM    4  C   UNK N   1       1.455   2.355  -0.840  0.00  0.00     0.185 C 
HETATM    5  O   UNK N   1       1.519   1.179  -0.122  0.00  0.00    -0.326 OA
HETATM    6  C   UNK N   1       0.470   0.327  -0.001  0.00  0.00     0.165 C 
HETATM    7  N   UNK N   1       0.753  -0.917   0.161  0.00  0.00    -0.236 N 
ATOM      8  HN  UNK N   1       1.741  -1.169   0.194  1.00  0.00     0.197 HD
ENDROOT
BRANCH   1   9
HETATM    9  N   UNK N   1      -1.988  -0.048  -0.327  0.00  0.00    -0.346 N 
HETATM   10  C   UNK N   1      -3.319   0.224  -0.225  0.00  0.00     0.218 C 
HETATM   11  O   UNK N   1      -3.708   1.290   0.230  0.00  0.00    -0.274 OA
HETATM   12  H   UNK N   1      -1.713  -0.928  -0.674  0.00  0.00     0.163 HD
BRANCH  10  13
HETATM   13  C   UNK N   1      -4.325  -0.776  -0.696  0.00  0.00     0.102 C 
BRANCH  13  14
HETATM   14  C   UNK N   1      -5.294  -1.121   0.420  0.00  0.00     0.005 C 
HETATM   15  C   UNK N   1      -6.500  -1.833  -0.157  0.00  0.00     0.005 C 
ENDBRANCH  13  14
ENDBRANCH  10  13
ENDBRANCH   1   9
BRANCH   7  16
HETATM   16  O   UNK N   1      -0.116  -1.886   0.286  0.00  0.00    -0.179 OA
BRANCH  16  17
HETATM   17  C   UNK N   1       0.264  -3.190   0.429  0.00  0.00     0.387 C 
HETATM   18  O   UNK N   1      -0.616  -4.022   0.567  0.00  0.00    -0.236 OA
HETATM   19  N   UNK N   1       1.570  -3.622   0.496  0.00  0.00    -0.301 N 
HETATM   20  H   UNK N   1       1.649  -4.575   0.731  0.00  0.00     0.171 HD
BRANCH  19  21
HETATM   21  C   UNK N   1       2.839  -2.986   0.297  0.00  0.00     0.036 A 
HETATM   22  C   UNK N   1       3.033  -1.896  -0.568  0.00  0.00     0.029 A 
HETATM   23  C   UNK N   1       4.299  -1.327  -0.737  0.00  0.00     0.002 A 
HETATM   24  C   UNK N   1       5.399  -1.866  -0.070  0.00  0.00     0.000 A 
HETATM   25  C   UNK N   1       5.233  -2.981   0.754  0.00  0.00     0.002 A 
HETATM   26  C   UNK N   1       3.961  -3.539   0.930  0.00  0.00     0.029 A 
ENDBRANCH  19  21
ENDBRANCH  16  17
ENDBRANCH   7  16
BRANCH   2  27
HETATM   27  O   UNK N   1      -1.033   1.845  -2.173  0.00  0.00    -0.390 OA
HETATM   28  H   UNK N   1      -1.241   1.727  -3.114  0.00  0.00     0.210 HD
ENDBRANCH   2  27
BRANCH   4  29
HETATM   29  C   UNK N   1       2.723   3.171  -0.611  0.00  0.00     0.199 C 
BRANCH  29  30
HETATM   30  O   UNK N   1       2.941   3.390   0.751  0.00  0.00    -0.398 OA
HETATM   31  H   UNK N   1       3.148   3.335   1.697  0.00  0.00     0.209 HD
ENDBRANCH  29  30
ENDBRANCH   4  29
BRANCH   3  32
HETATM   32  O   UNK N   1       0.138   3.514   0.821  0.00  0.00    -0.390 OA
HETATM   33  H   UNK N   1       0.366   3.665   1.752  0.00  0.00     0.210 HD
ENDBRANCH   3  32
TORSDOF 10
