REMARK  5 active torsions:
REMARK  status: ('A' for Active; 'I' for Inactive)
REMARK    1  A    between atoms: C_1  and  C_7 
REMARK    2  A    between atoms: C_3  and  N_9 
REMARK    3  A    between atoms: C_4  and  O_12 
REMARK    4  A    between atoms: C_7  and  C_8 
REMARK    5  A    between atoms: C_8  and  O_14 
ROOT
HETATM    1  C   UNK N   1       0.469   0.939   0.000  0.00  0.00    -0.046 A 
HETATM    2  C   UNK N   1       0.511  -0.454  -0.001  0.00  0.00     0.046 A 
HETATM    3  C   UNK N   1      -0.649  -1.229  -0.000  0.00  0.00     0.136 A 
HETATM    4  C   UNK N   1      -1.902  -0.574   0.001  0.00  0.00     0.098 A 
HETATM    5  C   UNK N   1      -1.954   0.826   0.002  0.00  0.00     0.039 A 
HETATM    6  C   UNK N   1      -0.775   1.580   0.002  0.00  0.00     0.010 A 
ENDROOT
BRANCH   1   7
HETATM    7  C   UNK N   1       1.729   1.768   0.000  0.00  0.00     0.148 C 
BRANCH   7   8
HETATM    8  C   UNK N   1       3.065   1.049  -0.000  0.00  0.00     0.143 C 
HETATM    9  O   UNK N   1       4.089   1.708  -0.000  0.00  0.00    -0.650 OA
BRANCH   8  10
HETATM   10  O   UNK N   1       3.155  -0.297  -0.000  0.00  0.00    -0.776 OA
HETATM   11  H   UNK N   1       2.377  -0.819  -0.000  0.00  0.00     0.167 HD
ENDBRANCH   8  10
ENDBRANCH   7   8
ENDBRANCH   1   7
BRANCH   3  12
HETATM   12  N   UNK N   1      -0.527  -2.652  -0.001  0.00  0.00    -0.113 N 
HETATM   13  O   UNK N   1      -1.590  -3.424   0.000  0.00  0.00    -0.532 OA
HETATM   14  O   UNK N   1       0.558  -3.155  -0.003  0.00  0.00    -0.532 OA
ENDBRANCH   3  12
BRANCH   4  15
HETATM   15  O   UNK N   1      -3.052  -1.270   0.002  0.00  0.00    -0.358 OA
HETATM   16  H   UNK N   1      -3.873  -0.819   0.002  0.00  0.00     0.217 HD
ENDBRANCH   4  15
TORSDOF 5
