REMARK  10 active torsions:
REMARK  status: ('A' for Active; 'I' for Inactive)
REMARK    1  A    between atoms: C_1  and  C_11 
REMARK    2  A    between atoms: C_3  and  N_4 
REMARK    3  A    between atoms: C_7  and  O_8 
REMARK    4  A    between atoms: C_11  and  C_12 
REMARK       I    between atoms: C_12  and  N_14 
REMARK    5  A    between atoms: N_14  and  C_15 
REMARK    6  A    between atoms: C_15  and  C_16 
REMARK    7  A    between atoms: C_16  and  C_17 
REMARK    8  A    between atoms: C_17  and  C_18 
REMARK    9  A    between atoms: C_18  and  C_19 
REMARK   10  A    between atoms: C_19  and  C_20 
ROOT
HETATM    1  C   UNK N   1      -1.469  -0.261   1.120  0.00  0.00     0.141 C 
ENDROOT
BRANCH   1   2
HETATM    2  C   UNK N   1      -2.712   0.348   0.582  0.00  0.00    -0.047 A 
HETATM    3  C   UNK N   1      -3.838  -0.454   0.410  0.00  0.00     0.046 A 
HETATM    4  C   UNK N   1      -5.063   0.100   0.012  0.00  0.00     0.136 A 
HETATM    5  C   UNK N   1      -5.140   1.498  -0.205  0.00  0.00     0.098 A 
HETATM    6  C   UNK N   1      -4.002   2.295  -0.037  0.00  0.00     0.039 A 
HETATM    7  C   UNK N   1      -2.793   1.725   0.361  0.00  0.00     0.010 A 
BRANCH   4   8
HETATM    8  N   UNK N   1      -6.197  -0.754  -0.145  0.00  0.00    -0.113 N 
HETATM    9  O   UNK N   1      -7.380  -0.261  -0.437  0.00  0.00    -0.532 OA
HETATM   10  O   UNK N   1      -6.080  -1.935   0.008  0.00  0.00    -0.532 OA
ENDBRANCH   4   8
BRANCH   5  11
HETATM   11  O   UNK N   1      -6.293   2.083  -0.571  0.00  0.00    -0.358 OA
HETATM   12  H   UNK N   1      -6.341   2.983  -0.826  0.00  0.00     0.217 HD
ENDBRANCH   5  11
ENDBRANCH   1   2
BRANCH   1  13
HETATM   13  C   UNK N   1      -0.329  -0.279   0.161  0.00  0.00     0.221 C 
HETATM   14  O   UNK N   1       0.095   0.765  -0.316  0.00  0.00    -0.273 OA
HETATM   15  N   UNK N   1       0.292  -1.456  -0.079  0.00  0.00    -0.361 N 
HETATM   16  H   UNK N   1      -0.113  -2.286   0.260  0.00  0.00     0.162 HD
BRANCH  15  17
HETATM   17  C   UNK N   1       1.525  -1.533  -0.814  0.00  0.00     0.122 C 
BRANCH  17  18
HETATM   18  C   UNK N   1       2.673  -1.420   0.177  0.00  0.00     0.020 C 
BRANCH  18  19
HETATM   19  C   UNK N   1       2.891   0.026   0.602  0.00  0.00     0.002 C 
BRANCH  19  20
HETATM   20  C   UNK N   1       3.610   0.784  -0.502  0.00  0.00     0.010 C 
BRANCH  20  21
HETATM   21  C   UNK N   1       5.057   1.066  -0.115  0.00  0.00     0.113 C 
BRANCH  21  22
HETATM   22  C   UNK N   1       5.937  -0.153  -0.075  0.00  0.00     0.172 C 
HETATM   23  O   UNK N   1       7.117  -0.026   0.205  0.00  0.00    -0.648 OA
HETATM   24  O   UNK N   1       5.451  -1.380  -0.344  0.00  0.00    -0.648 OA
ENDBRANCH  21  22
ENDBRANCH  20  21
ENDBRANCH  19  20
ENDBRANCH  18  19
ENDBRANCH  17  18
ENDBRANCH  15  17
ENDBRANCH   1  13
TORSDOF 10
