REMARK  6 active torsions:
REMARK  status: ('A' for Active; 'I' for Inactive)
REMARK    1  A    between atoms: C_1  and  O_10 
REMARK    2  A    between atoms: C_6  and  N_7 
REMARK    3  A    between atoms: C_11  and  O_10 
REMARK    4  A    between atoms: C_12  and  O_13 
REMARK    5  A    between atoms: C_14  and  O_15 
REMARK    6  A    between atoms: C_16  and  O_17 
ROOT
HETATM    1  C   UNK N   1      -0.570   0.828   0.709  0.00  0.00     0.298 C 
HETATM    2  C   UNK N   1      -0.613   2.363   0.516  0.00  0.00     0.205 C 
HETATM    3  C   UNK N   1       0.392   2.824  -0.544  0.00  0.00     0.183 C 
HETATM    4  C   UNK N   1       1.770   2.257  -0.189  0.00  0.00     0.178 C 
HETATM    5  C   UNK N   1       1.641   0.728  -0.099  0.00  0.00     0.152 C 
HETATM    6  C   UNK N   1       2.995   0.106   0.198  0.00  0.00     0.042 C 
HETATM    7  O   UNK N   1       0.755   0.367   0.948  0.00  0.00    -0.351 OA
ENDROOT
BRANCH   1   8
HETATM    8  O   UNK N   1      -1.194   0.134  -0.320  0.00  0.00    -0.315 OA
BRANCH   8   9
HETATM    9  C   UNK N   1      -1.331  -1.220  -0.312  0.00  0.00     0.105 A 
HETATM   10  C   UNK N   1      -0.197  -2.040  -0.187  0.00  0.00     0.039 A 
HETATM   11  C   UNK N   1      -0.317  -3.429  -0.174  0.00  0.00     0.003 A 
HETATM   12  C   UNK N   1      -1.573  -4.021  -0.280  0.00  0.00     0.003 A 
HETATM   13  C   UNK N   1      -2.712  -3.224  -0.396  0.00  0.00     0.039 A 
HETATM   14  C   UNK N   1      -2.614  -1.822  -0.416  0.00  0.00     0.136 A 
BRANCH  14  15
HETATM   15  N   UNK N   1      -3.812  -1.048  -0.502  0.00  0.00    -0.113 N 
HETATM   16  O   UNK N   1      -4.981  -1.653  -0.548  0.00  0.00    -0.532 OA
HETATM   17  O   UNK N   1      -3.775   0.144  -0.484  0.00  0.00    -0.532 OA
ENDBRANCH  14  15
ENDBRANCH   8   9
ENDBRANCH   1   8
BRANCH   2  18
HETATM   18  O   UNK N   1      -1.904   2.781   0.182  0.00  0.00    -0.388 OA
HETATM   19  H   UNK N   1      -2.100   3.702  -0.051  0.00  0.00     0.210 HD
ENDBRANCH   2  18
BRANCH   3  20
HETATM   20  O   UNK N   1       0.444   4.221  -0.578  0.00  0.00    -0.390 OA
HETATM   21  H   UNK N   1       1.302   4.674  -0.601  0.00  0.00     0.210 HD
ENDBRANCH   3  20
BRANCH   4  22
HETATM   22  O   UNK N   1       2.699   2.618  -1.170  0.00  0.00    -0.390 OA
HETATM   23  H   UNK N   1       3.237   2.185  -1.850  0.00  0.00     0.210 HD
ENDBRANCH   4  22
TORSDOF 6
