REMARK  2 active torsions:
REMARK  status: ('A' for Active; 'I' for Inactive)
REMARK    1  A    between atoms: N_2  and  C_1 
REMARK    2  A    between atoms: C_14  and  C_15 
ROOT
HETATM    1  C   UNK N   1      -0.701   2.444   0.196  0.00  0.00     0.116 A 
HETATM    2  C   UNK N   1      -1.515   1.298   0.131  0.00  0.00     0.082 A 
HETATM    3  N   UNK N   1      -1.302   3.668   0.145  0.00  0.00    -0.338 N 
ATOM      4  HN  UNK N   1      -0.725   4.508   0.191  1.00  0.00     0.168 HD
HETATM    5  C   UNK N   1      -2.660   3.795   0.033  0.00  0.00     0.183 A 
HETATM    6  N   UNK N   1      -3.454   2.688  -0.020  0.00  0.00    -0.337 N 
ATOM      7  HN  UNK N   1      -4.467   2.775  -0.096  1.00  0.00     0.168 HD
HETATM    8  C   UNK N   1      -2.865   1.472   0.032  0.00  0.00     0.139 A 
HETATM    9  N   UNK N   1      -3.478   0.282  -0.020  0.00  0.00    -0.280 N 
HETATM   10  C   UNK N   1      -4.908   0.049  -0.139  0.00  0.00     0.179 C 
HETATM   11  N   UNK N   1      -2.568  -0.677   0.030  0.00  0.00    -0.295 N 
ATOM     12  HN  UNK N   1      -2.754  -1.680   0.006  1.00  0.00     0.187 HD
HETATM   13  C   UNK N   1      -1.340  -0.097   0.120  0.00  0.00     0.076 A 
ENDROOT
BRANCH  13  14
HETATM   14  C   UNK N   1      -0.091  -0.893   0.113  0.00  0.00    -0.006 A 
HETATM   15  C   UNK N   1       1.153  -0.264   0.117  0.00  0.00     0.026 A 
HETATM   16  C   UNK N   1       2.328  -0.992  -0.004  0.00  0.00    -0.025 A 
HETATM   17  C   UNK N   1       2.274  -2.394  -0.136  0.00  0.00    -0.026 A 
HETATM   18  C   UNK N   1       3.557  -0.330  -0.022  0.00  0.00     0.012 A 
HETATM   19  C   UNK N   1       1.035  -3.043  -0.121  0.00  0.00     0.013 A 
HETATM   20  C   UNK N   1       3.459  -3.120  -0.292  0.00  0.00     0.012 A 
HETATM   21  C   UNK N   1      -0.144  -2.294  -0.001  0.00  0.00     0.014 A 
HETATM   22  C   UNK N   1       4.689  -2.451  -0.317  0.00  0.00     0.001 A 
HETATM   23  C   UNK N   1       4.738  -1.059  -0.179  0.00  0.00     0.001 A 
ENDBRANCH  13  14
BRANCH   1  24
HETATM   24  N   UNK N   1       0.698   2.375   0.321  0.00  0.00    -0.385 N 
HETATM   25  H   UNK N   1       1.146   1.503   0.408  0.00  0.00     0.157 HD
HETATM   26  H   UNK N   1       1.232   3.202   0.321  0.00  0.00     0.157 HD
ENDBRANCH   1  24
TORSDOF 2
