REMARK  5 active torsions:
REMARK  status: ('A' for Active; 'I' for Inactive)
REMARK    1  A    between atoms: S_1  and  N_2 
REMARK    2  A    between atoms: S_1  and  C_5 
REMARK    3  A    between atoms: C_8  and  N_9 
REMARK       I    between atoms: N_9  and  C_10 
REMARK       I    between atoms: C_10  and  N_12 
REMARK    4  A    between atoms: N_12  and  S_13 
REMARK    5  A    between atoms: S_13  and  C_16 
ROOT
HETATM    1  N   UNK N   1      -0.511   1.514  -0.236  0.00  0.00    -0.308 N 
HETATM    2  C   UNK N   1       0.087   2.266   0.727  0.00  0.00     0.334 C 
HETATM    3  O   UNK N   1      -0.544   2.662   1.694  0.00  0.00    -0.246 OA
HETATM    4  N   UNK N   1       1.414   2.531   0.654  0.00  0.00    -0.232 N 
HETATM    5  H   UNK N   1       0.041   1.255  -1.009  0.00  0.00     0.170 HD
HETATM    6  H   UNK N   1       1.813   3.088   1.360  0.00  0.00     0.183 HD
ENDROOT
BRANCH   1   7
HETATM    7  C   UNK N   1      -1.859   1.070  -0.229  0.00  0.00     0.036 A 
HETATM    8  C   UNK N   1      -2.829   1.627   0.621  0.00  0.00     0.031 A 
HETATM    9  C   UNK N   1      -4.080   1.018   0.748  0.00  0.00     0.027 A 
HETATM   10  C   UNK N   1      -4.361  -0.148   0.031  0.00  0.00     0.079 A 
HETATM   11  C   UNK N   1      -3.417  -0.672  -0.853  0.00  0.00     0.027 A 
HETATM   12  C   UNK N   1      -2.175  -0.058  -0.989  0.00  0.00     0.031 A 
BRANCH  10  13
HETATM   13  S   UNK N   1      -5.828  -1.092   0.390  0.00  0.00     0.256 S 
HETATM   14  O   UNK N   1      -5.457  -2.398   1.110  0.00  0.00    -0.201 OA
HETATM   15  O   UNK N   1      -6.752  -0.425   1.420  0.00  0.00    -0.201 OA
BRANCH  13  16
HETATM   16  N   UNK N   1      -6.869  -1.597  -0.939  0.00  0.00    -0.324 N 
HETATM   17  H   UNK N   1      -7.424  -1.221  -1.708  0.00  0.00     0.169 HD
HETATM   18  H   UNK N   1      -6.943  -2.614  -0.939  0.00  0.00     0.169 HD
ENDBRANCH  13  16
ENDBRANCH  10  13
ENDBRANCH   1   7
BRANCH   4  19
HETATM   19  S   UNK N   1       2.469   1.936  -0.629  0.00  0.00     0.266 S 
HETATM   20  O   UNK N   1       1.584   1.587  -1.835  0.00  0.00    -0.200 OA
HETATM   21  O   UNK N   1       3.172   3.204  -1.135  0.00  0.00    -0.200 OA
BRANCH  19  22
HETATM   22  C   UNK N   1       3.657   0.653  -0.235  0.00  0.00     0.080 A 
HETATM   23  C   UNK N   1       5.024   0.949  -0.222  0.00  0.00     0.026 A 
HETATM   24  C   UNK N   1       5.957  -0.053   0.059  0.00  0.00     0.008 A 
HETATM   25  C   UNK N   1       5.526  -1.355   0.326  0.00  0.00    -0.062 A 
HETATM   26  C   UNK N   1       6.521  -2.420   0.620  0.00  0.00     0.048 C 
HETATM   27  C   UNK N   1       4.159  -1.655   0.315  0.00  0.00     0.008 A 
HETATM   28  C   UNK N   1       3.224  -0.652   0.033  0.00  0.00     0.026 A 
ENDBRANCH  19  22
ENDBRANCH   4  19
TORSDOF 5
