REMARK  3 active torsions:
REMARK  status: ('A' for Active; 'I' for Inactive)
REMARK    1  A    between atoms: C_6  and  C_5 
REMARK    2  A    between atoms: S_19  and  C_18 
REMARK    3  A    between atoms: N_22  and  S_19 
ROOT
HETATM    1  C   UNK N   1      -3.807   1.682   0.145  0.00  0.00     0.196 C 
HETATM    2  N   UNK N   1      -2.481   2.263  -0.052  0.00  0.00    -0.367 N 
HETATM    3  N   UNK N   1      -4.046   0.576  -0.789  0.00  0.00    -0.293 N 
HETATM    4  S   UNK N   1      -2.857  -0.673  -0.418  0.00  0.00     0.262 S 
HETATM    5  O   UNK N   1      -2.881  -1.607  -1.637  0.00  0.00    -0.200 OA
HETATM    6  O   UNK N   1      -3.463  -1.493   0.730  0.00  0.00    -0.200 OA
HETATM    7  C   UNK N   1      -1.303   0.112  -0.092  0.00  0.00     0.107 A 
HETATM    8  C   UNK N   1      -0.136  -0.629   0.059  0.00  0.00     0.053 A 
HETATM    9  C   UNK N   1      -1.280   1.508   0.002  0.00  0.00     0.053 A 
HETATM   10  C   UNK N   1      -0.056   2.164   0.167  0.00  0.00     0.039 A 
HETATM   11  C   UNK N   1       1.128   1.431   0.302  0.00  0.00    -0.037 A 
HETATM   12  C   UNK N   1       2.403   2.170   0.524  0.00  0.00     0.050 C 
HETATM   13  C   UNK N   1       1.084   0.019   0.283  0.00  0.00     0.082 A 
HETATM   14  H   UNK N   1      -2.417   3.229  -0.231  0.00  0.00     0.161 HD
HETATM   15  H   UNK N   1      -4.763   0.537  -1.514  0.00  0.00     0.174 HD
ENDROOT
BRANCH  13  16
HETATM   16  S   UNK N   1       2.511  -0.996   0.691  0.00  0.00     0.244 S 
HETATM   17  O   UNK N   1       1.979  -2.118   1.599  0.00  0.00    -0.206 OA
HETATM   18  O   UNK N   1       3.483  -0.322   1.672  0.00  0.00    -0.206 OA
BRANCH  16  19
HETATM   19  N   UNK N   1       3.486  -1.863  -0.520  0.00  0.00    -0.203 NA
HETATM   20  C   UNK N   1       4.078  -3.065   0.097  0.00  0.00     0.138 C 
HETATM   21  C   UNK N   1       5.593  -3.158  -0.082  0.00  0.00     0.287 C 
HETATM   22  N   UNK N   1       6.230  -1.939   0.408  0.00  0.00     0.086 N 
HETATM   23  C   UNK N   1       5.695  -0.721  -0.221  0.00  0.00     0.287 C 
HETATM   24  C   UNK N   1       7.634  -2.022   0.048  0.00  0.00     0.310 C 
HETATM   25  C   UNK N   1       4.474  -0.959  -1.127  0.00  0.00     0.138 C 
ENDBRANCH  16  19
ENDBRANCH  13  16
BRANCH   1  26
HETATM   26  C   UNK N   1      -4.861   2.776  -0.033  0.00  0.00     0.029 C 
HETATM   27  C   UNK N   1      -4.727   3.516  -1.345  0.00  0.00     0.008 C 
HETATM   28  C   UNK N   1      -6.098   4.095  -1.571  0.00  0.00     0.001 C 
HETATM   29  C   UNK N   1      -7.055   3.045  -1.039  0.00  0.00     0.001 C 
HETATM   30  C   UNK N   1      -6.281   2.234  -0.010  0.00  0.00     0.008 C 
ENDBRANCH   1  26
TORSDOF 3
