REMARK  3 active torsions:
REMARK  status: ('A' for Active; 'I' for Inactive)
REMARK    1  A    between atoms: C_6  and  C_5 
REMARK    2  A    between atoms: S_19  and  C_18 
REMARK    3  A    between atoms: S_19  and  N_22 
ROOT
HETATM    1  C   UNK N   1      -4.031   1.187   0.210  0.00  0.00     0.101 C 
HETATM    2  C   UNK N   1      -2.592   1.788   0.265  0.00  0.00     0.066 C 
HETATM    3  N   UNK N   1      -4.145  -0.054   0.980  0.00  0.00    -0.310 N 
HETATM    4  S   UNK N   1      -3.091  -1.247   0.236  0.00  0.00     0.259 S 
HETATM    5  O   UNK N   1      -3.812  -1.710  -1.039  0.00  0.00    -0.201 OA
HETATM    6  O   UNK N   1      -3.134  -2.454   1.184  0.00  0.00    -0.201 OA
HETATM    7  C   UNK N   1      -1.502  -0.515   0.020  0.00  0.00     0.087 A 
HETATM    8  C   UNK N   1      -0.379  -1.320  -0.103  0.00  0.00     0.051 A 
HETATM    9  C   UNK N   1      -1.391   0.881   0.052  0.00  0.00    -0.032 A 
HETATM   10  C   UNK N   1      -0.109   1.454  -0.054  0.00  0.00     0.017 A 
HETATM   11  C   UNK N   1       1.031   0.645  -0.186  0.00  0.00    -0.039 A 
HETATM   12  C   UNK N   1       2.369   1.296  -0.286  0.00  0.00     0.050 C 
HETATM   13  C   UNK N   1       0.897  -0.760  -0.206  0.00  0.00     0.082 A 
HETATM   14  H   UNK N   1      -4.732  -0.200   1.802  0.00  0.00     0.172 HD
ENDROOT
BRANCH  13  15
HETATM   15  S   UNK N   1       2.276  -1.911  -0.336  0.00  0.00     0.244 S 
HETATM   16  O   UNK N   1       2.400  -2.788   0.921  0.00  0.00    -0.206 OA
HETATM   17  O   UNK N   1       1.892  -2.980  -1.373  0.00  0.00    -0.206 OA
BRANCH  15  18
HETATM   18  N   UNK N   1       3.942  -1.434  -0.772  0.00  0.00    -0.203 NA
HETATM   19  C   UNK N   1       4.685  -1.140   0.468  0.00  0.00     0.138 C 
HETATM   20  C   UNK N   1       6.183  -1.471   0.349  0.00  0.00     0.287 C 
HETATM   21  N   UNK N   1       6.431  -2.878  -0.009  0.00  0.00     0.086 N 
HETATM   22  C   UNK N   1       5.298  -3.517  -0.687  0.00  0.00     0.287 C 
HETATM   23  C   UNK N   1       6.689  -3.622   1.212  0.00  0.00     0.310 C 
HETATM   24  C   UNK N   1       4.561  -2.509  -1.571  0.00  0.00     0.138 C 
ENDBRANCH  15  18
ENDBRANCH  13  15
BRANCH   1  25
HETATM   25  C   UNK N   1      -5.003   2.215   0.818  0.00  0.00     0.009 C 
HETATM   26  C   UNK N   1      -6.421   1.683   0.954  0.00  0.00     0.007 C 
HETATM   27  C   UNK N   1      -7.161   2.102  -0.300  0.00  0.00     0.000 C 
HETATM   28  C   UNK N   1      -6.334   3.196  -0.952  0.00  0.00     0.000 C 
HETATM   29  C   UNK N   1      -5.150   3.458  -0.039  0.00  0.00     0.007 C 
ENDBRANCH   1  25
TORSDOF 3
