REMARK  6 active torsions:
REMARK  status: ('A' for Active; 'I' for Inactive)
REMARK    1  A    between atoms: N_1  and  C_2 
REMARK    2  A    between atoms: N_1  and  S_9 
REMARK    3  A    between atoms: C_6  and  N_8 
REMARK    4  A    between atoms: S_9  and  C_10 
REMARK    5  A    between atoms: C_13  and  C_16 
REMARK    6  A    between atoms: C_16  and  O_18 
ROOT
HETATM    1  S   UNK N   1       1.263  -0.580  -0.085  0.00  0.00     0.264 S 
HETATM    2  O   UNK N   1       2.715  -0.112  -0.249  0.00  0.00    -0.200 OA
HETATM    3  O   UNK N   1       0.855   0.043   1.260  0.00  0.00    -0.200 OA
ENDROOT
BRANCH   1   4
HETATM    4  N   UNK N   1       0.379   0.346  -1.282  0.00  0.00    -0.281 N 
HETATM    5  H   UNK N   1       0.637   0.308  -2.231  0.00  0.00     0.179 HD
BRANCH   4   6
HETATM    6  C   UNK N   1      -0.703   1.143  -0.871  0.00  0.00     0.045 A 
HETATM    7  C   UNK N   1      -1.981   0.588  -0.778  0.00  0.00     0.030 A 
HETATM    8  C   UNK N   1      -3.036   1.350  -0.271  0.00  0.00     0.005 A 
HETATM    9  C   UNK N   1      -2.807   2.660   0.161  0.00  0.00     0.036 A 
HETATM   10  C   UNK N   1      -1.523   3.221   0.077  0.00  0.00     0.105 A 
HETATM   11  C   UNK N   1      -0.472   2.451  -0.440  0.00  0.00     0.066 A 
BRANCH  10  12
HETATM   12  N   UNK N   1      -1.286   4.546   0.535  0.00  0.00    -0.116 N 
HETATM   13  O   UNK N   1      -2.268   5.251   1.057  0.00  0.00    -0.532 OA
HETATM   14  O   UNK N   1      -0.192   5.020   0.471  0.00  0.00    -0.532 OA
ENDBRANCH  10  12
ENDBRANCH   4   6
ENDBRANCH   1   4
BRANCH   1  15
HETATM   15  C   UNK N   1       0.960  -2.349  -0.123  0.00  0.00     0.104 A 
HETATM   16  C   UNK N   1       1.871  -3.360   0.229  0.00  0.00     0.101 A 
HETATM   17  S   UNK N   1       1.070  -4.795   0.025  0.00  0.00    -0.094 SA
HETATM   18  C   UNK N   1      -0.409  -4.246  -0.489  0.00  0.00     0.052 A 
HETATM   19  C   UNK N   1      -0.312  -2.850  -0.521  0.00  0.00     0.034 A 
BRANCH  16  20
HETATM   20  C   UNK N   1       3.266  -3.258   0.705  0.00  0.00     0.184 C 
HETATM   21  O   UNK N   1       3.792  -2.174   0.884  0.00  0.00    -0.646 OA
BRANCH  20  22
HETATM   22  O   UNK N   1       3.968  -4.378   0.957  0.00  0.00    -0.772 OA
HETATM   23  H   UNK N   1       3.537  -5.192   1.133  0.00  0.00     0.167 HD
ENDBRANCH  20  22
ENDBRANCH  16  20
ENDBRANCH   1  15
TORSDOF 6
