REMARK  4 active torsions:
REMARK  status: ('A' for Active; 'I' for Inactive)
REMARK    1  A    between atoms: C_9  and  O_10 
REMARK    2  A    between atoms: C_9  and  C_11 
REMARK    3  A    between atoms: C_14  and  C_15 
REMARK    4  A    between atoms: C_20  and  N_21 
ROOT
HETATM    1  C   UNK N   1       1.088  -0.580  -0.219  0.00  0.00     0.031 A 
HETATM    2  C   UNK N   1       1.182   0.731  -0.706  0.00  0.00     0.017 A 
HETATM    3  C   UNK N   1       2.359   1.461  -0.725  0.00  0.00     0.017 A 
HETATM    4  C   UNK N   1       3.526   0.898  -0.244  0.00  0.00     0.050 A 
HETATM    5  C   UNK N   1       3.514  -0.430   0.174  0.00  0.00     0.053 A 
HETATM    6  C   UNK N   1       2.342  -1.218   0.168  0.00  0.00     0.116 A 
ENDROOT
BRANCH   1   7
HETATM    7  C   UNK N   1      -0.315  -1.198  -0.139  0.00  0.00     0.096 C 
HETATM    8  C   UNK N   1      -1.526  -0.505  -0.207  0.00  0.00     0.089 C 
HETATM    9  C   UNK N   1      -2.840  -1.267  -0.209  0.00  0.00     0.166 C 
HETATM   10  C   UNK N   1      -1.693   0.992  -0.240  0.00  0.00     0.166 C 
HETATM   11  O   UNK N   1      -2.861  -2.488  -0.187  0.00  0.00    -0.292 OA
HETATM   12  C   UNK N   1      -4.175  -0.557  -0.252  0.00  0.00     0.084 C 
HETATM   13  C   UNK N   1      -4.109   0.943   0.013  0.00  0.00     0.015 C 
HETATM   14  C   UNK N   1      -2.968   1.567  -0.755  0.00  0.00     0.084 C 
HETATM   15  O   UNK N   1      -0.894   1.752   0.279  0.00  0.00    -0.292 OA
BRANCH   7  16
HETATM   16  O   UNK N   1      -0.402  -2.526   0.003  0.00  0.00    -0.359 OA
HETATM   17  H   UNK N   1      -1.237  -2.938   0.102  0.00  0.00     0.217 HD
ENDBRANCH   7  16
ENDBRANCH   1   7
BRANCH   6  18
HETATM   18  N   UNK N   1       2.507  -2.590   0.573  0.00  0.00    -0.115 N 
HETATM   19  O   UNK N   1       3.539  -2.922   1.079  0.00  0.00    -0.532 OA
HETATM   20  O   UNK N   1       1.714  -3.534   0.130  0.00  0.00    -0.532 OA
ENDBRANCH   6  18
BRANCH   4  21
HETATM   21  C   UNK N   1       4.772   1.731  -0.165  0.00  0.00     0.417 C 
HETATM   22  F   UNK N   1       5.816   1.016   0.396  0.00  0.00    -0.166 F 
HETATM   23  F   UNK N   1       5.139   2.147  -1.431  0.00  0.00    -0.166 F 
HETATM   24  F   UNK N   1       4.524   2.842   0.623  0.00  0.00    -0.166 F 
ENDBRANCH   4  21
TORSDOF 4
