REMARK  6 active torsions:
REMARK  status: ('A' for Active; 'I' for Inactive)
REMARK    1  A    between atoms: C_18  and  O_19 
REMARK    2  A    between atoms: O_19  and  C_21 
REMARK    3  A    between atoms: C_21  and  C_24 
REMARK    4  A    between atoms: C_23  and  C_24 
REMARK    5  A    between atoms: C_23  and  C_25 
REMARK    6  A    between atoms: C_25  and  O_27 
ROOT
HETATM    1  C   UNK N   1      -0.221   3.342  -0.563  0.00  0.00     0.017 C 
HETATM    2  C   UNK N   1      -0.296   4.861  -0.349  0.00  0.00     0.084 C 
HETATM    3  C   UNK N   1      -1.725   5.326  -0.176  0.00  0.00     0.149 C 
HETATM    4  O   UNK N   1      -1.964   6.517  -0.080  0.00  0.00    -0.293 OA
HETATM    5  C   UNK N   1      -2.838   4.339  -0.194  0.00  0.00     0.053 C 
HETATM    6  C   UNK N   1      -2.574   3.039   0.030  0.00  0.00    -0.072 C 
HETATM    7  C   UNK N   1      -3.647   2.016  -0.264  0.00  0.00     0.035 C 
HETATM    8  C   UNK N   1      -3.221   0.543  -0.145  0.00  0.00     0.010 C 
HETATM    9  C   UNK N   1      -1.727   0.290  -0.396  0.00  0.00    -0.005 C 
HETATM   10  C   UNK N   1      -0.932   1.162   0.606  0.00  0.00    -0.002 C 
HETATM   11  C   UNK N   1      -1.165   2.664   0.437  0.00  0.00     0.019 C 
HETATM   12  C   UNK N   1       0.585   0.901   0.555  0.00  0.00     0.006 C 
HETATM   13  C   UNK N   1       0.932  -0.561   0.719  0.00  0.00     0.012 C 
HETATM   14  C   UNK N   1       0.124  -1.437  -0.229  0.00  0.00    -0.013 C 
HETATM   15  C   UNK N   1      -1.368  -1.180  -0.063  0.00  0.00     0.001 C 
HETATM   16  C   UNK N   1      -1.994  -2.341  -0.835  0.00  0.00     0.008 C 
HETATM   17  C   UNK N   1      -0.976  -3.502  -0.661  0.00  0.00     0.034 C 
HETATM   18  C   UNK N   1       0.186  -2.908   0.150  0.00  0.00     0.140 C 
HETATM   19  C   UNK N   1       0.583  -1.221  -1.688  0.00  0.00     0.018 C 
ENDROOT
BRANCH  18  20
HETATM   20  O   UNK N   1       1.425  -3.471  -0.120  0.00  0.00    -0.315 OA
BRANCH  20  21
HETATM   21  C   UNK N   1       2.536  -3.192   0.627  0.00  0.00     0.259 C 
HETATM   22  O   UNK N   1       2.441  -2.666   1.724  0.00  0.00    -0.265 OA
BRANCH  21  23
HETATM   23  C   UNK N   1       3.893  -3.526   0.110  0.00  0.00     0.121 C 
BRANCH  23  24
HETATM   24  C   UNK N   1       4.185  -2.712  -1.137  0.00  0.00     0.119 C 
BRANCH  24  25
HETATM   25  C   UNK N   1       5.652  -2.466  -1.261  0.00  0.00     0.139 C 
HETATM   26  O   UNK N   1       6.228  -1.760  -0.450  0.00  0.00    -0.650 OA
BRANCH  25  27
HETATM   27  O   UNK N   1       6.338  -3.011  -2.283  0.00  0.00    -0.776 OA
HETATM   28  H   UNK N   1       6.248  -3.615  -2.994  0.00  0.00     0.167 HD
ENDBRANCH  25  27
ENDBRANCH  24  25
ENDBRANCH  23  24
ENDBRANCH  21  23
ENDBRANCH  20  21
ENDBRANCH  18  20
TORSDOF 6
