REMARK  9 active torsions:
REMARK  status: ('A' for Active; 'I' for Inactive)
REMARK    1  A    between atoms: C_2  and  C_3 
REMARK       I    between atoms: C_2  and  N_13 
REMARK    2  A    between atoms: C_3  and  C_4 
REMARK    3  A    between atoms: C_3  and  C_8 
REMARK    4  A    between atoms: C_4  and  C_5 
REMARK    5  A    between atoms: C_5  and  C_6 
REMARK    6  A    between atoms: C_8  and  N_9 
REMARK    7  A    between atoms: N_9  and  O_10 
REMARK    8  A    between atoms: N_9  and  C_11 
REMARK    9  A    between atoms: C_14  and  C_18 
ROOT
HETATM    1  O   UNK N   1      -0.298   0.154  -1.468  0.00  0.00    -0.273 OA
HETATM    2  C   UNK N   1       0.323  -0.291  -0.508  0.00  0.00     0.226 C 
HETATM    3  N   UNK N   1       1.513   0.297  -0.148  0.00  0.00    -0.340 N 
HETATM    4  C   UNK N   1       1.905   1.589  -0.661  0.00  0.00     0.162 C 
HETATM    5  C   UNK N   1       3.223   1.906   0.030  0.00  0.00     0.035 C 
HETATM    6  C   UNK N   1       3.634   0.629   0.763  0.00  0.00     0.022 C 
HETATM    7  C   UNK N   1       2.380  -0.222   0.868  0.00  0.00     0.127 C 
ENDROOT
BRANCH   2   8
HETATM    8  C   UNK N   1      -0.350  -1.326   0.377  0.00  0.00     0.098 C 
BRANCH   8   9
HETATM    9  C   UNK N   1      -1.787  -1.668  -0.051  0.00  0.00     0.016 C 
BRANCH   9  10
HETATM   10  C   UNK N   1      -1.921  -2.789  -1.066  0.00  0.00     0.001 C 
BRANCH  10  11
HETATM   11  C   UNK N   1      -2.775  -3.902  -0.475  0.00  0.00    -0.005 C 
HETATM   12  C   UNK N   1      -2.034  -4.633   0.633  0.00  0.00     0.005 C 
ENDBRANCH  10  11
ENDBRANCH   9  10
ENDBRANCH   8   9
BRANCH   8  13
HETATM   13  C   UNK N   1       0.445  -2.553   0.845  0.00  0.00     0.172 C 
BRANCH  13  14
HETATM   14  N   UNK N   1       1.270  -3.191  -0.149  0.00  0.00    -0.235 N 
BRANCH  14  15
HETATM   15  O   UNK N   1       0.745  -3.633  -1.299  0.00  0.00    -0.285 OA
HETATM   16  H   UNK N   1       0.277  -3.464  -2.132  0.00  0.00     0.245 HD
ENDBRANCH  14  15
BRANCH  14  17
HETATM   17  C   UNK N   1       2.547  -3.488   0.175  0.00  0.00     0.376 C 
HETATM   18  O   UNK N   1       3.254  -4.124  -0.590  0.00  0.00    -0.281 OA
ENDBRANCH  14  17
ENDBRANCH  13  14
ENDBRANCH   8  13
ENDBRANCH   2   8
BRANCH   4  19
HETATM   19  C   UNK N   1       0.844   2.587  -0.243  0.00  0.00     0.148 A 
HETATM   20  O   UNK N   1       0.622   3.756  -0.819  0.00  0.00    -0.293 OA
HETATM   21  C   UNK N   1      -0.511   4.207  -0.329  0.00  0.00     0.104 A 
HETATM   22  C   UNK N   1      -0.986   3.296   0.562  0.00  0.00     0.068 A 
HETATM   23  C   UNK N   1      -1.217   5.361  -0.646  0.00  0.00     0.040 A 
HETATM   24  N   UNK N   1      -0.149   2.265   0.635  0.00  0.00    -0.336 N 
HETATM   25  C   UNK N   1      -2.204   3.451   1.217  0.00  0.00     0.032 A 
ATOM     26  HN  UNK N   1      -0.231   1.428   1.213  1.00  0.00     0.168 HD
HETATM   27  C   UNK N   1      -2.950   4.605   0.924  0.00  0.00     0.002 A 
HETATM   28  C   UNK N   1      -2.460   5.557  -0.003  0.00  0.00     0.003 A 
ENDBRANCH   4  19
TORSDOF 9
