REMARK  6 active torsions:
REMARK  status: ('A' for Active; 'I' for Inactive)
REMARK    1  A    between atoms: C_2  and  C_3 
REMARK       I    between atoms: C_2  and  N_10 
REMARK    2  A    between atoms: C_5  and  N_6 
REMARK    3  A    between atoms: N_10  and  C_11 
REMARK    4  A    between atoms: N_10  and  C_18 
REMARK    5  A    between atoms: C_11  and  C_12 
REMARK    6  A    between atoms: C_18  and  C_19 
ROOT
HETATM    1  O   UNK N   1      -2.317  -0.468   0.000  0.00  0.00    -0.265 OA
HETATM    2  C   UNK N   1      -1.188  -0.907   0.000  0.00  0.00     0.279 C 
HETATM    3  N   UNK N   1      -0.091  -0.061   0.000  0.00  0.00    -0.338 N 
ENDROOT
BRANCH   3   4
HETATM    4  C   UNK N   1      -0.141   1.415   0.000  0.00  0.00     0.165 C 
BRANCH   4   5
HETATM    5  C   UNK N   1      -1.333   2.365  -0.000  0.00  0.00    -0.040 A 
HETATM    6  C   UNK N   1      -2.681   1.993  -0.000  0.00  0.00     0.009 A 
HETATM    7  C   UNK N   1      -3.700   2.947  -0.000  0.00  0.00     0.001 A 
HETATM    8  C   UNK N   1      -3.380   4.303  -0.000  0.00  0.00     0.000 A 
HETATM    9  C   UNK N   1      -2.042   4.698   0.000  0.00  0.00     0.001 A 
HETATM   10  C   UNK N   1      -1.028   3.734   0.000  0.00  0.00     0.009 A 
ENDBRANCH   4   5
ENDBRANCH   3   4
BRANCH   3  11
HETATM   11  C   UNK N   1       1.229  -0.695  -0.000  0.00  0.00     0.165 C 
BRANCH  11  12
HETATM   12  C   UNK N   1       2.528   0.078  -0.000  0.00  0.00    -0.040 A 
HETATM   13  C   UNK N   1       2.628   1.478  -0.000  0.00  0.00     0.009 A 
HETATM   14  C   UNK N   1       3.879   2.100   0.000  0.00  0.00     0.001 A 
HETATM   15  C   UNK N   1       5.044   1.329   0.000  0.00  0.00     0.000 A 
HETATM   16  C   UNK N   1       4.956  -0.064  -0.000  0.00  0.00     0.001 A 
HETATM   17  C   UNK N   1       3.704  -0.683  -0.000  0.00  0.00     0.009 A 
ENDBRANCH  11  12
ENDBRANCH   3  11
BRANCH   2  18
HETATM   18  C   UNK N   1      -1.077  -2.397   0.000  0.00  0.00     0.162 A 
HETATM   19  O   UNK N   1      -2.127  -3.181   0.000  0.00  0.00    -0.273 OA
HETATM   20  C   UNK N   1      -1.693  -4.414  -0.000  0.00  0.00     0.222 A 
HETATM   21  N   UNK N   1      -0.350  -4.485  -0.000  0.00  0.00    -0.329 N 
HETATM   22  C   UNK N   1       0.055  -3.200  -0.000  0.00  0.00     0.134 A 
ATOM     23  HN  UNK N   1       0.231  -5.324  -0.000  1.00  0.00     0.168 HD
BRANCH  20  24
HETATM   24  N   UNK N   1      -2.535  -5.543  -0.000  0.00  0.00    -0.365 N 
HETATM   25  H   UNK N   1      -3.512  -5.428  -0.000  0.00  0.00     0.159 HD
HETATM   26  H   UNK N   1      -2.145  -6.447  -0.000  0.00  0.00     0.159 HD
ENDBRANCH  20  24
ENDBRANCH   2  18
TORSDOF 6
