REMARK  1 active torsions:
REMARK  status: ('A' for Active; 'I' for Inactive)
REMARK    1  A    between atoms: C_14  and  N_16 
ROOT
HETATM    1  O   UNK N   1      -0.152  -2.576  -0.000  0.00  0.00    -0.292 OA
HETATM    2  C   UNK N   1      -0.064  -1.359   0.000  0.00  0.00     0.166 A 
HETATM    3  C   UNK N   1      -1.329  -0.570  -0.000  0.00  0.00     0.093 A 
HETATM    4  C   UNK N   1      -1.316   0.965   0.000  0.00  0.00    -0.036 A 
HETATM    5  C   UNK N   1      -2.824   0.859   0.000  0.00  0.00     0.015 C 
HETATM    6  C   UNK N   1      -1.846   2.382  -0.000  0.00  0.00     0.015 C 
HETATM    7  C   UNK N   1       0.106   1.560  -0.000  0.00  0.00     0.067 A 
HETATM    8  C   UNK N   1       1.328   0.696  -0.000  0.00  0.00     0.028 A 
HETATM    9  N   UNK N   1       2.542   1.308  -0.000  0.00  0.00    -0.355 N 
ATOM     10  HN  UNK N   1       2.588   2.327  -0.000  1.00  0.00     0.166 HD
HETATM   11  C   UNK N   1       3.693   0.591   0.000  0.00  0.00     0.182 A 
HETATM   12  N   UNK N   1       3.650  -0.763   0.000  0.00  0.00    -0.338 N 
ATOM     13  HN  UNK N   1       4.522  -1.293   0.000  1.00  0.00     0.168 HD
HETATM   14  C   UNK N   1       2.465  -1.427   0.000  0.00  0.00     0.115 A 
HETATM   15  C   UNK N   1       1.255  -0.699   0.000  0.00  0.00     0.076 A 
ENDROOT
BRANCH  14  16
HETATM   16  N   UNK N   1       2.472  -2.837   0.000  0.00  0.00    -0.385 N 
HETATM   17  H   UNK N   1       1.622  -3.334   0.000  0.00  0.00     0.157 HD
HETATM   18  H   UNK N   1       3.327  -3.325   0.000  0.00  0.00     0.157 HD
ENDBRANCH  14  16
TORSDOF 1
