REMARK  4 active torsions:
REMARK  status: ('A' for Active; 'I' for Inactive)
REMARK    1  A    between atoms: C_2  and  C_7 
REMARK    2  A    between atoms: C_3  and  S_14 
REMARK    3  A    between atoms: C_12  and  O_13 
REMARK    4  A    between atoms: S_14  and  O_16 
ROOT
HETATM    1  C   UNK N   1       1.757   0.608   0.129  0.00  0.00     0.014 A 
HETATM    2  C   UNK N   1       0.518  -0.042  -0.028  0.00  0.00    -0.002 A 
HETATM    3  C   UNK N   1       0.531  -1.481  -0.105  0.00  0.00     0.070 A 
HETATM    4  C   UNK N   1       1.763  -2.156  -0.038  0.00  0.00     0.024 A 
HETATM    5  C   UNK N   1       2.963  -1.472   0.120  0.00  0.00     0.002 A 
HETATM    6  C   UNK N   1       2.959  -0.088   0.205  0.00  0.00     0.001 A 
ENDROOT
BRANCH   2   7
HETATM    7  C   UNK N   1      -0.733   0.822  -0.095  0.00  0.00     0.009 A 
HETATM    8  C   UNK N   1      -2.006   0.231  -0.132  0.00  0.00     0.015 A 
HETATM    9  C   UNK N   1      -3.174   0.993  -0.168  0.00  0.00     0.001 A 
HETATM   10  C   UNK N   1      -3.098   2.381  -0.173  0.00  0.00     0.003 A 
HETATM   11  C   UNK N   1      -1.854   3.004  -0.149  0.00  0.00     0.037 A 
HETATM   12  C   UNK N   1      -0.676   2.250  -0.109  0.00  0.00     0.076 A 
BRANCH  12  13
HETATM   13  O   UNK N   1       0.493   2.913  -0.091  0.00  0.00    -0.360 OA
HETATM   14  H   UNK N   1       1.300   2.439  -0.079  0.00  0.00     0.217 HD
ENDBRANCH  12  13
ENDBRANCH   2   7
BRANCH   3  15
HETATM   15  S   UNK N   1      -0.954  -2.506  -0.339  0.00  0.00     0.188 S 
HETATM   16  O   UNK N   1      -1.453  -2.257   1.093  0.00  0.00    -0.223 OA
BRANCH  15  17
HETATM   17  O   UNK N   1      -0.222  -3.988   0.140  0.00  0.00    -0.302 OA
HETATM   18  H   UNK N   1      -0.739  -4.763   0.410  0.00  0.00     0.230 HD
ENDBRANCH  15  17
ENDBRANCH   3  15
TORSDOF 4
