REMARK  10 active torsions:
REMARK  status: ('A' for Active; 'I' for Inactive)
REMARK    1  A    between atoms: C_3  and  O_4 
REMARK    2  A    between atoms: C_7  and  C_8 
REMARK    3  A    between atoms: C_11  and  C_12 
REMARK    4  A    between atoms: C_12  and  O_14 
REMARK    5  A    between atoms: O_14  and  C_15 
REMARK    6  A    between atoms: C_17  and  C_18 
REMARK    7  A    between atoms: C_18  and  O_20 
REMARK    8  A    between atoms: O_20  and  C_21 
REMARK    9  A    between atoms: C_24  and  C_25 
REMARK   10  A    between atoms: C_28  and  O_29 
ROOT
HETATM    1  C   UNK N   1      -1.015   0.999  -0.062  0.00  0.00    -0.009 C 
HETATM    2  C   UNK N   1       0.227   1.406  -0.805  0.00  0.00     0.171 C 
HETATM    3  O   UNK N   1      -0.034   0.614  -1.925  0.00  0.00    -0.369 OA
HETATM    4  C   UNK N   1       1.637   0.831  -0.435  0.00  0.00     0.135 C 
HETATM    5  C   UNK N   1       1.503  -0.622  -0.970  0.00  0.00     0.135 C 
HETATM    6  C   UNK N   1      -0.015  -0.670  -1.282  0.00  0.00     0.171 C 
HETATM    7  C   UNK N   1      -1.163  -0.307  -0.342  0.00  0.00    -0.009 C 
ENDROOT
BRANCH   1   8
HETATM    8  C   UNK N   1      -2.029   1.991   0.457  0.00  0.00    -0.026 A 
HETATM    9  C   UNK N   1      -1.725   3.365   0.439  0.00  0.00     0.015 A 
HETATM   10  C   UNK N   1      -2.720   4.327   0.667  0.00  0.00     0.037 A 
HETATM   11  C   UNK N   1      -4.039   3.929   0.896  0.00  0.00     0.065 A 
HETATM   12  C   UNK N   1      -4.354   2.574   0.937  0.00  0.00     0.037 A 
HETATM   13  C   UNK N   1      -3.357   1.623   0.709  0.00  0.00     0.015 A 
BRANCH  11  14
HETATM   14  O   UNK N   1      -5.005   4.848   1.066  0.00  0.00    -0.361 OA
HETATM   15  H   UNK N   1      -4.788   5.751   1.184  0.00  0.00     0.217 HD
ENDBRANCH  11  14
ENDBRANCH   1   8
BRANCH   7  16
HETATM   16  C   UNK N   1      -2.287  -1.307  -0.085  0.00  0.00    -0.026 A 
HETATM   17  C   UNK N   1      -2.211  -2.542  -0.756  0.00  0.00     0.015 A 
HETATM   18  C   UNK N   1      -3.189  -3.521  -0.588  0.00  0.00     0.037 A 
HETATM   19  C   UNK N   1      -4.266  -3.284   0.262  0.00  0.00     0.065 A 
HETATM   20  C   UNK N   1      -4.351  -2.075   0.956  0.00  0.00     0.037 A 
HETATM   21  C   UNK N   1      -3.361  -1.099   0.789  0.00  0.00     0.015 A 
BRANCH  19  22
HETATM   22  O   UNK N   1      -5.218  -4.219   0.412  0.00  0.00    -0.361 OA
HETATM   23  H   UNK N   1      -6.115  -3.970   0.516  0.00  0.00     0.217 HD
ENDBRANCH  19  22
ENDBRANCH   7  16
BRANCH   4  24
HETATM   24  C   UNK N   1       2.268   1.066   0.920  0.00  0.00     0.266 C 
HETATM   25  O   UNK N   1       1.610   1.563   1.822  0.00  0.00    -0.265 OA
BRANCH  24  26
HETATM   26  O   UNK N   1       3.599   0.837   1.119  0.00  0.00    -0.321 OA
BRANCH  26  27
HETATM   27  C   UNK N   1       4.448   0.380   0.125  0.00  0.00     0.174 C 
HETATM   28  C   UNK N   1       5.514   1.407  -0.193  0.00  0.00     0.034 C 
ENDBRANCH  26  27
ENDBRANCH  24  26
ENDBRANCH   4  24
BRANCH   5  29
HETATM   29  C   UNK N   1       2.170  -1.884  -0.389  0.00  0.00     0.266 C 
HETATM   30  O   UNK N   1       1.987  -2.946  -0.973  0.00  0.00    -0.265 OA
BRANCH  29  31
HETATM   31  O   UNK N   1       2.937  -1.855   0.728  0.00  0.00    -0.321 OA
BRANCH  31  32
HETATM   32  C   UNK N   1       3.610  -2.969   1.195  0.00  0.00     0.174 C 
HETATM   33  C   UNK N   1       4.682  -3.415   0.207  0.00  0.00     0.034 C 
ENDBRANCH  31  32
ENDBRANCH  29  31
ENDBRANCH   5  29
TORSDOF 10
