REMARK  13 active torsions:
REMARK  status: ('A' for Active; 'I' for Inactive)
REMARK    1  A    between atoms: C_1  and  N_2 
REMARK    2  A    between atoms: N_2  and  C_13 
REMARK    3  A    between atoms: C_3  and  O_4 
REMARK    4  A    between atoms: C_5  and  O_6 
REMARK    5  A    between atoms: C_7  and  O_8 
REMARK    6  A    between atoms: C_10  and  C_9 
REMARK    7  A    between atoms: C_10  and  O_11 
REMARK    8  A    between atoms: C_13  and  C_14 
REMARK    9  A    between atoms: C_14  and  C_15 
REMARK   10  A    between atoms: C_16  and  C_15 
REMARK   11  A    between atoms: C_17  and  C_16 
REMARK   12  A    between atoms: C_18  and  C_17 
REMARK   13  A    between atoms: C_19  and  C_18 
ROOT
HETATM    1  C   UNK N   1      -2.403   0.596  -0.601  0.00  0.00     0.131 C 
HETATM    2  C   UNK N   1      -2.101  -0.918  -0.331  0.00  0.00     0.175 C 
HETATM    3  C   UNK N   1      -3.360  -1.704   0.135  0.00  0.00     0.182 C 
HETATM    4  C   UNK N   1      -4.653  -1.042  -0.371  0.00  0.00     0.180 C 
HETATM    5  C   UNK N   1      -4.688   0.351   0.248  0.00  0.00    -0.027 C 
HETATM    6  C   UNK N   1      -3.584   1.115   0.182  0.00  0.00     0.008 C 
ENDROOT
BRANCH   1   7
HETATM    7  N   UNK N   1      -1.224   1.463  -0.526  0.00  0.00    -0.411 N 
HETATM    8  H   UNK N   1      -0.755   1.874  -1.334  0.00  0.00     0.153 HD
BRANCH   7   9
HETATM    9  C   UNK N   1      -0.809   1.659   0.861  0.00  0.00     0.114 C 
BRANCH   9  10
HETATM   10  C   UNK N   1       0.684   1.910   0.925  0.00  0.00     0.019 C 
BRANCH  10  11
HETATM   11  C   UNK N   1       1.453   0.660   0.541  0.00  0.00     0.002 C 
BRANCH  11  12
HETATM   12  C   UNK N   1       2.338   0.972  -0.652  0.00  0.00     0.000 C 
BRANCH  12  13
HETATM   13  C   UNK N   1       3.550   0.057  -0.683  0.00  0.00     0.000 C 
BRANCH  13  14
HETATM   14  C   UNK N   1       4.435   0.327   0.524  0.00  0.00    -0.000 C 
BRANCH  14  15
HETATM   15  C   UNK N   1       5.799  -0.303   0.337  0.00  0.00    -0.005 C 
HETATM   16  C   UNK N   1       6.730   0.690  -0.330  0.00  0.00     0.005 C 
ENDBRANCH  14  15
ENDBRANCH  13  14
ENDBRANCH  12  13
ENDBRANCH  11  12
ENDBRANCH  10  11
ENDBRANCH   9  10
ENDBRANCH   7   9
ENDBRANCH   1   7
BRANCH   2  17
HETATM   17  O   UNK N   1      -1.094  -1.108   0.619  0.00  0.00    -0.391 OA
HETATM   18  H   UNK N   1      -0.859  -1.779   1.278  0.00  0.00     0.210 HD
ENDBRANCH   2  17
BRANCH   3  19
HETATM   19  O   UNK N   1      -3.270  -3.040  -0.263  0.00  0.00    -0.390 OA
HETATM   20  H   UNK N   1      -4.042  -3.558  -0.539  0.00  0.00     0.210 HD
ENDBRANCH   3  19
BRANCH   5  21
HETATM   21  C   UNK N   1      -5.870   0.820   1.037  0.00  0.00     0.201 C 
BRANCH  21  22
HETATM   22  O   UNK N   1      -6.431   1.944   0.429  0.00  0.00    -0.397 OA
HETATM   23  H   UNK N   1      -5.949   2.673   0.007  0.00  0.00     0.209 HD
ENDBRANCH  21  22
ENDBRANCH   5  21
BRANCH   4  24
HETATM   24  O   UNK N   1      -5.770  -1.786   0.016  0.00  0.00    -0.388 OA
HETATM   25  H   UNK N   1      -6.605  -1.372   0.285  0.00  0.00     0.210 HD
ENDBRANCH   4  24
TORSDOF 13
