REMARK  16 active torsions:
REMARK  status: ('A' for Active; 'I' for Inactive)
REMARK    1  A    between atoms: C_3  and  O_4 
REMARK    2  A    between atoms: C_7  and  C_8 
REMARK    3  A    between atoms: C_9  and  C_10 
REMARK    4  A    between atoms: C_10  and  O_12 
REMARK    5  A    between atoms: C_13  and  O_12 
REMARK    6  A    between atoms: C_13  and  C_14 
REMARK    7  A    between atoms: C_13  and  C_18 
REMARK    8  A    between atoms: C_14  and  C_15 
REMARK    9  A    between atoms: C_15  and  O_16 
REMARK   10  A    between atoms: C_18  and  C_19 
REMARK   11  A    between atoms: C_18  and  O_22 
REMARK   12  A    between atoms: C_19  and  O_20 
REMARK   13  A    between atoms: O_22  and  C_23 
REMARK   14  A    between atoms: C_23  and  C_25 
REMARK   15  A    between atoms: C_26  and  C_27 
REMARK   16  A    between atoms: C_30  and  O_31 
ROOT
HETATM    1  C   UNK N   1       0.920   1.751   0.160  0.00  0.00     0.182 C 
ENDROOT
BRANCH   1   2
HETATM    2  O   UNK N   1      -0.273   1.244   0.662  0.00  0.00    -0.309 OA
BRANCH   2   3
HETATM    3  C   UNK N   1      -1.259   0.620  -0.030  0.00  0.00     0.283 C 
HETATM    4  O   UNK N   1      -1.007  -0.078  -1.000  0.00  0.00    -0.260 OA
BRANCH   3   5
HETATM    5  C   UNK N   1      -2.657   0.895   0.348  0.00  0.00     0.083 C 
HETATM    6  C   UNK N   1      -3.706   0.071   0.202  0.00  0.00     0.017 C 
BRANCH   6   7
HETATM    7  C   UNK N   1      -3.664  -1.386  -0.033  0.00  0.00    -0.036 A 
HETATM    8  C   UNK N   1      -4.848  -2.037  -0.393  0.00  0.00     0.014 A 
HETATM    9  C   UNK N   1      -4.879  -3.428  -0.516  0.00  0.00     0.037 A 
HETATM   10  C   UNK N   1      -3.727  -4.178  -0.260  0.00  0.00     0.065 A 
HETATM   11  C   UNK N   1      -2.542  -3.536   0.105  0.00  0.00     0.037 A 
HETATM   12  C   UNK N   1      -2.512  -2.145   0.225  0.00  0.00     0.014 A 
BRANCH  10  13
HETATM   13  O   UNK N   1      -3.763  -5.516  -0.358  0.00  0.00    -0.361 OA
HETATM   14  H   UNK N   1      -4.584  -5.962  -0.427  0.00  0.00     0.217 HD
ENDBRANCH  10  13
ENDBRANCH   6   7
ENDBRANCH   3   5
ENDBRANCH   2   3
ENDBRANCH   1   2
BRANCH   1  15
HETATM   15  C   UNK N   1       0.608   2.907  -0.808  0.00  0.00     0.145 C 
BRANCH  15  16
HETATM   16  C   UNK N   1      -0.409   3.912  -0.313  0.00  0.00     0.141 C 
HETATM   17  O   UNK N   1      -0.906   3.818   0.799  0.00  0.00    -0.650 OA
BRANCH  16  18
HETATM   18  O   UNK N   1      -0.804   4.904  -1.131  0.00  0.00    -0.776 OA
HETATM   19  H   UNK N   1      -0.342   5.488  -1.700  0.00  0.00     0.167 HD
ENDBRANCH  16  18
ENDBRANCH  15  16
ENDBRANCH   1  15
BRANCH   1  20
HETATM   20  C   UNK N   1       1.806   0.678  -0.549  0.00  0.00     0.259 C 
BRANCH  20  21
HETATM   21  C   UNK N   1       2.036  -0.581   0.249  0.00  0.00     0.173 C 
HETATM   22  O   UNK N   1       2.631  -1.515  -0.261  0.00  0.00    -0.648 OA
BRANCH  21  23
HETATM   23  O   UNK N   1       1.566  -0.702   1.507  0.00  0.00    -0.774 OA
HETATM   24  H   UNK N   1       1.330  -0.461   2.381  0.00  0.00     0.167 HD
ENDBRANCH  21  23
ENDBRANCH  20  21
BRANCH  20  25
HETATM   25  O   UNK N   1       3.025   1.182  -0.995  0.00  0.00    -0.299 OA
BRANCH  25  26
HETATM   26  C   UNK N   1       4.041   1.717  -0.266  0.00  0.00     0.283 C 
HETATM   27  O   UNK N   1       5.074   2.023  -0.847  0.00  0.00    -0.260 OA
BRANCH  26  28
HETATM   28  C   UNK N   1       3.928   1.967   1.190  0.00  0.00     0.083 C 
HETATM   29  C   UNK N   1       4.399   3.070   1.800  0.00  0.00     0.017 C 
BRANCH  29  30
HETATM   30  C   UNK N   1       4.983   4.212   1.072  0.00  0.00    -0.036 A 
HETATM   31  C   UNK N   1       4.196   5.344   0.825  0.00  0.00     0.014 A 
HETATM   32  C   UNK N   1       4.726   6.429   0.119  0.00  0.00     0.037 A 
HETATM   33  C   UNK N   1       6.046   6.387  -0.339  0.00  0.00     0.065 A 
HETATM   34  C   UNK N   1       6.838   5.261  -0.087  0.00  0.00     0.037 A 
HETATM   35  C   UNK N   1       6.308   4.175   0.618  0.00  0.00     0.014 A 
BRANCH  33  36
HETATM   36  O   UNK N   1       6.555   7.427  -1.018  0.00  0.00    -0.361 OA
HETATM   37  H   UNK N   1       7.361   7.483  -1.492  0.00  0.00     0.217 HD
ENDBRANCH  33  36
ENDBRANCH  29  30
ENDBRANCH  26  28
ENDBRANCH  25  26
ENDBRANCH  20  25
ENDBRANCH   1  20
TORSDOF 16
