REMARK  11 active torsions:
REMARK  status: ('A' for Active; 'I' for Inactive)
REMARK    1  A    between atoms: C_2  and  C_3 
REMARK    2  A    between atoms: C_3  and  C_4 
REMARK    3  A    between atoms: C_4  and  C_5 
REMARK    4  A    between atoms: C_5  and  C_6 
REMARK    5  A    between atoms: C_6  and  C_7 
REMARK    6  A    between atoms: C_7  and  C_8 
REMARK    7  A    between atoms: C_8  and  C_9 
REMARK    8  A    between atoms: C_9  and  C_10 
REMARK    9  A    between atoms: C_10  and  C_12 
REMARK   10  A    between atoms: C_12  and  C_13 
REMARK       I    between atoms: C_13  and  N_15 
REMARK   11  A    between atoms: C_16  and  N_15 
ROOT
HETATM    1  C   UNK N   1       3.629   1.942   0.632  0.00  0.00     0.181 C 
ENDROOT
BRANCH   1   2
HETATM    2  C   UNK N   1       2.216   2.350   0.303  0.00  0.00     0.135 C 
HETATM    3  O   UNK N   1       1.902   3.532   0.319  0.00  0.00    -0.297 OA
BRANCH   2   4
HETATM    4  C   UNK N   1       1.188   1.293  -0.001  0.00  0.00     0.079 C 
BRANCH   4   5
HETATM    5  C   UNK N   1      -0.085   1.899  -0.580  0.00  0.00     0.007 C 
BRANCH   5   6
HETATM    6  C   UNK N   1      -1.301   1.624   0.282  0.00  0.00     0.000 C 
BRANCH   6   7
HETATM    7  C   UNK N   1      -2.381   2.613  -0.116  0.00  0.00     0.000 C 
BRANCH   7   8
HETATM    8  C   UNK N   1      -3.748   2.121   0.307  0.00  0.00     0.000 C 
BRANCH   8   9
HETATM    9  C   UNK N   1      -4.783   3.170  -0.048  0.00  0.00     0.000 C 
BRANCH   9  10
HETATM   10  C   UNK N   1      -6.172   2.596   0.139  0.00  0.00    -0.000 C 
BRANCH  10  11
HETATM   11  C   UNK N   1      -7.207   3.674  -0.108  0.00  0.00    -0.005 C 
HETATM   12  C   UNK N   1      -8.593   3.076   0.008  0.00  0.00     0.005 C 
ENDBRANCH  10  11
ENDBRANCH   9  10
ENDBRANCH   8   9
ENDBRANCH   7   8
ENDBRANCH   6   7
ENDBRANCH   5   6
ENDBRANCH   4   5
ENDBRANCH   2   4
ENDBRANCH   1   2
BRANCH   1  13
HETATM   13  C   UNK N   1       4.696   2.774  -0.041  0.00  0.00     0.225 C 
HETATM   14  O   UNK N   1       4.395   3.787  -0.660  0.00  0.00    -0.273 OA
HETATM   15  N   UNK N   1       5.995   2.393   0.054  0.00  0.00    -0.347 N 
HETATM   16  H   UNK N   1       6.207   1.556   0.527  0.00  0.00     0.163 HD
BRANCH  15  17
HETATM   17  C   UNK N   1       7.086   3.165  -0.512  0.00  0.00     0.178 A 
HETATM   18  C   UNK N   1       7.383   4.374   0.299  0.00  0.00     0.240 A 
HETATM   19  N   UNK N   1       8.621   4.406   0.789  0.00  0.00    -0.359 N 
HETATM   20  O   UNK N   1       6.588   5.275   0.495  0.00  0.00    -0.271 OA
HETATM   21  C   UNK N   1       9.380   3.253   0.413  0.00  0.00     0.125 A 
HETATM   22  H   UNK N   1       8.973   5.138   1.346  0.00  0.00     0.162 HD
HETATM   23  C   UNK N   1       8.402   2.383  -0.399  0.00  0.00     0.054 A 
ENDBRANCH  15  17
ENDBRANCH   1  13
TORSDOF 11
