REMARK  2 active torsions:
REMARK  status: ('A' for Active; 'I' for Inactive)
REMARK    1  A    between atoms: C_5  and  C_8 
REMARK    2  A    between atoms: C_17  and  O_18 
ROOT
HETATM    1  C   UNK N   1      -0.626   0.032  -0.003  0.00  0.00     0.109 A 
HETATM    2  S   UNK N   1       0.139   1.509  -0.014  0.00  0.00    -0.067 SA
HETATM    3  C   UNK N   1       1.675   0.928  -0.030  0.00  0.00     0.036 A 
HETATM    4  C   UNK N   1       2.889   1.599  -0.043  0.00  0.00     0.057 A 
HETATM    5  C   UNK N   1       1.582  -0.464  -0.027  0.00  0.00     0.050 A 
HETATM    6  N   UNK N   1       0.300  -0.969  -0.012  0.00  0.00    -0.347 N 
ATOM      7  HN  UNK N   1       0.073  -1.963  -0.008  1.00  0.00     0.167 HD
HETATM    8  C   UNK N   1       2.738  -1.241  -0.038  0.00  0.00     0.034 A 
HETATM    9  C   UNK N   1       3.985  -0.586  -0.052  0.00  0.00     0.039 A 
HETATM   10  C   UNK N   1       4.060   0.825  -0.053  0.00  0.00     0.067 A 
ENDROOT
BRANCH   1  11
HETATM   11  C   UNK N   1      -2.076  -0.175   0.007  0.00  0.00     0.107 A 
HETATM   12  N   UNK N   1      -2.883   0.812   0.003  0.00  0.00    -0.319 N 
HETATM   13  C   UNK N   1      -4.174   0.469   0.004  0.00  0.00     0.232 A 
ATOM     14  HN  UNK N   1      -2.569   1.782   0.000  1.00  0.00     0.169 HD
HETATM   15  O   UNK N   1      -5.055   1.312  -0.002  0.00  0.00    -0.272 OA
HETATM   16  C   UNK N   1      -4.469  -0.991   0.007  0.00  0.00     0.184 A 
HETATM   17  S   UNK N   1      -2.825  -1.806   0.015  0.00  0.00    -0.100 SA
ENDBRANCH   1  11
BRANCH  10  18
HETATM   18  O   UNK N   1       5.257   1.431  -0.064  0.00  0.00    -0.361 OA
HETATM   19  H   UNK N   1       6.042   0.919  -0.071  0.00  0.00     0.217 HD
ENDBRANCH  10  18
TORSDOF 2
