REMARK  3 active torsions:
REMARK  status: ('A' for Active; 'I' for Inactive)
REMARK    1  A    between atoms: N_8  and  C_9 
REMARK    2  A    between atoms: C_14  and  S_15 
REMARK    3  A    between atoms: S_15  and  N_18 
ROOT
HETATM    1  C   UNK N   1       0.158  -0.348   0.102  0.00  0.00     0.044 A 
HETATM    2  C   UNK N   1      -1.067  -1.036   0.046  0.00  0.00     0.032 A 
HETATM    3  C   UNK N   1      -2.274  -0.333  -0.007  0.00  0.00     0.027 A 
HETATM    4  C   UNK N   1       0.144   1.056   0.144  0.00  0.00     0.032 A 
HETATM    5  C   UNK N   1      -1.062   1.757   0.094  0.00  0.00     0.027 A 
HETATM    6  C   UNK N   1      -2.270   1.065   0.009  0.00  0.00     0.079 A 
ENDROOT
BRANCH   1   7
HETATM    7  N   UNK N   1       1.397  -1.061   0.058  0.00  0.00    -0.276 N 
HETATM    8  S   UNK N   1       2.938  -0.198   0.013  0.00  0.00     0.233 S 
HETATM    9  O   UNK N   1       2.852   0.685  -1.242  0.00  0.00    -0.205 OA
HETATM   10  C   UNK N   1       4.360  -1.316   0.029  0.00  0.00     0.163 C 
HETATM   11  O   UNK N   1       2.890   0.796   1.183  0.00  0.00    -0.205 OA
HETATM   12  C   UNK N   1       3.876  -2.699   0.431  0.00  0.00     0.018 C 
HETATM   13  C   UNK N   1       2.720  -3.133  -0.461  0.00  0.00     0.022 C 
HETATM   14  C   UNK N   1       1.387  -2.517  -0.019  0.00  0.00     0.142 C 
ENDBRANCH   1   7
BRANCH   6  15
HETATM   15  S   UNK N   1      -3.787   1.973  -0.238  0.00  0.00     0.256 S 
HETATM   16  O   UNK N   1      -3.951   3.184   0.692  0.00  0.00    -0.201 OA
HETATM   17  O   UNK N   1      -5.055   1.153   0.043  0.00  0.00    -0.201 OA
BRANCH  15  18
HETATM   18  N   UNK N   1      -4.015   2.611  -1.867  0.00  0.00    -0.324 N 
HETATM   19  H   UNK N   1      -3.761   2.910  -2.808  0.00  0.00     0.169 HD
HETATM   20  H   UNK N   1      -5.018   2.794  -1.867  0.00  0.00     0.169 HD
ENDBRANCH  15  18
ENDBRANCH   6  15
TORSDOF 3
