REMARK  5 active torsions:
REMARK  status: ('A' for Active; 'I' for Inactive)
REMARK    1  A    between atoms: C_1  and  O_2 
REMARK    2  A    between atoms: C_5  and  C_8 
REMARK    3  A    between atoms: N_9  and  O_11 
REMARK    4  A    between atoms: O_11  and  C_12 
REMARK    5  A    between atoms: C_12  and  C_14 
ROOT
HETATM    1  C   UNK N   1      -2.308   1.955  -0.718  0.00  0.00     0.126 C 
HETATM    2  N   UNK N   1      -1.903   0.845  -0.196  0.00  0.00    -0.268 N 
ATOM      3  HN  UNK N   1      -2.340  -0.036  -0.466  1.00  0.00     0.194 HD
ENDROOT
BRANCH   2   4
HETATM    4  O   UNK N   1      -0.924   0.854   0.684  0.00  0.00    -0.200 OA
BRANCH   4   5
HETATM    5  C   UNK N   1      -0.249  -0.232   1.138  0.00  0.00     0.285 C 
HETATM    6  O   UNK N   1       0.671  -0.047   1.914  0.00  0.00    -0.263 OA
BRANCH   5   7
HETATM    7  C   UNK N   1      -0.535  -1.653   0.717  0.00  0.00     0.087 C 
HETATM    8  C   UNK N   1       0.644  -2.184  -0.098  0.00  0.00     0.015 C 
HETATM    9  C   UNK N   1       0.480  -3.678  -0.349  0.00  0.00     0.001 C 
HETATM   10  C   UNK N   1      -0.843  -3.956  -1.058  0.00  0.00     0.000 C 
HETATM   11  C   UNK N   1      -2.012  -3.416  -0.237  0.00  0.00     0.001 C 
HETATM   12  C   UNK N   1      -1.850  -1.915  -0.013  0.00  0.00     0.015 C 
ENDBRANCH   5   7
ENDBRANCH   4   5
ENDBRANCH   2   4
BRANCH   1  13
HETATM   13  C   UNK N   1      -1.563   3.219  -0.510  0.00  0.00    -0.019 A 
HETATM   14  C   UNK N   1      -2.253   4.430  -0.394  0.00  0.00     0.015 A 
HETATM   15  C   UNK N   1      -1.552   5.611  -0.119  0.00  0.00     0.037 A 
HETATM   16  C   UNK N   1      -0.159   5.584   0.024  0.00  0.00     0.065 A 
HETATM   17  C   UNK N   1       0.535   4.384  -0.123  0.00  0.00     0.037 A 
HETATM   18  C   UNK N   1      -0.164   3.208  -0.385  0.00  0.00     0.015 A 
BRANCH  16  19
HETATM   19  O   UNK N   1       0.511   6.712   0.308  0.00  0.00    -0.361 OA
HETATM   20  H   UNK N   1       1.427   6.700   0.506  0.00  0.00     0.217 HD
ENDBRANCH  16  19
ENDBRANCH   1  13
TORSDOF 5
