REMARK  4 active torsions:
REMARK  status: ('A' for Active; 'I' for Inactive)
REMARK    1  A    between atoms: O_1  and  C_2 
REMARK    2  A    between atoms: C_2  and  C_3 
REMARK    3  A    between atoms: C_7  and  N_8 
REMARK       I    between atoms: N_8  and  C_9 
REMARK    4  A    between atoms: C_15  and  C_23 
ROOT
HETATM    1  N   UNK N   1      -3.824  -0.315  -0.251  0.00  0.00    -0.192 N 
HETATM    2  C   UNK N   1      -2.612   0.436  -0.219  0.00  0.00     0.684 A 
HETATM    3  N   UNK N   1      -2.636   1.797  -0.288  0.00  0.00    -0.201 N 
ATOM      4  HN  UNK N   1      -3.529   2.284  -0.359  1.00  0.00     0.183 HD
HETATM    5  C   UNK N   1      -1.474   2.512  -0.263  0.00  0.00     0.121 A 
HETATM    6  C   UNK N   1      -0.247   1.847  -0.163  0.00  0.00     0.026 A 
HETATM    7  C   UNK N   1       0.960   2.533  -0.116  0.00  0.00     0.034 A 
HETATM    8  C   UNK N   1       2.184   1.852   0.017  0.00  0.00     0.047 A 
HETATM    9  C   UNK N   1       2.133   0.432   0.118  0.00  0.00     0.260 A 
HETATM   10  O   UNK N   1       3.144  -0.211   0.332  0.00  0.00    -0.267 OA
HETATM   11  N   UNK N   1       0.926  -0.230   0.033  0.00  0.00    -0.303 N 
HETATM   12  C   UNK N   1      -0.244   0.455  -0.098  0.00  0.00     0.137 A 
HETATM   13  N   UNK N   1      -1.420  -0.206  -0.137  0.00  0.00    -0.175 N 
ATOM     14  HN  UNK N   1      -1.413  -1.225  -0.103  1.00  0.00     0.186 HD
HETATM   15  C   UNK N   1       0.895  -1.691   0.120  0.00  0.00     0.161 C 
HETATM   16  H   UNK N   1      -4.669   0.162  -0.413  0.00  0.00     0.184 HD
ENDROOT
BRANCH   1  17
HETATM   17  C   UNK N   1      -3.864  -1.731  -0.056  0.00  0.00     0.049 A 
HETATM   18  C   UNK N   1      -5.011  -2.455  -0.399  0.00  0.00     0.030 A 
HETATM   19  C   UNK N   1      -5.028  -3.851  -0.258  0.00  0.00     0.003 A 
HETATM   20  C   UNK N   1      -3.898  -4.527   0.224  0.00  0.00     0.009 A 
HETATM   21  C   UNK N   1      -2.759  -3.804   0.584  0.00  0.00    -0.033 A 
HETATM   22  C   UNK N   1      -2.752  -2.423   0.448  0.00  0.00     0.039 A 
BRANCH  21  23
HETATM   23  C   UNK N   1      -1.536  -4.481   1.098  0.00  0.00     0.203 C 
BRANCH  23  24
HETATM   24  O   UNK N   1      -0.857  -5.097   0.046  0.00  0.00    -0.396 OA
HETATM   25  H   UNK N   1      -0.991  -5.720  -0.685  0.00  0.00     0.209 HD
ENDBRANCH  23  24
ENDBRANCH  21  23
ENDBRANCH   1  17
BRANCH   8  26
HETATM   26  C   UNK N   1       3.472   2.656   0.094  0.00  0.00     0.023 A 
HETATM   27  C   UNK N   1       3.476   3.947   0.720  0.00  0.00     0.046 A 
HETATM   28 Cl   UNK N   1       2.064   4.688   1.471  0.00  0.00    -0.083 Cl
HETATM   29  C   UNK N   1       4.655   4.689   0.806  0.00  0.00     0.025 A 
HETATM   30  C   UNK N   1       5.843   4.206   0.283  0.00  0.00     0.003 A 
HETATM   31  C   UNK N   1       5.866   2.977  -0.356  0.00  0.00     0.025 A 
HETATM   32  C   UNK N   1       4.715   2.195  -0.464  0.00  0.00     0.046 A 
HETATM   33 Cl   UNK N   1       4.913   0.737  -1.433  0.00  0.00    -0.083 Cl
ENDBRANCH   8  26
TORSDOF 4
