REMARK  2 active torsions:
REMARK  status: ('A' for Active; 'I' for Inactive)
REMARK       I    between atoms: C_9  and  N_20 
REMARK       I    between atoms: C_12  and  N_13 
REMARK    1  A    between atoms: N_13  and  C_14 
REMARK    2  A    between atoms: N_20  and  C_21 
ROOT
HETATM    1  N   UNK N   1      -2.252  -0.775   0.141  0.00  0.00    -0.289 N 
ATOM      2  HN  UNK N   1      -2.644  -1.714   0.218  1.00  0.00     0.187 HD
HETATM    3  C   UNK N   1      -2.957   0.381   0.112  0.00  0.00     0.112 A 
HETATM    4  C   UNK N   1      -2.071   1.451   0.011  0.00  0.00     0.070 A 
HETATM    5  C   UNK N   1      -0.841   0.843  -0.017  0.00  0.00     0.162 A 
HETATM    6  N   UNK N   1      -0.971  -0.479   0.053  0.00  0.00    -0.069 N 
HETATM    7  N   UNK N   1       0.364   1.438  -0.082  0.00  0.00    -0.173 N 
ATOM      8  HN  UNK N   1       0.439   2.453  -0.137  1.00  0.00     0.186 HD
HETATM    9  C   UNK N   1       1.480   0.659  -0.074  0.00  0.00     0.699 A 
HETATM   10  N   UNK N   1       1.356  -0.705  -0.015  0.00  0.00    -0.020 N 
ATOM     11  HN  UNK N   1       2.194  -1.286  -0.014  1.00  0.00     0.203 HD
HETATM   12  C   UNK N   1       0.124  -1.299   0.044  0.00  0.00     0.720 A 
HETATM   13  N   UNK N   1       0.069  -2.730   0.134  0.00  0.00    -0.189 N 
HETATM   14  N   UNK N   1       2.775   1.251  -0.111  0.00  0.00    -0.191 N 
HETATM   15  H   UNK N   1       0.946  -3.147   0.292  0.00  0.00     0.184 HD
HETATM   16  H   UNK N   1       3.549   0.648  -0.187  0.00  0.00     0.184 HD
ENDROOT
BRANCH  14  17
HETATM   17  C   UNK N   1       3.035   2.654  -0.049  0.00  0.00     0.049 A 
HETATM   18  C   UNK N   1       2.005   3.592   0.144  0.00  0.00     0.030 A 
HETATM   19  C   UNK N   1       2.285   4.958   0.209  0.00  0.00     0.002 A 
HETATM   20  C   UNK N   1       3.602   5.403   0.084  0.00  0.00     0.000 A 
HETATM   21  C   UNK N   1       4.635   4.481  -0.103  0.00  0.00     0.002 A 
HETATM   22  C   UNK N   1       4.353   3.111  -0.167  0.00  0.00     0.030 A 
ENDBRANCH  14  17
BRANCH  13  23
HETATM   23  C   UNK N   1      -1.000  -3.675   0.040  0.00  0.00     0.049 A 
HETATM   24  C   UNK N   1      -0.726  -5.014   0.348  0.00  0.00     0.030 A 
HETATM   25  C   UNK N   1      -1.729  -5.986   0.266  0.00  0.00     0.002 A 
HETATM   26  C   UNK N   1      -3.019  -5.627  -0.130  0.00  0.00     0.000 A 
HETATM   27  C   UNK N   1      -3.300  -4.300  -0.456  0.00  0.00     0.002 A 
HETATM   28  C   UNK N   1      -2.291  -3.336  -0.381  0.00  0.00     0.030 A 
ENDBRANCH  13  23
TORSDOF 2
