REMARK  20 active torsions:
REMARK  status: ('A' for Active; 'I' for Inactive)
REMARK    1  A    between atoms: C_3  and  N_2 
REMARK    2  A    between atoms: C_3  and  C_4 
REMARK    3  A    between atoms: C_3  and  C_21 
REMARK    4  A    between atoms: C_4  and  S_5 
REMARK    5  A    between atoms: S_5  and  C_6 
REMARK    6  A    between atoms: C_6  and  C_8 
REMARK    7  A    between atoms: C_8  and  C_9 
REMARK    8  A    between atoms: C_9  and  C_10 
REMARK    9  A    between atoms: C_10  and  C_11 
REMARK   10  A    between atoms: C_11  and  C_12 
REMARK   11  A    between atoms: C_12  and  C_13 
REMARK   12  A    between atoms: C_13  and  C_14 
REMARK   13  A    between atoms: C_14  and  C_15 
REMARK   14  A    between atoms: C_15  and  C_16 
REMARK   15  A    between atoms: C_16  and  C_17 
REMARK   16  A    between atoms: C_17  and  C_18 
REMARK   17  A    between atoms: C_18  and  C_19 
REMARK   18  A    between atoms: C_19  and  C_20 
REMARK   19  A    between atoms: C_20  and  C_22 
REMARK   20  A    between atoms: C_21  and  O_24 
ROOT
HETATM    1  C   UNK N   1       5.233  -2.929  -0.404  0.00  0.00     0.008 C 
ENDROOT
BRANCH   1   2
HETATM    2  C   UNK N   1       6.240  -2.287   0.533  0.00  0.00     0.091 C 
BRANCH   2   3
HETATM    3  C   UNK N   1       6.621  -0.935   0.017  0.00  0.00     0.186 C 
HETATM    4  O   UNK N   1       5.757  -0.091  -0.158  0.00  0.00    -0.286 OA
BRANCH   3   5
HETATM    5  S   UNK N   1       8.341  -0.498  -0.284  0.00  0.00    -0.090 SA
BRANCH   5   6
HETATM    6  C   UNK N   1       8.834  -2.105  -0.996  0.00  0.00     0.117 C 
BRANCH   6   7
HETATM    7  C   UNK N   1       9.717  -2.904  -0.036  0.00  0.00     0.183 C 
BRANCH   7   8
HETATM    8  N   UNK N   1       9.835  -4.261  -0.546  0.00  0.00    -0.417 N 
HETATM    9  H   UNK N   1       9.052  -4.809  -0.903  0.00  0.00     0.150 HD
HETATM   10  H   UNK N   1      10.760  -4.692  -0.546  0.00  0.00     0.150 HD
ENDBRANCH   7   8
BRANCH   7  11
HETATM   11  C   UNK N   1      11.085  -2.278   0.108  0.00  0.00     0.163 C 
HETATM   12  O   UNK N   1      12.089  -2.897  -0.209  0.00  0.00    -0.648 OA
BRANCH  11  13
HETATM   13  O   UNK N   1      11.209  -1.033   0.609  0.00  0.00    -0.775 OA
HETATM   14  H   UNK N   1      12.002  -0.675   0.957  0.00  0.00     0.167 HD
ENDBRANCH  11  13
ENDBRANCH   7  11
ENDBRANCH   6   7
ENDBRANCH   5   6
ENDBRANCH   3   5
ENDBRANCH   2   3
ENDBRANCH   1   2
BRANCH   1  15
HETATM   15  C   UNK N   1       4.801  -4.271   0.148  0.00  0.00     0.000 C 
BRANCH  15  16
HETATM   16  C   UNK N   1       3.465  -4.677  -0.449  0.00  0.00     0.000 C 
BRANCH  16  17
HETATM   17  C   UNK N   1       2.327  -4.069   0.353  0.00  0.00     0.000 C 
BRANCH  17  18
HETATM   18  C   UNK N   1       1.821  -2.794  -0.296  0.00  0.00     0.000 C 
BRANCH  18  19
HETATM   19  C   UNK N   1       0.760  -2.193   0.601  0.00  0.00     0.000 C 
BRANCH  19  20
HETATM   20  C   UNK N   1      -0.350  -1.577  -0.225  0.00  0.00     0.000 C 
BRANCH  20  21
HETATM   21  C   UNK N   1      -1.611  -1.581   0.613  0.00  0.00     0.000 C 
BRANCH  21  22
HETATM   22  C   UNK N   1      -2.820  -1.190  -0.212  0.00  0.00     0.000 C 
BRANCH  22  23
HETATM   23  C   UNK N   1      -3.887  -2.245  -0.002  0.00  0.00     0.000 C 
BRANCH  23  24
HETATM   24  C   UNK N   1      -5.273  -1.680  -0.232  0.00  0.00     0.000 C 
BRANCH  24  25
HETATM   25  C   UNK N   1      -6.271  -2.797  -0.002  0.00  0.00    -0.000 C 
BRANCH  25  26
HETATM   26  C   UNK N   1      -7.688  -2.279  -0.116  0.00  0.00    -0.005 C 
HETATM   27  C   UNK N   1      -8.648  -3.441   0.034  0.00  0.00     0.005 C 
ENDBRANCH  25  26
ENDBRANCH  24  25
ENDBRANCH  23  24
ENDBRANCH  22  23
ENDBRANCH  21  22
ENDBRANCH  20  21
ENDBRANCH  19  20
ENDBRANCH  18  19
ENDBRANCH  17  18
ENDBRANCH  16  17
ENDBRANCH  15  16
ENDBRANCH   1  15
TORSDOF 20
