REMARK  9 active torsions:
REMARK  status: ('A' for Active; 'I' for Inactive)
REMARK    1  A    between atoms: C_7  and  C_8 
REMARK       I    between atoms: C_8  and  N_10 
REMARK    2  A    between atoms: N_10  and  C_11 
REMARK    3  A    between atoms: C_13  and  N_10 
REMARK    4  A    between atoms: C_11  and  C_12 
REMARK    5  A    between atoms: C_12  and  C_27 
REMARK    6  A    between atoms: N_15  and  C_19 
REMARK    7  A    between atoms: C_19  and  C_20 
REMARK    8  A    between atoms: C_20  and  C_21 
REMARK    9  A    between atoms: C_27  and  O_28 
ROOT
HETATM    1  C   UNK N   1       0.087   2.489  -0.002  0.00  0.00     0.254 C 
HETATM    2  O   UNK N   1      -0.888   3.176   0.255  0.00  0.00    -0.267 OA
HETATM    3  N   UNK N   1      -0.048   1.108  -0.136  0.00  0.00    -0.342 N 
ENDROOT
BRANCH   3   4
HETATM    4  C   UNK N   1       1.095   0.313  -0.544  0.00  0.00     0.129 C 
BRANCH   4   5
HETATM    5  C   UNK N   1       1.606  -0.593   0.560  0.00  0.00     0.046 C 
BRANCH   5   6
HETATM    6  C   UNK N   1       2.935  -1.190   0.124  0.00  0.00     0.168 C 
BRANCH   6   7
HETATM    7  O   UNK N   1       3.901  -0.185   0.027  0.00  0.00    -0.396 OA
HETATM    8  C   UNK N   1       5.122  -0.851   0.092  0.00  0.00     0.201 C 
ENDBRANCH   6   7
ENDBRANCH   5   6
ENDBRANCH   4   5
ENDBRANCH   3   4
BRANCH   3   9
HETATM    9  C   UNK N   1      -1.316   0.373   0.097  0.00  0.00     0.115 C 
HETATM   10  C   UNK N   1      -1.613  -0.579  -1.086  0.00  0.00     0.297 C 
HETATM   11  N   UNK N   1      -2.874  -1.334  -0.941  0.00  0.00     0.090 N 
HETATM   12  C   UNK N   1      -4.024  -0.469  -0.674  0.00  0.00     0.272 C 
HETATM   13  C   UNK N   1      -3.796   0.384   0.566  0.00  0.00     0.032 C 
HETATM   14  C   UNK N   1      -2.559   1.240   0.353  0.00  0.00     0.029 C 
BRANCH  11  15
HETATM   15  C   UNK N   1      -2.905  -2.522  -0.068  0.00  0.00     0.277 C 
BRANCH  15  16
HETATM   16  C   UNK N   1      -1.678  -2.750   0.816  0.00  0.00     0.068 C 
BRANCH  16  17
HETATM   17  C   UNK N   1      -0.914  -3.957   0.385  0.00  0.00    -0.057 A 
HETATM   18  C   UNK N   1       0.440  -3.838   0.057  0.00  0.00     0.007 A 
HETATM   19  C   UNK N   1       1.170  -4.966  -0.329  0.00  0.00     0.001 A 
HETATM   20  C   UNK N   1       0.547  -6.216  -0.391  0.00  0.00     0.000 A 
HETATM   21  C   UNK N   1      -0.806  -6.340  -0.060  0.00  0.00     0.001 A 
HETATM   22  C   UNK N   1      -1.535  -5.214   0.333  0.00  0.00     0.007 A 
ENDBRANCH  16  17
ENDBRANCH  15  16
ENDBRANCH  11  15
ENDBRANCH   3   9
BRANCH   1  23
HETATM   23  C   UNK N   1       1.408   3.214  -0.100  0.00  0.00     0.032 A 
HETATM   24  C   UNK N   1       2.643   2.552  -0.195  0.00  0.00     0.018 A 
HETATM   25  C   UNK N   1       3.846   3.261  -0.203  0.00  0.00     0.025 A 
HETATM   26  C   UNK N   1       3.834   4.652  -0.113  0.00  0.00     0.034 A 
HETATM   27 Cl   UNK N   1       5.343   5.539  -0.105  0.00  0.00    -0.084 Cl
HETATM   28  C   UNK N   1       2.619   5.333  -0.022  0.00  0.00     0.025 A 
HETATM   29  C   UNK N   1       1.416   4.619  -0.009  0.00  0.00     0.018 A 
ENDBRANCH   1  23
TORSDOF 9
