REMARK  3 active torsions:
REMARK  status: ('A' for Active; 'I' for Inactive)
REMARK       I    between atoms: C_9  and  N_20 
REMARK       I    between atoms: C_12  and  N_13 
REMARK    1  A    between atoms: N_13  and  C_14 
REMARK    2  A    between atoms: N_20  and  C_21 
REMARK    3  A    between atoms: C_21  and  C_22 
ROOT
HETATM    1  N   UNK N   1      -2.074  -1.175   1.302  0.00  0.00    -0.288 N 
ATOM      2  HN  UNK N   1      -2.101  -2.031   1.857  1.00  0.00     0.187 HD
HETATM    3  C   UNK N   1      -3.046  -0.218   1.244  0.00  0.00     0.135 A 
HETATM    4  C   UNK N   1      -2.614   0.767   0.347  0.00  0.00     0.108 A 
HETATM    5  C   UNK N   1      -1.405   0.357  -0.061  0.00  0.00     0.182 A 
HETATM    6  N   UNK N   1      -1.086  -0.787   0.504  0.00  0.00    -0.067 N 
HETATM    7  N   UNK N   1      -0.585   0.985  -0.894  0.00  0.00    -0.172 N 
ATOM      8  HN  UNK N   1      -0.864   1.861  -1.335  1.00  0.00     0.186 HD
HETATM    9  C   UNK N   1       0.631   0.440  -1.147  0.00  0.00     0.694 A 
HETATM   10  N   UNK N   1       0.960  -0.780  -0.632  0.00  0.00    -0.020 N 
ATOM     11  HN  UNK N   1       1.855  -1.211  -0.861  1.00  0.00     0.203 HD
HETATM   12  C   UNK N   1       0.086  -1.414   0.186  0.00  0.00     0.720 A 
HETATM   13  N   UNK N   1       0.249  -2.779   0.491  0.00  0.00    -0.189 N 
HETATM   14  N   UNK N   1       1.654   1.339  -1.336  0.00  0.00    -0.225 N 
HETATM   15  C   UNK N   1      -3.237   1.981  -0.113  0.00  0.00     0.105 C 
HETATM   16  N   UNK N   1      -3.753   2.953  -0.471  0.00  0.00    -0.191 NA
HETATM   17  H   UNK N   1       1.062  -3.153   0.903  0.00  0.00     0.184 HD
HETATM   18  H   UNK N   1       2.285   1.314  -2.092  0.00  0.00     0.177 HD
ENDROOT
BRANCH  14  19
HETATM   19  C   UNK N   1       1.683   2.320  -0.285  0.00  0.00     0.142 C 
BRANCH  19  20
HETATM   20  C   UNK N   1       3.014   2.920  -0.166  0.00  0.00     0.004 C 
HETATM   21  C   UNK N   1       3.002   4.098   0.770  0.00  0.00     0.006 C 
HETATM   22  C   UNK N   1       4.225   4.900   0.372  0.00  0.00     0.000 C 
HETATM   23  C   UNK N   1       5.501   4.055   0.524  0.00  0.00     0.000 C 
HETATM   24  C   UNK N   1       5.398   2.646  -0.094  0.00  0.00     0.000 C 
HETATM   25  C   UNK N   1       4.091   1.961   0.279  0.00  0.00     0.006 C 
ENDBRANCH  19  20
ENDBRANCH  14  19
BRANCH  13  26
HETATM   26  C   UNK N   1      -0.878  -3.553   0.141  0.00  0.00     0.049 A 
HETATM   27  C   UNK N   1      -1.397  -4.498   1.019  0.00  0.00     0.030 A 
HETATM   28  C   UNK N   1      -2.688  -4.993   0.784  0.00  0.00     0.002 A 
HETATM   29  C   UNK N   1      -3.461  -4.513  -0.289  0.00  0.00     0.000 A 
HETATM   30  C   UNK N   1      -2.931  -3.588  -1.180  0.00  0.00     0.002 A 
HETATM   31  C   UNK N   1      -1.650  -3.125  -0.968  0.00  0.00     0.030 A 
ENDBRANCH  13  26
TORSDOF 3
