REMARK  3 active torsions:
REMARK  status: ('A' for Active; 'I' for Inactive)
REMARK       I    between atoms: C_9  and  N_20 
REMARK       I    between atoms: C_12  and  N_13 
REMARK    1  A    between atoms: N_13  and  C_14 
REMARK    2  A    between atoms: N_20  and  C_21 
REMARK    3  A    between atoms: C_21  and  C_22 
ROOT
HETATM    1  N   UNK N   1      -3.661  -0.086   0.116  0.00  0.00    -0.288 N 
ATOM      2  HN  UNK N   1      -3.970  -1.058   0.139  1.00  0.00     0.187 HD
HETATM    3  C   UNK N   1      -4.468   1.012   0.088  0.00  0.00     0.135 A 
HETATM    4  C   UNK N   1      -3.645   2.145   0.074  0.00  0.00     0.108 A 
HETATM    5  C   UNK N   1      -2.391   1.668   0.086  0.00  0.00     0.182 A 
HETATM    6  N   UNK N   1      -2.406   0.333   0.107  0.00  0.00    -0.067 N 
HETATM    7  N   UNK N   1      -1.257   2.386   0.034  0.00  0.00    -0.172 N 
ATOM      8  HN  UNK N   1      -1.277   3.405   0.029  1.00  0.00     0.186 HD
HETATM    9  C   UNK N   1      -0.091   1.709  -0.010  0.00  0.00     0.694 A 
HETATM   10  N   UNK N   1      -0.084   0.345   0.018  0.00  0.00    -0.020 N 
ATOM     11  HN  UNK N   1       0.807  -0.150  -0.017  1.00  0.00     0.203 HD
HETATM   12  C   UNK N   1      -1.236  -0.367   0.092  0.00  0.00     0.720 A 
HETATM   13  N   UNK N   1      -1.123  -1.788   0.095  0.00  0.00    -0.189 N 
HETATM   14  N   UNK N   1       1.095   2.395  -0.280  0.00  0.00    -0.221 N 
HETATM   15  C   UNK N   1      -3.970   3.545   0.022  0.00  0.00     0.105 C 
HETATM   16  N   UNK N   1      -4.271   4.662  -0.018  0.00  0.00    -0.191 NA
HETATM   17  H   UNK N   1      -0.186  -2.088   0.126  0.00  0.00     0.184 HD
HETATM   18  H   UNK N   1       1.209   3.341  -0.032  0.00  0.00     0.178 HD
ENDROOT
BRANCH  14  19
HETATM   19  C   UNK N   1       2.139   1.661  -0.933  0.00  0.00     0.176 C 
BRANCH  19  20
HETATM   20  C   UNK N   1       3.465   1.963  -0.374  0.00  0.00    -0.040 A 
HETATM   21  C   UNK N   1       3.757   3.234   0.133  0.00  0.00     0.010 A 
HETATM   22  C   UNK N   1       5.066   3.555   0.492  0.00  0.00     0.024 A 
HETATM   23  C   UNK N   1       6.085   2.609   0.331  0.00  0.00     0.034 A 
HETATM   24  C   UNK N   1       5.782   1.327  -0.140  0.00  0.00     0.024 A 
HETATM   25 Cl   UNK N   1       7.762   3.104   0.471  0.00  0.00    -0.084 Cl
HETATM   26  C   UNK N   1       4.471   1.004  -0.491  0.00  0.00     0.010 A 
ENDBRANCH  19  20
ENDBRANCH  14  19
BRANCH  13  27
HETATM   27  C   UNK N   1      -2.038  -2.877   0.065  0.00  0.00     0.049 A 
HETATM   28  C   UNK N   1      -1.492  -4.166   0.022  0.00  0.00     0.030 A 
HETATM   29  C   UNK N   1      -2.314  -5.294  -0.028  0.00  0.00     0.002 A 
HETATM   30  C   UNK N   1      -3.702  -5.142  -0.035  0.00  0.00     0.000 A 
HETATM   31  C   UNK N   1      -4.263  -3.860   0.008  0.00  0.00     0.002 A 
HETATM   32  C   UNK N   1      -3.432  -2.732   0.055  0.00  0.00     0.030 A 
ENDBRANCH  13  27
TORSDOF 3
