REMARK  5 active torsions:
REMARK  status: ('A' for Active; 'I' for Inactive)
REMARK    1  A    between atoms: C_4  and  C_7 
REMARK    2  A    between atoms: C_5  and  C_8 
REMARK    3  A    between atoms: C_12  and  O_22 
REMARK    4  A    between atoms: C_15  and  O_21 
REMARK    5  A    between atoms: C_17  and  O_20 
ROOT
HETATM    1  N   UNK N   1       0.525   3.821  -0.185  0.00  0.00    -0.304 N 
HETATM    2  N   UNK N   1       1.572   3.017  -0.066  0.00  0.00    -0.299 N 
ATOM      3  HN  UNK N   1       2.546   3.318  -0.037  1.00  0.00     0.187 HD
HETATM    4  C   UNK N   1       1.148   1.738   0.012  0.00  0.00     0.074 A 
HETATM    5  C   UNK N   1      -0.261   1.736  -0.049  0.00  0.00     0.027 A 
HETATM    6  C   UNK N   1      -0.592   3.077  -0.191  0.00  0.00     0.035 A 
HETATM    7  C   UNK N   1      -1.956   3.670  -0.291  0.00  0.00     0.070 C 
HETATM    8  H   UNK N   1       0.560   4.802  -0.258  0.00  0.00     0.186 HD
ENDROOT
BRANCH   4   9
HETATM    9  C   UNK N   1       2.119   0.591   0.056  0.00  0.00     0.026 A 
HETATM   10  C   UNK N   1       3.513   0.804   0.210  0.00  0.00     0.081 A 
HETATM   11  C   UNK N   1       4.394  -0.285   0.224  0.00  0.00     0.074 A 
HETATM   12  C   UNK N   1       3.913  -1.587   0.078  0.00  0.00     0.068 A 
HETATM   13  C   UNK N   1       2.552  -1.806  -0.092  0.00  0.00     0.037 A 
HETATM   14  C   UNK N   1       1.674  -0.725  -0.109  0.00  0.00     0.019 A 
BRANCH  10  15
HETATM   15  O   UNK N   1       4.017   2.042   0.348  0.00  0.00    -0.360 OA
HETATM   16  H   UNK N   1       4.940   2.170   0.444  0.00  0.00     0.217 HD
ENDBRANCH  10  15
BRANCH  12  17
HETATM   17  O   UNK N   1       4.761  -2.628   0.098  0.00  0.00    -0.361 OA
HETATM   18  H   UNK N   1       4.428  -3.503   0.112  0.00  0.00     0.217 HD
ENDBRANCH  12  17
ENDBRANCH   4   9
BRANCH   5  19
HETATM   19  C   UNK N   1      -1.239   0.609   0.015  0.00  0.00    -0.021 A 
HETATM   20  C   UNK N   1      -0.924  -0.585   0.670  0.00  0.00     0.015 A 
HETATM   21  C   UNK N   1      -1.815  -1.654   0.696  0.00  0.00     0.037 A 
HETATM   22  C   UNK N   1      -3.061  -1.546   0.064  0.00  0.00     0.068 A 
HETATM   23  C   UNK N   1      -3.408  -0.341  -0.557  0.00  0.00     0.037 A 
HETATM   24  C   UNK N   1      -2.509   0.732  -0.572  0.00  0.00     0.015 A 
BRANCH  22  25
HETATM   25  O   UNK N   1      -3.930  -2.583   0.036  0.00  0.00    -0.356 OA
HETATM   26  C   UNK N   1      -3.644  -3.816   0.580  0.00  0.00     0.210 C 
ENDBRANCH  22  25
ENDBRANCH   5  19
TORSDOF 5
