REMARK  8 active torsions:
REMARK  status: ('A' for Active; 'I' for Inactive)
REMARK    1  A    between atoms: C_2  and  O_3 
REMARK    2  A    between atoms: O_3  and  C_4 
REMARK    3  A    between atoms: C_4  and  C_5 
REMARK    4  A    between atoms: C_5  and  O_6 
REMARK    5  A    between atoms: O_6  and  C_7 
REMARK    6  A    between atoms: C_7  and  C_8 
REMARK    7  A    between atoms: C_8  and  O_9 
REMARK    8  A    between atoms: O_9  and  C_10 
ROOT
HETATM    1  O   UNK N   1       0.000  -0.091   0.000  0.00  0.00    -0.387 OA
ENDROOT
BRANCH   1   2
HETATM    2  C   UNK N   1      -1.119   0.739  -0.000  0.00  0.00     0.193 C 
BRANCH   2   3
HETATM    3  C   UNK N   1      -2.342  -0.156   0.000  0.00  0.00     0.193 C 
BRANCH   3   4
HETATM    4  O   UNK N   1      -3.515   0.593  -0.000  0.00  0.00    -0.389 OA
BRANCH   4   5
HETATM    5  C   UNK N   1      -4.520  -0.375  -0.000  0.00  0.00     0.163 C 
HETATM    6  C   UNK N   1      -5.880   0.290   0.000  0.00  0.00     0.033 C 
ENDBRANCH   4   5
ENDBRANCH   3   4
ENDBRANCH   2   3
ENDBRANCH   1   2
BRANCH   1   7
HETATM    7  C   UNK N   1       1.119   0.739   0.000  0.00  0.00     0.193 C 
BRANCH   7   8
HETATM    8  C   UNK N   1       2.342  -0.156  -0.000  0.00  0.00     0.193 C 
BRANCH   8   9
HETATM    9  O   UNK N   1       3.515   0.593   0.000  0.00  0.00    -0.389 OA
BRANCH   9  10
HETATM   10  C   UNK N   1       4.520  -0.375   0.000  0.00  0.00     0.163 C 
HETATM   11  C   UNK N   1       5.880   0.290  -0.000  0.00  0.00     0.033 C 
ENDBRANCH   9  10
ENDBRANCH   8   9
ENDBRANCH   7   8
ENDBRANCH   1   7
TORSDOF 8
