REMARK  2 active torsions:
REMARK  status: ('A' for Active; 'I' for Inactive)
REMARK    1  A    between atoms: C_11  and  C_12 
REMARK    2  A    between atoms: C_18  and  C_19 
ROOT
HETATM    1  C   UNK N   1      -2.532  -0.307   0.000  0.00  0.00     0.044 A 
HETATM    2  C   UNK N   1      -1.154  -0.321   0.000  0.00  0.00     0.044 A 
HETATM    3  N   UNK N   1      -3.209  -1.492  -0.000  0.00  0.00    -0.365 N 
ATOM      4  HN  UNK N   1      -4.229  -1.491  -0.000  1.00  0.00     0.165 HD
HETATM    5  C   UNK N   1      -2.530  -2.685  -0.000  0.00  0.00     0.089 A 
HETATM    6  C   UNK N   1      -1.117  -2.709  -0.000  0.00  0.00     0.030 A 
HETATM    7  C   UNK N   1      -0.428  -1.490  -0.000  0.00  0.00    -0.006 A 
ENDROOT
BRANCH   7   8
HETATM    8  C   UNK N   1       1.035  -1.325  -0.000  0.00  0.00     0.043 A 
HETATM    9  C   UNK N   1       1.626  -0.067  -0.000  0.00  0.00     0.049 A 
HETATM   10  C   UNK N   1       2.964  -0.306  -0.000  0.00  0.00     0.056 A 
HETATM   11  C   UNK N   1       4.055   0.649   0.000  0.00  0.00     0.253 A 
HETATM   12  C   UNK N   1       3.154  -1.648  -0.000  0.00  0.00     0.027 A 
HETATM   13  O   UNK N   1       3.834   1.848   0.000  0.00  0.00    -0.268 OA
HETATM   14  N   UNK N   1       5.329   0.186   0.000  0.00  0.00    -0.356 N 
HETATM   15  C   UNK N   1       5.682  -1.234   0.000  0.00  0.00     0.129 A 
HETATM   16  H   UNK N   1       6.061   0.845   0.000  0.00  0.00     0.162 HD
HETATM   17  C   UNK N   1       4.514  -2.265   0.000  0.00  0.00     0.078 A 
HETATM   18  N   UNK N   1       1.971  -2.303  -0.000  0.00  0.00    -0.358 N 
HETATM   19  H   UNK N   1       1.823  -3.276  -0.000  0.00  0.00     0.166 HD
ENDBRANCH   7   8
BRANCH   1  20
HETATM   20  C   UNK N   1      -3.182   1.023   0.000  0.00  0.00     0.007 A 
HETATM   21  C   UNK N   1      -4.570   1.202  -0.000  0.00  0.00     0.029 A 
HETATM   22  C   UNK N   1      -5.090   2.506  -0.000  0.00  0.00    -0.009 A 
HETATM   23  C   UNK N   1      -6.469   2.727  -0.000  0.00  0.00     0.014 A 
HETATM   24  C   UNK N   1      -4.207   3.611   0.000  0.00  0.00     0.042 A 
HETATM   25  C   UNK N   1      -6.965   4.037  -0.000  0.00  0.00     0.001 A 
HETATM   26  C   UNK N   1      -6.087   5.127  -0.000  0.00  0.00     0.002 A 
HETATM   27  C   UNK N   1      -4.709   4.913   0.000  0.00  0.00     0.030 A 
HETATM   28  N   UNK N   1      -2.870   3.412   0.000  0.00  0.00    -0.364 N 
HETATM   29  C   UNK N   1      -2.353   2.162   0.000  0.00  0.00     0.102 A 
ATOM     30  HN  UNK N   1      -2.242   4.215   0.000  1.00  0.00     0.165 HD
ENDBRANCH   1  20
TORSDOF 2
