REMARK  3 active torsions:
REMARK  status: ('A' for Active; 'I' for Inactive)
REMARK    1  A    between atoms: C_3  and  N_4 
REMARK    2  A    between atoms: N_4  and  C_9 
REMARK    3  A    between atoms: C_6  and  C_7 
ROOT
HETATM    1  N   UNK N   1      22.144  37.885   0.000  0.00  0.00    -0.339 N 
ATOM      2  HN  UNK N   1      23.099  38.243   0.000  1.00  0.00     0.168 HD
HETATM    3  C   UNK N   1      21.831  36.564   0.000  0.00  0.00     0.150 A 
HETATM    4  C   UNK N   1      21.023  38.684   0.000  0.00  0.00     0.028 A 
HETATM    5  C   UNK N   1      19.799  37.984   0.000  0.00  0.00     0.076 A 
HETATM    6  C   UNK N   1      21.140  40.169  -0.000  0.00  0.00     0.070 C 
HETATM    7  S   UNK N   1      20.195  36.373   0.000  0.00  0.00    -0.048 SA
ENDROOT
BRANCH   3   8
HETATM    8  N   UNK N   1      22.776  35.505   0.000  0.00  0.00    -0.337 N 
HETATM    9  H   UNK N   1      22.434  34.581   0.000  0.00  0.00     0.168 HD
BRANCH   8  10
HETATM   10  C   UNK N   1      24.185  35.693   0.000  0.00  0.00     0.034 A 
HETATM   11  C   UNK N   1      24.756  36.976  -0.000  0.00  0.00     0.029 A 
HETATM   12  C   UNK N   1      26.142  37.136  -0.000  0.00  0.00     0.002 A 
HETATM   13  C   UNK N   1      26.970  36.013  -0.000  0.00  0.00     0.000 A 
HETATM   14  C   UNK N   1      26.411  34.732   0.000  0.00  0.00     0.002 A 
HETATM   15  C   UNK N   1      25.022  34.572   0.000  0.00  0.00     0.029 A 
ENDBRANCH   8  10
ENDBRANCH   3   8
BRANCH   5  16
HETATM   16  C   UNK N   1      18.431  38.537  -0.000  0.00  0.00     0.164 C 
HETATM   17  C   UNK N   1      17.252  37.623  -0.000  0.00  0.00     0.097 C 
HETATM   18  O   UNK N   1      18.252  39.743  -0.000  0.00  0.00    -0.292 OA
ENDBRANCH   5  16
TORSDOF 3
