REMARK  2 active torsions:
REMARK  status: ('A' for Active; 'I' for Inactive)
REMARK       I    between atoms: C_9  and  N_20 
REMARK       I    between atoms: C_12  and  N_13 
REMARK    1  A    between atoms: N_13  and  C_14 
REMARK    2  A    between atoms: N_23  and  C_26 
ROOT
HETATM    1  N   UNK N   1      -2.734  -0.479  -0.022  0.00  0.00    -0.288 N 
ATOM      2  HN  UNK N   1      -3.106  -1.416   0.130  1.00  0.00     0.187 HD
HETATM    3  C   UNK N   1      -3.427   0.671   0.141  0.00  0.00     0.135 A 
HETATM    4  C   UNK N   1      -2.595   1.709  -0.188  0.00  0.00     0.108 A 
HETATM    5  C   UNK N   1      -1.422   1.117  -0.563  0.00  0.00     0.182 A 
HETATM    6  N   UNK N   1      -1.500  -0.201  -0.409  0.00  0.00    -0.067 N 
HETATM    7  N   UNK N   1      -0.275   1.720  -0.830  0.00  0.00    -0.172 N 
ATOM      8  HN  UNK N   1      -0.233   2.729  -0.973  1.00  0.00     0.186 HD
HETATM    9  C   UNK N   1       0.844   0.958  -0.907  0.00  0.00     0.696 C 
HETATM   10  N   UNK N   1       0.765  -0.380  -0.908  0.00  0.00    -0.020 N 
ATOM     11  HN  UNK N   1       1.582  -0.933  -1.168  1.00  0.00     0.203 HD
HETATM   12  C   UNK N   1      -0.362  -0.993  -0.576  0.00  0.00     0.720 C 
HETATM   13  N   UNK N   1      -0.184  -2.360  -0.197  0.00  0.00    -0.189 N 
HETATM   14  N   UNK N   1       1.932   1.440  -0.211  0.00  0.00    -0.214 N 
HETATM   15  C   UNK N   1       3.098   0.601  -0.029  0.00  0.00     0.171 C 
HETATM   16  C   UNK N   1       3.993   1.207   1.041  0.00  0.00     0.292 C 
HETATM   17  N   UNK N   1       4.041   2.681   0.935  0.00  0.00     0.091 N 
HETATM   18  C   UNK N   1       2.750   3.375   0.768  0.00  0.00     0.292 C 
HETATM   19  C   UNK N   1       1.628   2.425   0.794  0.00  0.00     0.171 C 
HETATM   20  C   UNK N   1      -2.890   3.103  -0.009  0.00  0.00     0.105 C 
HETATM   21  N   UNK N   1      -3.165   4.215   0.148  0.00  0.00    -0.191 NA
HETATM   22  H   UNK N   1       0.683  -2.758  -0.437  0.00  0.00     0.184 HD
ENDROOT
BRANCH  13  23
HETATM   23  C   UNK N   1      -1.070  -3.205   0.466  0.00  0.00     0.049 C 
HETATM   24  C   UNK N   1      -1.072  -4.522   0.041  0.00  0.00     0.030 C 
HETATM   25  C   UNK N   1      -2.287  -5.188  -0.064  0.00  0.00     0.002 C 
HETATM   26  C   UNK N   1      -3.478  -4.499   0.194  0.00  0.00     0.000 C 
HETATM   27  C   UNK N   1      -3.430  -3.249   0.795  0.00  0.00     0.002 C 
HETATM   28  C   UNK N   1      -2.205  -2.650   0.993  0.00  0.00     0.030 C 
ENDBRANCH  13  23
BRANCH  17  29
HETATM   29  C   UNK N   1       4.883   3.038  -0.191  0.00  0.00     0.268 C 
HETATM   30  C   UNK N   1       5.183   4.524  -0.142  0.00  0.00     0.037 C 
ENDBRANCH  17  29
TORSDOF 2
