REMARK  5 active torsions:
REMARK  status: ('A' for Active; 'I' for Inactive)
REMARK       I    between atoms: C_1  and  N_20 
REMARK    1  A    between atoms: C_5  and  C_7 
REMARK    2  A    between atoms: C_6  and  N_17 
REMARK       I    between atoms: C_7  and  N_16 
REMARK    3  A    between atoms: C_8  and  N_17 
REMARK    4  A    between atoms: C_21  and  N_20 
REMARK    5  A    between atoms: C_22  and  N_23 
ROOT
HETATM    1  C   UNK N   1      -2.200  -0.080   0.069  0.00  0.00     0.679 A 
HETATM    2  C   UNK N   1      -3.441  -2.087   0.082  0.00  0.00     0.127 A 
HETATM    3  N   UNK N   1      -1.046  -0.793  -0.004  0.00  0.00    -0.176 N 
ATOM      4  HN  UNK N   1      -0.159  -0.292  -0.045  1.00  0.00     0.186 HD
HETATM    5  C   UNK N   1      -2.265  -2.847   0.014  0.00  0.00     0.092 A 
HETATM    6  C   UNK N   1      -1.035  -2.151  -0.025  0.00  0.00     0.138 A 
HETATM    7  N   UNK N   1      -3.389  -0.730   0.117  0.00  0.00    -0.201 N 
ATOM      8  HN  UNK N   1      -4.255  -0.194   0.179  1.00  0.00     0.183 HD
HETATM    9  N   UNK N   1      -2.163   1.340   0.122  0.00  0.00    -0.219 N 
HETATM   10  H   UNK N   1      -2.989   1.826   0.347  0.00  0.00     0.178 HD
ENDROOT
BRANCH   9  11
HETATM   11  C   UNK N   1      -0.956   2.101  -0.143  0.00  0.00     0.121 C 
HETATM   12  C   UNK N   1      -1.199   3.607   0.042  0.00  0.00     0.097 C 
HETATM   13  C   UNK N   1       0.040   4.414  -0.385  0.00  0.00     0.026 C 
HETATM   14  C   UNK N   1       1.363   3.640  -0.294  0.00  0.00     0.002 C 
HETATM   15  C   UNK N   1       1.368   2.640   0.857  0.00  0.00     0.002 C 
HETATM   16  C   UNK N   1       0.170   1.680   0.820  0.00  0.00     0.028 C 
BRANCH  12  17
HETATM   17  N   UNK N   1      -2.338   4.050  -0.744  0.00  0.00    -0.424 N 
HETATM   18  H   UNK N   1      -2.468   4.898  -1.296  0.00  0.00     0.150 HD
HETATM   19  H   UNK N   1      -3.134   3.412  -0.744  0.00  0.00     0.150 HD
ENDBRANCH  12  17
ENDBRANCH   9  11
BRANCH   6  20
HETATM   20  N   UNK N   1       0.204  -2.857  -0.062  0.00  0.00    -0.341 N 
HETATM   21  H   UNK N   1       0.156  -3.840  -0.086  0.00  0.00     0.167 HD
BRANCH  20  22
HETATM   22  C   UNK N   1       1.506  -2.275  -0.067  0.00  0.00     0.034 A 
HETATM   23  C   UNK N   1       1.702  -0.886  -0.111  0.00  0.00     0.029 A 
HETATM   24  C   UNK N   1       2.990  -0.347  -0.107  0.00  0.00     0.003 A 
HETATM   25  C   UNK N   1       4.098  -1.194  -0.059  0.00  0.00     0.007 A 
HETATM   26  C   UNK N   1       3.916  -2.578  -0.017  0.00  0.00    -0.060 A 
HETATM   27  C   UNK N   1       2.624  -3.116  -0.022  0.00  0.00     0.036 A 
HETATM   28  C   UNK N   1       5.096  -3.479   0.033  0.00  0.00     0.048 C 
ENDBRANCH  20  22
ENDBRANCH   6  20
BRANCH   5  29
HETATM   29  C   UNK N   1      -2.368  -4.334  -0.004  0.00  0.00     0.254 C 
HETATM   30  O   UNK N   1      -3.467  -4.866   0.023  0.00  0.00    -0.268 OA
HETATM   31  N   UNK N   1      -1.267  -5.111  -0.048  0.00  0.00    -0.366 N 
HETATM   32  H   UNK N   1      -1.356  -6.091  -0.081  0.00  0.00     0.159 HD
HETATM   33  H   UNK N   1      -0.373  -4.699  -0.048  0.00  0.00     0.159 HD
ENDBRANCH   5  29
TORSDOF 5
