REMARK  3 active torsions:
REMARK  status: ('A' for Active; 'I' for Inactive)
REMARK       I    between atoms: C_9  and  N_20 
REMARK       I    between atoms: C_12  and  N_13 
REMARK    1  A    between atoms: N_13  and  C_14 
REMARK    2  A    between atoms: N_20  and  C_21 
REMARK    3  A    between atoms: C_23  and  N_29 
REMARK       I    between atoms: N_29  and  C_30 
ROOT
HETATM    1  N   UNK N   1      -2.860   0.141  -0.877  0.00  0.00    -0.288 N 
ATOM      2  HN  UNK N   1      -2.931  -0.812  -1.233  1.00  0.00     0.187 HD
HETATM    3  C   UNK N   1      -3.708   1.168  -1.156  0.00  0.00     0.135 A 
HETATM    4  C   UNK N   1      -3.256   2.296  -0.477  0.00  0.00     0.107 A 
HETATM    5  C   UNK N   1      -2.139   1.894   0.165  0.00  0.00     0.166 A 
HETATM    6  N   UNK N   1      -1.927   0.601  -0.059  0.00  0.00    -0.069 N 
HETATM    7  N   UNK N   1      -1.253   2.639   0.845  0.00  0.00    -0.335 N 
ATOM      8  HN  UNK N   1      -1.472   3.537   1.276  1.00  0.00     0.165 HD
HETATM    9  C   UNK N   1      -0.040   2.058   0.887  0.00  0.00     0.303 C 
HETATM   10  N   UNK N   1      -0.008   0.746   1.251  0.00  0.00    -0.186 N 
ATOM     11  HN  UNK N   1       0.620   0.383   1.968  1.00  0.00     0.181 HD
HETATM   12  C   UNK N   1      -0.885  -0.035   0.575  0.00  0.00     0.704 C 
HETATM   13  N   UNK N   1      -0.631  -1.430   0.425  0.00  0.00    -0.190 N 
HETATM   14  N   UNK N   1       0.609   2.271  -0.372  0.00  0.00    -0.374 N 
HETATM   15  C   UNK N   1      -3.769   3.632  -0.488  0.00  0.00     0.105 C 
HETATM   16  N   UNK N   1      -4.151   4.723  -0.470  0.00  0.00    -0.191 NA
HETATM   17  H   UNK N   1       0.286  -1.788   0.432  0.00  0.00     0.184 HD
HETATM   18  H   UNK N   1       0.358   3.070  -0.890  0.00  0.00     0.158 HD
ENDROOT
BRANCH  14  19
HETATM   19  C   UNK N   1       1.585   1.409  -0.918  0.00  0.00     0.128 C 
HETATM   20  C   UNK N   1       2.749   1.962  -0.636  0.00  0.00     0.031 C 
HETATM   21  C   UNK N   1       3.604   1.357   0.203  0.00  0.00     0.033 C 
HETATM   22  C   UNK N   1       3.405   0.033   0.644  0.00  0.00     0.029 C 
HETATM   23  C   UNK N   1       2.358  -0.687   0.079  0.00  0.00     0.001 C 
HETATM   24  C   UNK N   1       1.463   0.004  -0.749  0.00  0.00     0.002 C 
BRANCH  21  25
HETATM   25  N   UNK N   1       4.703   2.134   0.492  0.00  0.00    -0.328 N 
HETATM   26  C   UNK N   1       5.936   1.678   0.315  0.00  0.00     0.218 C 
HETATM   27  O   UNK N   1       6.824   2.485   0.148  0.00  0.00    -0.274 OA
HETATM   28  C   UNK N   1       6.213   0.219   0.142  0.00  0.00     0.117 C 
HETATM   29  H   UNK N   1       4.572   3.047   0.836  0.00  0.00     0.169 HD
ENDBRANCH  21  25
ENDBRANCH  14  19
BRANCH  13  30
HETATM   30  C   UNK N   1      -1.732  -2.262   0.267  0.00  0.00     0.049 A 
HETATM   31  C   UNK N   1      -1.751  -3.302  -0.666  0.00  0.00     0.030 A 
HETATM   32  C   UNK N   1      -2.980  -3.911  -0.950  0.00  0.00     0.002 A 
HETATM   33  C   UNK N   1      -4.156  -3.444  -0.340  0.00  0.00     0.000 A 
HETATM   34  C   UNK N   1      -4.104  -2.435   0.613  0.00  0.00     0.002 A 
HETATM   35  C   UNK N   1      -2.895  -1.875   0.925  0.00  0.00     0.030 A 
ENDBRANCH  13  30
TORSDOF 3
