REMARK  5 active torsions:
REMARK  status: ('A' for Active; 'I' for Inactive)
REMARK    1  A    between atoms: C_2  and  C_7 
REMARK    2  A    between atoms: O_10  and  C_20 
REMARK       I    between atoms: C_17  and  N_18 
REMARK    3  A    between atoms: C_17  and  C_21 
REMARK    4  A    between atoms: N_18  and  C_19 
REMARK    5  A    between atoms: C_19  and  C_20 
ROOT
HETATM    1  C   UNK N   1       0.137   1.114   0.148  0.00  0.00     0.044 A 
HETATM    2  C   UNK N   1       1.548   1.171   0.186  0.00  0.00    -0.005 A 
HETATM    3  C   UNK N   1       2.242  -0.098   0.139  0.00  0.00     0.060 A 
HETATM    4  C   UNK N   1       1.538  -1.301   0.036  0.00  0.00     0.062 A 
HETATM    5  C   UNK N   1       2.476  -2.318   0.007  0.00  0.00     0.260 A 
HETATM    6  C   UNK N   1       3.592  -0.472   0.187  0.00  0.00     0.260 A 
HETATM    7  O   UNK N   1       2.244  -3.508  -0.082  0.00  0.00    -0.267 OA
HETATM    8  O   UNK N   1       4.548   0.266   0.315  0.00  0.00    -0.267 OA
HETATM    9  N   UNK N   1       3.733  -1.822   0.103  0.00  0.00    -0.289 N 
HETATM   10  C   UNK N   1      -2.068  -1.633  -0.063  0.00  0.00     0.121 A 
HETATM   11  C   UNK N   1      -0.834  -2.300  -0.095  0.00  0.00     0.057 A 
HETATM   12 Br   UNK N   1      -0.572  -4.198  -0.221  0.00  0.00    -0.047 Br
HETATM   13  N   UNK N   1      -1.857  -0.296   0.024  0.00  0.00    -0.345 N 
HETATM   14  C   UNK N   1      -2.859   0.760   0.087  0.00  0.00     0.156 C 
HETATM   15  C   UNK N   1      -0.527  -0.108   0.057  0.00  0.00     0.048 A 
HETATM   16  C   UNK N   1       0.139  -1.305  -0.008  0.00  0.00     0.027 A 
HETATM   17  H   UNK N   1       4.575  -2.333   0.109  0.00  0.00     0.172 HD
ENDROOT
BRANCH  10  18
HETATM   18  C   UNK N   1      -3.414  -2.266  -0.094  0.00  0.00     0.269 C 
HETATM   19  O   UNK N   1      -4.419  -1.571  -0.056  0.00  0.00    -0.266 OA
HETATM   20  N   UNK N   1      -3.525  -3.614  -0.141  0.00  0.00    -0.354 N 
HETATM   21  H   UNK N   1      -2.703  -4.153  -0.197  0.00  0.00     0.162 HD
BRANCH  20  22
HETATM   22  C   UNK N   1      -4.796  -4.291  -0.114  0.00  0.00     0.149 C 
BRANCH  22  23
HETATM   23  C   UNK N   1      -4.585  -5.777  -0.344  0.00  0.00     0.183 C 
BRANCH  23  24
HETATM   24  O   UNK N   1      -3.729  -6.302   0.625  0.00  0.00    -0.399 OA
HETATM   25  H   UNK N   1      -3.747  -7.001   1.298  0.00  0.00     0.209 HD
ENDBRANCH  23  24
ENDBRANCH  22  23
ENDBRANCH  20  22
ENDBRANCH  10  18
BRANCH   2  26
HETATM   26  C   UNK N   1       2.206   2.537   0.219  0.00  0.00    -0.003 A 
HETATM   27  C   UNK N   1       1.493   3.760   0.464  0.00  0.00     0.045 A 
HETATM   28  C   UNK N   1       2.173   4.983   0.429  0.00  0.00     0.024 A 
HETATM   29 Cl   UNK N   1      -0.225   3.868   0.842  0.00  0.00    -0.083 Cl
HETATM   30  C   UNK N   1       3.535   5.040   0.154  0.00  0.00     0.002 A 
HETATM   31  C   UNK N   1       4.238   3.867  -0.084  0.00  0.00     0.001 A 
HETATM   32  C   UNK N   1       3.577   2.640  -0.054  0.00  0.00     0.014 A 
ENDBRANCH   2  26
TORSDOF 5
