REMARK  13 active torsions:
REMARK  status: ('A' for Active; 'I' for Inactive)
REMARK    1  A    between atoms: C_2  and  O_7 
REMARK    2  A    between atoms: C_2  and  C_3 
REMARK    3  A    between atoms: C_3  and  C_4 
REMARK    4  A    between atoms: C_4  and  C_5 
REMARK    5  A    between atoms: O_7  and  C_8 
REMARK    6  A    between atoms: C_8  and  C_9 
REMARK    7  A    between atoms: C_9  and  O_10 
REMARK    8  A    between atoms: C_9  and  C_13 
REMARK    9  A    between atoms: O_10  and  C_11 
REMARK   10  A    between atoms: C_13  and  O_14 
REMARK   11  A    between atoms: O_14  and  P_15 
REMARK   12  A    between atoms: P_15  and  O_16 
REMARK   13  A    between atoms: P_15  and  O_18 
ROOT
HETATM    1  C   UNK N   1       0.162   1.599  -0.002  0.00  0.00     0.180 C 
ENDROOT
BRANCH   1   2
HETATM    2  C   UNK N   1       0.824   0.537   0.866  0.00  0.00     0.213 C 
BRANCH   2   3
HETATM    3  O   UNK N   1       1.456  -0.408   0.090  0.00  0.00    -0.319 OA
BRANCH   3   4
HETATM    4  C   UNK N   1       2.807  -0.452  -0.019  0.00  0.00     0.258 C 
HETATM    5  O   UNK N   1       3.328  -1.342  -0.671  0.00  0.00    -0.265 OA
BRANCH   4   6
HETATM    6  C   UNK N   1       3.676   0.580   0.642  0.00  0.00     0.111 C 
BRANCH   6   7
HETATM    7  C   UNK N   1       4.416   1.389  -0.411  0.00  0.00     0.009 C 
BRANCH   7   8
HETATM    8  C   UNK N   1       5.825   1.696   0.058  0.00  0.00    -0.004 C 
HETATM    9  C   UNK N   1       6.678   0.442  -0.003  0.00  0.00     0.005 C 
ENDBRANCH   7   8
ENDBRANCH   6   7
ENDBRANCH   4   6
ENDBRANCH   3   4
ENDBRANCH   2   3
ENDBRANCH   1   2
BRANCH   1  10
HETATM   10  O   UNK N   1      -0.150   2.679   0.803  0.00  0.00    -0.319 OA
BRANCH  10  11
HETATM   11  C   UNK N   1      -0.665   3.850   0.348  0.00  0.00     0.398 C 
HETATM   12  O   UNK N   1      -0.875   4.032  -0.842  0.00  0.00    -0.276 OA
ENDBRANCH  10  11
ENDBRANCH   1  10
BRANCH   1  13
HETATM   13  C   UNK N   1      -1.090   1.037  -0.677  0.00  0.00     0.215 C 
BRANCH  13  14
HETATM   14  O   UNK N   1      -2.059   0.721   0.282  0.00  0.00    -0.294 OA
BRANCH  14  15
HETATM   15  P   UNK N   1      -3.347  -0.034  -0.605  0.00  0.00     0.390 P 
HETATM   16  O   UNK N   1      -4.100   1.082   0.168  0.00  0.00    -0.632 OA
BRANCH  15  17
HETATM   17  O   UNK N   1      -4.578  -0.927   0.230  0.00  0.00    -0.307 OA
HETATM   18  H   UNK N   1      -5.355  -0.580   0.697  0.00  0.00     0.222 HD
ENDBRANCH  15  17
BRANCH  15  19
HETATM   19  O   UNK N   1      -2.651  -1.160   0.519  0.00  0.00    -0.307 OA
HETATM   20  H   UNK N   1      -3.002  -1.811   1.147  0.00  0.00     0.222 HD
ENDBRANCH  15  19
ENDBRANCH  14  15
ENDBRANCH  13  14
ENDBRANCH   1  13
TORSDOF 13
