REMARK  3 active torsions:
REMARK  status: ('A' for Active; 'I' for Inactive)
REMARK    1  A    between atoms: C_6  and  C_7 
REMARK    2  A    between atoms: C_12  and  C_13 
REMARK    3  A    between atoms: C_13  and  N_14 
ROOT
HETATM    1  C   UNK N   1      -0.873   1.178  -0.000  0.00  0.00    -0.026 A 
HETATM    2  C   UNK N   1       0.379   1.818   0.000  0.00  0.00     0.013 A 
HETATM    3  C   UNK N   1       1.560   1.059   0.000  0.00  0.00     0.010 A 
HETATM    4  C   UNK N   1      -0.919  -0.220  -0.000  0.00  0.00     0.013 A 
HETATM    5  C   UNK N   1       0.251  -0.966  -0.000  0.00  0.00     0.010 A 
HETATM    6  C   UNK N   1       1.502  -0.343  -0.000  0.00  0.00    -0.040 A 
ENDROOT
BRANCH   6   7
HETATM    7  C   UNK N   1       2.795  -1.130   0.000  0.00  0.00     0.167 C 
BRANCH   7   8
HETATM    8  N   UNK N   1       2.692  -2.600   0.000  0.00  0.00    -0.347 N 
HETATM    9  C   UNK N   1       3.752  -3.421  -0.000  0.00  0.00     0.109 A 
HETATM   10  C   UNK N   1       3.282  -4.721  -0.000  0.00  0.00     0.106 A 
HETATM   11  N   UNK N   1       1.935  -4.690   0.000  0.00  0.00    -0.361 N 
HETATM   12  C   UNK N   1       1.598  -3.387   0.000  0.00  0.00     0.182 A 
ATOM     13  HN  UNK N   1       1.302  -5.490   0.000  1.00  0.00     0.166 HD
ENDBRANCH   7   8
ENDBRANCH   6   7
BRANCH   1  14
HETATM   14  C   UNK N   1      -2.142   1.943  -0.000  0.00  0.00    -0.026 A 
HETATM   15  C   UNK N   1      -3.370   1.259  -0.000  0.00  0.00     0.012 A 
HETATM   16  C   UNK N   1      -4.576   1.960  -0.000  0.00  0.00     0.001 A 
HETATM   17  C   UNK N   1      -4.569   3.356   0.000  0.00  0.00     0.000 A 
HETATM   18  C   UNK N   1      -3.354   4.049   0.000  0.00  0.00     0.001 A 
HETATM   19  C   UNK N   1      -2.144   3.346   0.000  0.00  0.00     0.012 A 
ENDBRANCH   1  14
TORSDOF 3
