REMARK  7 active torsions:
REMARK  status: ('A' for Active; 'I' for Inactive)
REMARK    1  A    between atoms: C_1  and  C_2 
REMARK    2  A    between atoms: C_1  and  N_5 
REMARK    3  A    between atoms: C_1  and  C_6 
REMARK    4  A    between atoms: C_2  and  O_4 
REMARK    5  A    between atoms: C_6  and  S_7 
REMARK    6  A    between atoms: S_7  and  C_15 
REMARK    7  A    between atoms: C_9  and  C_15 
ROOT
HETATM    1  C   UNK N   1      -1.567   0.275   0.595  0.00  0.00     0.109 C 
ENDROOT
BRANCH   1   2
HETATM    2  C   UNK N   1      -2.735  -0.410  -0.101  0.00  0.00     0.182 C 
BRANCH   2   3
HETATM    3  C   UNK N   1      -3.957   0.476  -0.089  0.00  0.00     0.163 C 
HETATM    4  O   UNK N   1      -4.995   0.099   0.421  0.00  0.00    -0.648 OA
BRANCH   3   5
HETATM    5  O   UNK N   1      -3.902   1.701  -0.654  0.00  0.00    -0.775 OA
HETATM    6  H   UNK N   1      -3.147   2.093  -1.047  0.00  0.00     0.167 HD
ENDBRANCH   3   5
ENDBRANCH   2   3
BRANCH   2   7
HETATM    7  N   UNK N   1      -3.015  -1.662   0.588  0.00  0.00    -0.417 N 
HETATM    8  H   UNK N   1      -3.873  -1.930   1.071  0.00  0.00     0.150 HD
HETATM    9  H   UNK N   1      -2.265  -2.353   0.588  0.00  0.00     0.150 HD
ENDBRANCH   2   7
ENDBRANCH   1   2
BRANCH   1  10
HETATM   10  S   UNK N   1      -0.737   1.479  -0.500  0.00  0.00    -0.162 SA
BRANCH  10  11
HETATM   11  C   UNK N   1       0.707   1.578   0.603  0.00  0.00     0.112 C 
BRANCH  11  12
HETATM   12  C   UNK N   1       1.741   0.540   0.299  0.00  0.00    -0.049 A 
HETATM   13  C   UNK N   1       3.073   0.924   0.110  0.00  0.00     0.009 A 
HETATM   14  C   UNK N   1       4.062  -0.046  -0.086  0.00  0.00     0.019 A 
HETATM   15  C   UNK N   1       3.719  -1.402  -0.095  0.00  0.00     0.011 A 
HETATM   16 Br   UNK N   1       5.068  -2.730  -0.317  0.00  0.00    -0.051 Br
HETATM   17  C   UNK N   1       2.388  -1.788   0.084  0.00  0.00     0.019 A 
HETATM   18  C   UNK N   1       1.403  -0.819   0.288  0.00  0.00     0.009 A 
ENDBRANCH  11  12
ENDBRANCH  10  11
ENDBRANCH   1  10
TORSDOF 7
