REMARK  8 active torsions:
REMARK  status: ('A' for Active; 'I' for Inactive)
REMARK    1  A    between atoms: C_1  and  N_9 
REMARK    2  A    between atoms: N_9  and  C_10 
REMARK    3  A    between atoms: C_10  and  N_12 
REMARK    4  A    between atoms: N_12  and  C_13 
REMARK    5  A    between atoms: C_13  and  C_14 
REMARK    6  A    between atoms: C_14  and  C_15 
REMARK    7  A    between atoms: C_20  and  O_22 
REMARK    8  A    between atoms: O_22  and  C_23 
ROOT
HETATM    1  N   UNK N   1      -0.907  -1.438   0.000  0.00  0.00    -0.367 N 
HETATM    2  H   UNK N   1      -1.237  -2.365   0.001  0.00  0.00     0.161 HD
ENDROOT
BRANCH   1   3
HETATM    3  C   UNK N   1      -1.944  -0.433  -0.001  0.00  0.00     0.173 C 
HETATM    4  S   UNK N   1      -1.627   0.977  -0.003  0.00  0.00    -0.041 SA
BRANCH   3   5
HETATM    5  N   UNK N   1      -3.314  -0.873   0.000  0.00  0.00    -0.320 N 
HETATM    6  H   UNK N   1      -3.448  -1.848   0.001  0.00  0.00     0.169 HD
BRANCH   5   7
HETATM    7  C   UNK N   1      -4.513  -0.084   0.000  0.00  0.00     0.106 A 
HETATM    8  N   UNK N   1      -5.721  -0.717   0.000  0.00  0.00    -0.352 N 
HETATM    9  C   UNK N   1      -6.895  -0.026   0.000  0.00  0.00     0.096 A 
ATOM     10  HN  UNK N   1      -5.747  -1.737   0.000  1.00  0.00     0.166 HD
HETATM   11  C   UNK N   1      -6.889   1.371   0.000  0.00  0.00    -0.046 A 
HETATM   12  C   UNK N   1      -5.674   2.046   0.000  0.00  0.00     0.012 A 
HETATM   13  C   UNK N   1      -8.164   2.134   0.000  0.00  0.00     0.049 C 
HETATM   14  C   UNK N   1      -4.488   1.321   0.000  0.00  0.00     0.049 A 
ENDBRANCH   5   7
ENDBRANCH   3   5
ENDBRANCH   1   3
BRANCH   1  15
HETATM   15  C   UNK N   1       0.558  -1.313  -0.000  0.00  0.00     0.128 C 
BRANCH  15  16
HETATM   16  C   UNK N   1       1.064   0.124   0.002  0.00  0.00     0.080 C 
BRANCH  16  17
HETATM   17  C   UNK N   1       2.519   0.471   0.001  0.00  0.00     0.052 A 
HETATM   18  N   UNK N   1       2.817   1.798   0.001  0.00  0.00    -0.367 N 
HETATM   19  C   UNK N   1       4.091   2.257   0.000  0.00  0.00     0.091 A 
ATOM     20  HN  UNK N   1       2.052   2.473   0.001  1.00  0.00     0.165 HD
HETATM   21  C   UNK N   1       5.152   1.362  -0.000  0.00  0.00     0.057 A 
HETATM   22  C   UNK N   1       4.908  -0.011  -0.000  0.00  0.00     0.110 A 
HETATM   23  C   UNK N   1       3.566  -0.476   0.000  0.00  0.00     0.172 A 
HETATM   24  F   UNK N   1       3.289  -1.804   0.000  0.00  0.00    -0.201 F 
BRANCH  22  25
HETATM   25  O   UNK N   1       5.986  -0.834  -0.001  0.00  0.00    -0.348 OA
BRANCH  25  26
HETATM   26  C   UNK N   1       5.943  -2.207  -0.000  0.00  0.00     0.171 C 
HETATM   27  C   UNK N   1       7.360  -2.743  -0.000  0.00  0.00     0.034 C 
ENDBRANCH  25  26
ENDBRANCH  22  25
ENDBRANCH  16  17
ENDBRANCH  15  16
ENDBRANCH   1  15
TORSDOF 8
