REMARK  20 active torsions:
REMARK  status: ('A' for Active; 'I' for Inactive)
REMARK    1  A    between atoms: C_2  and  O_9 
REMARK    2  A    between atoms: C_3  and  C_2 
REMARK    3  A    between atoms: C_4  and  C_3 
REMARK    4  A    between atoms: C_4  and  C_5 
REMARK    5  A    between atoms: C_6  and  C_5 
REMARK    6  A    between atoms: C_6  and  C_7 
REMARK    7  A    between atoms: O_9  and  C_10 
REMARK    8  A    between atoms: C_11  and  C_10 
REMARK    9  A    between atoms: C_11  and  C_12 
REMARK   10  A    between atoms: C_11  and  O_18 
REMARK   11  A    between atoms: C_12  and  O_13 
REMARK   12  A    between atoms: O_13  and  P_14 
REMARK   13  A    between atoms: P_14  and  O_17 
REMARK   14  A    between atoms: P_14  and  O_15 
REMARK   15  A    between atoms: C_19  and  O_18 
REMARK   16  A    between atoms: C_21  and  C_19 
REMARK   17  A    between atoms: C_22  and  C_21 
REMARK   18  A    between atoms: C_23  and  C_22 
REMARK   19  A    between atoms: C_24  and  C_23 
REMARK   20  A    between atoms: C_25  and  C_24 
ROOT
HETATM    1  C   UNK N   1      -0.051   0.113   0.491  0.00  0.00     0.180 C 
ENDROOT
BRANCH   1   2
HETATM    2  C   UNK N   1       0.703   0.238  -0.827  0.00  0.00     0.213 C 
BRANCH   2   3
HETATM    3  O   UNK N   1       1.589   1.290  -0.770  0.00  0.00    -0.319 OA
BRANCH   3   4
HETATM    4  C   UNK N   1       2.851   1.113  -0.310  0.00  0.00     0.258 C 
HETATM    5  O   UNK N   1       3.599   2.075  -0.221  0.00  0.00    -0.265 OA
BRANCH   4   6
HETATM    6  C   UNK N   1       3.337  -0.245   0.111  0.00  0.00     0.111 C 
BRANCH   6   7
HETATM    7  C   UNK N   1       4.460  -0.702  -0.801  0.00  0.00     0.010 C 
BRANCH   7   8
HETATM    8  C   UNK N   1       5.707  -1.025   0.001  0.00  0.00     0.000 C 
BRANCH   8   9
HETATM    9  C   UNK N   1       6.208   0.216   0.723  0.00  0.00    -0.000 C 
BRANCH   9  10
HETATM   10  C   UNK N   1       7.673   0.070   1.072  0.00  0.00    -0.005 C 
HETATM   11  C   UNK N   1       8.519   0.400  -0.143  0.00  0.00     0.005 C 
ENDBRANCH   9  10
ENDBRANCH   8   9
ENDBRANCH   7   8
ENDBRANCH   6   7
ENDBRANCH   4   6
ENDBRANCH   3   4
ENDBRANCH   2   3
ENDBRANCH   1   2
BRANCH   1  12
HETATM   12  C   UNK N   1      -0.285  -1.367   0.802  0.00  0.00     0.215 C 
BRANCH  12  13
HETATM   13  O   UNK N   1      -0.903  -2.037  -0.256  0.00  0.00    -0.294 OA
BRANCH  13  14
HETATM   14  P   UNK N   1      -0.901  -3.699   0.249  0.00  0.00     0.390 P 
HETATM   15  O   UNK N   1      -1.526  -4.526  -0.905  0.00  0.00    -0.632 OA
BRANCH  14  16
HETATM   16  O   UNK N   1      -1.901  -3.944   1.646  0.00  0.00    -0.307 OA
HETATM   17  H   UNK N   1      -2.298  -3.529   2.428  0.00  0.00     0.222 HD
ENDBRANCH  14  16
BRANCH  14  18
HETATM   18  O   UNK N   1       0.709  -4.305   0.489  0.00  0.00    -0.307 OA
HETATM   19  H   UNK N   1       0.865  -5.253   0.624  0.00  0.00     0.222 HD
ENDBRANCH  14  18
ENDBRANCH  13  14
ENDBRANCH  12  13
ENDBRANCH   1  12
BRANCH   1  20
HETATM   20  O   UNK N   1      -1.180   0.925   0.445  0.00  0.00    -0.312 OA
BRANCH  20  21
HETATM   21  C   UNK N   1      -2.484   0.607   0.674  0.00  0.00     0.259 C 
HETATM   22  O   UNK N   1      -2.816  -0.501   1.069  0.00  0.00    -0.265 OA
BRANCH  21  23
HETATM   23  C   UNK N   1      -3.526   1.650   0.457  0.00  0.00     0.111 C 
BRANCH  23  24
HETATM   24  C   UNK N   1      -4.431   1.240  -0.693  0.00  0.00     0.010 C 
BRANCH  24  25
HETATM   25  C   UNK N   1      -5.882   1.176  -0.253  0.00  0.00     0.000 C 
BRANCH  25  26
HETATM   26  C   UNK N   1      -6.103  -0.006   0.678  0.00  0.00    -0.000 C 
BRANCH  26  27
HETATM   27  C   UNK N   1      -7.582  -0.313   0.797  0.00  0.00    -0.005 C 
HETATM   28  C   UNK N   1      -8.048  -1.089  -0.421  0.00  0.00     0.005 C 
ENDBRANCH  26  27
ENDBRANCH  25  26
ENDBRANCH  24  25
ENDBRANCH  23  24
ENDBRANCH  21  23
ENDBRANCH  20  21
ENDBRANCH   1  20
TORSDOF 20
