REMARK  11 active torsions:
REMARK  status: ('A' for Active; 'I' for Inactive)
REMARK    1  A    between atoms: P_1  and  O_2 
REMARK    2  A    between atoms: P_1  and  O_3 
REMARK    3  A    between atoms: P_1  and  C_5 
REMARK    4  A    between atoms: O_2  and  C_16 
REMARK    5  A    between atoms: C_5  and  C_6 
REMARK    6  A    between atoms: C_6  and  C_7 
REMARK    7  A    between atoms: C_7  and  C_8 
REMARK       I    between atoms: C_8  and  N_9 
REMARK    8  A    between atoms: N_9  and  C_11 
REMARK    9  A    between atoms: C_11  and  C_13 
REMARK   10  A    between atoms: C_13  and  O_15 
REMARK   11  A    between atoms: C_19  and  N_22 
ROOT
HETATM    1  P   UNK N   1      -1.503   1.002   0.083  0.00  0.00     0.243 P 
HETATM    2  O   UNK N   1      -1.499   0.337   1.487  0.00  0.00    -0.653 OA
ENDROOT
BRANCH   1   3
HETATM    3  O   UNK N   1      -3.179   1.225  -0.229  0.00  0.00    -0.276 OA
BRANCH   3   4
HETATM    4  C   UNK N   1      -4.058   0.198  -0.245  0.00  0.00     0.079 A 
HETATM    5  C   UNK N   1      -3.627  -1.139  -0.289  0.00  0.00     0.040 A 
HETATM    6  C   UNK N   1      -4.551  -2.181  -0.223  0.00  0.00     0.039 A 
HETATM    7  C   UNK N   1      -5.920  -1.902  -0.102  0.00  0.00     0.103 A 
HETATM    8  C   UNK N   1      -6.351  -0.568  -0.082  0.00  0.00     0.039 A 
HETATM    9  C   UNK N   1      -5.424   0.476  -0.160  0.00  0.00     0.040 A 
BRANCH   7  10
HETATM   10  N   UNK N   1      -6.860  -2.961   0.024  0.00  0.00    -0.116 N 
HETATM   11  O   UNK N   1      -6.494  -4.097   0.013  0.00  0.00    -0.532 OA
HETATM   12  O   UNK N   1      -8.136  -2.693   0.207  0.00  0.00    -0.532 OA
ENDBRANCH   7  10
ENDBRANCH   3   4
ENDBRANCH   1   3
BRANCH   1  13
HETATM   13  O   UNK N   1      -0.830   2.575   0.368  0.00  0.00    -0.329 OA
HETATM   14  H   UNK N   1       0.120   2.689   0.528  0.00  0.00     0.220 HD
ENDBRANCH   1  13
BRANCH   1  15
HETATM   15  C   UNK N   1      -0.582  -0.056  -1.155  0.00  0.00     0.126 C 
BRANCH  15  16
HETATM   16  C   UNK N   1       0.344  -1.092  -0.515  0.00  0.00     0.021 C 
BRANCH  16  17
HETATM   17  C   UNK N   1       1.179  -0.601   0.667  0.00  0.00     0.103 C 
BRANCH  17  18
HETATM   18  C   UNK N   1       2.152   0.466   0.293  0.00  0.00     0.218 C 
HETATM   19  N   UNK N   1       3.473   0.176   0.278  0.00  0.00    -0.347 N 
HETATM   20  H   UNK N   1       3.754  -0.744   0.488  0.00  0.00     0.163 HD
HETATM   21  O   UNK N   1       1.756   1.587   0.013  0.00  0.00    -0.274 OA
BRANCH  19  22
HETATM   22  C   UNK N   1       4.494   1.154  -0.032  0.00  0.00     0.178 C 
HETATM   23  C   UNK N   1       4.560   2.204   1.068  0.00  0.00     0.043 C 
BRANCH  22  24
HETATM   24  C   UNK N   1       5.826   0.471  -0.161  0.00  0.00     0.163 C 
HETATM   25  O   UNK N   1       6.819   1.121  -0.447  0.00  0.00    -0.648 OA
BRANCH  24  26
HETATM   26  O   UNK N   1       5.933  -0.861   0.017  0.00  0.00    -0.775 OA
HETATM   27  H   UNK N   1       5.168  -1.388   0.140  0.00  0.00     0.167 HD
ENDBRANCH  24  26
ENDBRANCH  22  24
ENDBRANCH  19  22
ENDBRANCH  17  18
ENDBRANCH  16  17
ENDBRANCH  15  16
ENDBRANCH   1  15
TORSDOF 11
