REMARK  4 active torsions:
REMARK  status: ('A' for Active; 'I' for Inactive)
REMARK    1  A    between atoms: C_5  and  O_7 
REMARK    2  A    between atoms: O_7  and  C_8 
REMARK    3  A    between atoms: C_12  and  C_14 
REMARK    4  A    between atoms: C_14  and  C_17 
ROOT
HETATM    1  C   UNK N   1       1.103  -0.237   0.093  0.00  0.00     0.136 A 
HETATM    2  C   UNK N   1       2.169  -1.173  -0.122  0.00  0.00     0.071 A 
HETATM    3  C   UNK N   1       1.872  -2.530  -0.238  0.00  0.00     0.027 A 
HETATM    4  C   UNK N   1       0.568  -2.994  -0.172  0.00  0.00     0.012 A 
HETATM    5  C   UNK N   1      -0.491  -2.118   0.028  0.00  0.00    -0.011 A 
HETATM    6  C   UNK N   1      -0.217  -0.739   0.178  0.00  0.00     0.158 A 
HETATM    7 Cl   UNK N   1       3.874  -0.816  -0.267  0.00  0.00    -0.081 Cl
HETATM    8  F   UNK N   1      -1.223   0.144   0.398  0.00  0.00    -0.203 F 
ENDROOT
BRANCH   5   9
HETATM    9  C   UNK N   1      -1.866  -2.748   0.020  0.00  0.00     0.100 C 
BRANCH   9  10
HETATM   10  C   UNK N   1      -3.111  -1.914   0.014  0.00  0.00     0.030 A 
HETATM   11  C   UNK N   1      -4.187  -2.295   0.816  0.00  0.00     0.032 A 
HETATM   12  C   UNK N   1      -5.386  -1.592   0.731  0.00  0.00     0.077 A 
HETATM   13  C   UNK N   1      -5.482  -0.525  -0.157  0.00  0.00     0.259 A 
HETATM   14  N   UNK N   1      -4.403  -0.194  -0.934  0.00  0.00    -0.266 N 
HETATM   15  O   UNK N   1      -6.518   0.106  -0.246  0.00  0.00    -0.267 OA
HETATM   16  N   UNK N   1      -3.262  -0.884  -0.863  0.00  0.00    -0.302 N 
HETATM   17  H   UNK N   1      -4.471   0.566  -1.557  0.00  0.00     0.190 HD
ATOM     18  HN  UNK N   1      -2.488  -0.634  -1.479  1.00  0.00     0.186 HD
ENDBRANCH   9  10
ENDBRANCH   5   9
BRANCH   1  19
HETATM   19  O   UNK N   1       1.211   1.126   0.205  0.00  0.00    -0.306 OA
BRANCH  19  20
HETATM   20  C   UNK N   1       2.123   2.137   0.149  0.00  0.00     0.076 A 
HETATM   21  C   UNK N   1       3.499   1.946   0.023  0.00  0.00     0.037 A 
HETATM   22  C   UNK N   1       4.376   3.034  -0.041  0.00  0.00     0.003 A 
HETATM   23  C   UNK N   1       3.877   4.335   0.020  0.00  0.00     0.000 A 
HETATM   24  C   UNK N   1       2.504   4.544   0.150  0.00  0.00     0.003 A 
HETATM   25  C   UNK N   1       1.635   3.450   0.216  0.00  0.00     0.037 A 
ENDBRANCH  19  20
ENDBRANCH   1  19
TORSDOF 4
