REMARK  5 active torsions:
REMARK  status: ('A' for Active; 'I' for Inactive)
REMARK    1  A    between atoms: C_16  and  C_2 
REMARK    2  A    between atoms: C_4  and  O_9 
REMARK    3  A    between atoms: C_14  and  C_13 
REMARK    4  A    between atoms: C_22  and  C_23 
REMARK    5  A    between atoms: C_25  and  O_26 
ROOT
HETATM    1  C   UNK N   1      -0.573   2.987  -0.060  0.00  0.00     0.123 A 
HETATM    2  C   UNK N   1       0.184   0.981  -0.051  0.00  0.00     0.072 A 
HETATM    3  N   UNK N   1       0.570   2.271  -0.048  0.00  0.00    -0.339 N 
HETATM    4  N   UNK N   1      -1.676   2.214  -0.062  0.00  0.00    -0.339 N 
ATOM      5  HN  UNK N   1      -2.648   2.523  -0.075  1.00  0.00     0.167 HD
HETATM    6  C   UNK N   1      -1.223   0.942  -0.042  0.00  0.00     0.072 A 
HETATM    7  H   UNK N   1       1.491   2.618  -0.039  0.00  0.00     0.167 HD
ENDROOT
BRANCH   2   8
HETATM    8  C   UNK N   1       1.187  -0.122  -0.086  0.00  0.00    -0.007 A 
HETATM    9  C   UNK N   1       2.525   0.143   0.245  0.00  0.00     0.016 A 
HETATM   10  C   UNK N   1       3.472  -0.890   0.258  0.00  0.00     0.037 A 
HETATM   11  C   UNK N   1       3.097  -2.197  -0.078  0.00  0.00     0.068 A 
HETATM   12  C   UNK N   1       1.775  -2.451  -0.460  0.00  0.00     0.037 A 
HETATM   13  C   UNK N   1       0.842  -1.420  -0.468  0.00  0.00     0.016 A 
BRANCH  11  14
HETATM   14  O   UNK N   1       4.015  -3.190  -0.019  0.00  0.00    -0.356 OA
HETATM   15  C   UNK N   1       3.708  -4.511  -0.268  0.00  0.00     0.210 C 
ENDBRANCH  11  14
ENDBRANCH   2   8
BRANCH   6  16
HETATM   16  C   UNK N   1      -2.157  -0.218   0.033  0.00  0.00    -0.007 A 
HETATM   17  C   UNK N   1      -1.709  -1.491   0.392  0.00  0.00     0.016 A 
HETATM   18  C   UNK N   1      -2.568  -2.582   0.436  0.00  0.00     0.037 A 
HETATM   19  C   UNK N   1      -3.923  -2.418   0.133  0.00  0.00     0.068 A 
HETATM   20  C   UNK N   1      -4.403  -1.139  -0.180  0.00  0.00     0.037 A 
HETATM   21  C   UNK N   1      -3.526  -0.043  -0.223  0.00  0.00     0.016 A 
BRANCH  19  22
HETATM   22  O   UNK N   1      -4.773  -3.472   0.129  0.00  0.00    -0.356 OA
HETATM   23  C   UNK N   1      -4.360  -4.768   0.351  0.00  0.00     0.210 C 
ENDBRANCH  19  22
ENDBRANCH   6  16
BRANCH   1  24
HETATM   24  C   UNK N   1      -0.599   4.455  -0.058  0.00  0.00     0.049 A 
HETATM   25  C   UNK N   1       0.511   5.298  -0.076  0.00  0.00     0.023 A 
HETATM   26  C   UNK N   1       0.159   6.678  -0.060  0.00  0.00     0.009 A 
HETATM   27  C   UNK N   1      -1.224   6.914  -0.026  0.00  0.00     0.050 A 
HETATM   28  S   UNK N   1      -1.943   5.417  -0.021  0.00  0.00    -0.098 SA
ENDBRANCH   1  24
TORSDOF 5
