REMARK  6 active torsions:
REMARK  status: ('A' for Active; 'I' for Inactive)
REMARK    1  A    between atoms: C_4  and  O_18 
REMARK    2  A    between atoms: C_5  and  C_4 
REMARK    3  A    between atoms: O_18  and  C_19 
REMARK    4  A    between atoms: C_22  and  C_23 
REMARK    5  A    between atoms: C_24  and  C_28 
REMARK    6  A    between atoms: C_28  and  C_29 
ROOT
HETATM    1  C   UNK N   1      -2.048   0.010   0.000  0.00  0.00     0.016 A 
HETATM    2  C   UNK N   1      -3.262  -2.061  -0.000  0.00  0.00     0.016 A 
HETATM    3  C   UNK N   1      -0.807  -2.039   0.000  0.00  0.00     0.069 A 
HETATM    4  C   UNK N   1      -2.022  -2.761  -0.000  0.00  0.00     0.037 A 
HETATM    5  C   UNK N   1      -0.860  -0.648   0.000  0.00  0.00     0.037 A 
HETATM    6  C   UNK N   1      -3.267  -0.648   0.000  0.00  0.00    -0.007 A 
ENDROOT
BRANCH   6   7
HETATM    7  C   UNK N   1      -4.492   0.210   0.000  0.00  0.00     0.066 A 
HETATM    8  C   UNK N   1      -4.490   1.601   0.000  0.00  0.00    -0.008 A 
HETATM    9  C   UNK N   1      -5.815   1.974  -0.000  0.00  0.00     0.116 A 
HETATM   10  N   UNK N   1      -6.562   0.843  -0.000  0.00  0.00    -0.311 N 
HETATM   11  N   UNK N   1      -5.761  -0.223  -0.000  0.00  0.00    -0.300 N 
HETATM   12  H   UNK N   1      -7.546   0.813  -0.000  0.00  0.00     0.186 HD
ATOM     13  HN  UNK N   1      -6.062  -1.198  -0.000  1.00  0.00     0.187 HD
BRANCH   8  14
HETATM   14  C   UNK N   1      -3.223   2.414   0.000  0.00  0.00     0.081 C 
BRANCH  14  15
HETATM   15  C   UNK N   1      -2.942   3.868  -0.000  0.00  0.00    -0.051 A 
HETATM   16  C   UNK N   1      -3.920   4.860   0.000  0.00  0.00     0.024 A 
HETATM   17  C   UNK N   1      -3.514   6.202   0.000  0.00  0.00     0.088 A 
HETATM   18  N   UNK N   1      -2.189   6.524  -0.000  0.00  0.00    -0.375 N 
HETATM   19  C   UNK N   1      -1.226   5.566  -0.000  0.00  0.00     0.088 A 
ATOM     20  HN  UNK N   1      -1.915   7.507   0.000  1.00  0.00     0.164 HD
HETATM   21  C   UNK N   1      -1.590   4.224  -0.000  0.00  0.00     0.024 A 
ENDBRANCH  14  15
ENDBRANCH   8  14
ENDBRANCH   6   7
BRANCH   3  22
HETATM   22  O   UNK N   1       0.417  -2.641  -0.000  0.00  0.00    -0.345 OA
BRANCH  22  23
HETATM   23  C   UNK N   1       1.527  -1.807  -0.000  0.00  0.00     0.232 C 
BRANCH  23  24
HETATM   24  C   UNK N   1       2.887  -2.384  -0.000  0.00  0.00     0.034 A 
HETATM   25  C   UNK N   1       3.136  -3.760  -0.000  0.00  0.00     0.028 A 
HETATM   26  C   UNK N   1       4.462  -4.210   0.000  0.00  0.00     0.016 A 
HETATM   27  C   UNK N   1       5.511  -3.283   0.000  0.00  0.00    -0.009 A 
HETATM   28  C   UNK N   1       5.212  -1.907  -0.000  0.00  0.00     0.042 A 
HETATM   29  C   UNK N   1       6.844  -3.702   0.000  0.00  0.00     0.013 A 
HETATM   30  N   UNK N   1       3.922  -1.502  -0.000  0.00  0.00    -0.357 N 
HETATM   31  C   UNK N   1       6.241  -0.962  -0.000  0.00  0.00     0.030 A 
ATOM     32  HN  UNK N   1       3.718  -0.503  -0.000  1.00  0.00     0.166 HD
HETATM   33  C   UNK N   1       7.572  -1.385   0.000  0.00  0.00     0.002 A 
HETATM   34  C   UNK N   1       7.873  -2.752   0.000  0.00  0.00     0.001 A 
ENDBRANCH  23  24
ENDBRANCH  22  23
ENDBRANCH   3  22
TORSDOF 6
