REMARK  5 active torsions:
REMARK  status: ('A' for Active; 'I' for Inactive)
REMARK    1  A    between atoms: C_14  and  C_10 
REMARK    2  A    between atoms: C_22  and  C_21 
REMARK    3  A    between atoms: O_25  and  C_23 
REMARK    4  A    between atoms: C_26  and  O_25 
REMARK    5  A    between atoms: C_27  and  C_26 
ROOT
HETATM    1  C   UNK N   1       1.604  -0.776  -0.001  0.00  0.00     0.016 A 
HETATM    2  C   UNK N   1      -0.778  -2.206   0.000  0.00  0.00     0.037 A 
HETATM    3  C   UNK N   1       0.407  -0.106  -0.001  0.00  0.00     0.037 A 
HETATM    4  C   UNK N   1       1.674  -2.152  -0.000  0.00  0.00    -0.007 A 
HETATM    5  C   UNK N   1      -0.805  -0.800  -0.000  0.00  0.00     0.069 A 
HETATM    6  C   UNK N   1       0.465  -2.883   0.000  0.00  0.00     0.016 A 
ENDROOT
BRANCH   4   7
HETATM    7  C   UNK N   1       3.004  -2.823  -0.000  0.00  0.00     0.071 A 
HETATM    8  C   UNK N   1       4.316  -2.275  -0.000  0.00  0.00     0.020 A 
HETATM    9  C   UNK N   1       5.153  -3.381   0.000  0.00  0.00     0.124 A 
HETATM   10  N   UNK N   1       4.390  -4.484   0.000  0.00  0.00    -0.306 N 
HETATM   11  C   UNK N   1       4.889  -5.846   0.000  0.00  0.00     0.177 C 
HETATM   12  N   UNK N   1       3.107  -4.167   0.000  0.00  0.00    -0.298 N 
ATOM     13  HN  UNK N   1       2.329  -4.826   0.000  1.00  0.00     0.187 HD
BRANCH   8  14
HETATM   14  C   UNK N   1       4.866  -0.874   0.000  0.00  0.00    -0.020 A 
HETATM   15  C   UNK N   1       4.061   0.267   0.000  0.00  0.00     0.029 A 
HETATM   16  C   UNK N   1       4.620   1.544   0.001  0.00  0.00     0.088 A 
HETATM   17  N   UNK N   1       5.968   1.692   0.000  0.00  0.00    -0.375 N 
HETATM   18  C   UNK N   1       6.792   0.610  -0.000  0.00  0.00     0.088 A 
ATOM     19  HN  UNK N   1       6.371   2.629   0.000  1.00  0.00     0.164 HD
HETATM   20  C   UNK N   1       6.257  -0.683  -0.000  0.00  0.00     0.029 A 
ENDBRANCH   8  14
ENDBRANCH   4   7
BRANCH   5  21
HETATM   21  O   UNK N   1      -1.973  -0.102   0.000  0.00  0.00    -0.345 OA
BRANCH  21  22
HETATM   22  C   UNK N   1      -1.912   1.282  -0.000  0.00  0.00     0.232 C 
BRANCH  22  23
HETATM   23  C   UNK N   1      -3.203   2.009   0.000  0.00  0.00     0.034 A 
HETATM   24  C   UNK N   1      -3.151   3.406   0.000  0.00  0.00     0.028 A 
HETATM   25  C   UNK N   1      -4.329   4.143   0.000  0.00  0.00     0.016 A 
HETATM   26  C   UNK N   1      -5.549   3.478   0.000  0.00  0.00    -0.009 A 
HETATM   27  C   UNK N   1      -5.570   2.063   0.000  0.00  0.00     0.042 A 
HETATM   28  C   UNK N   1      -6.743   4.199  -0.000  0.00  0.00     0.013 A 
HETATM   29  C   UNK N   1      -6.794   1.392   0.000  0.00  0.00     0.030 A 
HETATM   30  N   UNK N   1      -4.401   1.363   0.000  0.00  0.00    -0.357 N 
HETATM   31  C   UNK N   1      -7.989   2.120  -0.000  0.00  0.00     0.002 A 
HETATM   32  C   UNK N   1      -7.963   3.520  -0.000  0.00  0.00     0.001 A 
ATOM     33  HN  UNK N   1      -4.425   0.343   0.000  1.00  0.00     0.166 HD
ENDBRANCH  22  23
ENDBRANCH  21  22
ENDBRANCH   5  21
TORSDOF 5
