REMARK  8 active torsions:
REMARK  status: ('A' for Active; 'I' for Inactive)
REMARK    1  A    between atoms: C_7  and  O_8 
REMARK    2  A    between atoms: O_8  and  C_9 
REMARK    3  A    between atoms: C_14  and  O_15 
REMARK    4  A    between atoms: O_15  and  C_16 
REMARK    5  A    between atoms: C_16  and  C_17 
REMARK    6  A    between atoms: C_17  and  C_18 
REMARK    7  A    between atoms: C_18  and  O_19 
REMARK    8  A    between atoms: O_19  and  C_20 
ROOT
HETATM    1  C   UNK N   1      -1.153  -2.460   0.041  0.00  0.00     0.230 A 
HETATM    2  C   UNK N   1      -0.613  -3.754  -0.546  0.00  0.00     0.270 A 
HETATM    3  O   UNK N   1       0.538  -3.797  -0.951  0.00  0.00    -0.269 OA
HETATM    4  N   UNK N   1      -1.387  -4.857  -0.661  0.00  0.00    -0.276 N 
HETATM    5  C   UNK N   1      -2.683  -4.879  -0.276  0.00  0.00     0.329 A 
HETATM    6  O   UNK N   1      -3.322  -5.911  -0.384  0.00  0.00    -0.247 OA
HETATM    7  N   UNK N   1      -3.283  -3.768   0.216  0.00  0.00    -0.276 N 
HETATM    8  C   UNK N   1      -2.627  -2.593   0.375  0.00  0.00     0.270 A 
HETATM    9  O   UNK N   1      -3.233  -1.631   0.824  0.00  0.00    -0.269 OA
HETATM   10  H   UNK N   1      -0.991  -5.676  -1.039  0.00  0.00     0.173 HD
HETATM   11  H   UNK N   1      -4.234  -3.817   0.469  0.00  0.00     0.173 HD
ENDROOT
BRANCH   1  12
HETATM   12  O   UNK N   1      -0.998  -1.487  -0.945  0.00  0.00    -0.320 OA
BRANCH  12  13
HETATM   13  C   UNK N   1      -0.328  -0.321  -0.808  0.00  0.00     0.071 A 
HETATM   14  C   UNK N   1       0.819  -0.100  -1.577  0.00  0.00     0.039 A 
HETATM   15  C   UNK N   1       1.565   1.068  -1.411  0.00  0.00     0.040 A 
HETATM   16  C   UNK N   1       1.141   2.044  -0.507  0.00  0.00     0.076 A 
HETATM   17  C   UNK N   1      -0.029   1.834   0.246  0.00  0.00     0.040 A 
HETATM   18  C   UNK N   1      -0.754   0.651   0.105  0.00  0.00     0.039 A 
BRANCH  16  19
HETATM   19  O   UNK N   1       1.867   3.178  -0.355  0.00  0.00    -0.311 OA
BRANCH  19  20
HETATM   20  C   UNK N   1       1.302   4.398  -0.187  0.00  0.00     0.076 A 
HETATM   21  C   UNK N   1       1.966   5.376   0.560  0.00  0.00     0.040 A 
HETATM   22  C   UNK N   1       1.385   6.638   0.731  0.00  0.00     0.045 A 
HETATM   23  C   UNK N   1       0.151   6.929   0.139  0.00  0.00     0.116 A 
HETATM   24  F   UNK N   1      -0.412   8.149   0.302  0.00  0.00    -0.206 F 
HETATM   25  C   UNK N   1      -0.505   5.962  -0.623  0.00  0.00     0.045 A 
HETATM   26  C   UNK N   1       0.065   4.701  -0.782  0.00  0.00     0.040 A 
ENDBRANCH  19  20
ENDBRANCH  16  19
ENDBRANCH  12  13
ENDBRANCH   1  12
BRANCH   1  27
HETATM   27  C   UNK N   1      -0.444  -2.121   1.387  0.00  0.00     0.085 C 
BRANCH  27  28
HETATM   28  C   UNK N   1       1.042  -2.459   1.528  0.00  0.00     0.171 C 
BRANCH  28  29
HETATM   29  O   UNK N   1       1.833  -1.710   0.657  0.00  0.00    -0.391 OA
BRANCH  29  30
HETATM   30  C   UNK N   1       3.128  -2.198   0.843  0.00  0.00     0.163 C 
HETATM   31  C   UNK N   1       3.498  -3.146  -0.283  0.00  0.00     0.033 C 
ENDBRANCH  29  30
ENDBRANCH  28  29
ENDBRANCH  27  28
ENDBRANCH   1  27
TORSDOF 8
