REMARK  6 active torsions:
REMARK  status: ('A' for Active; 'I' for Inactive)
REMARK    1  A    between atoms: C_2  and  C_3 
REMARK    2  A    between atoms: N_18  and  C_19 
REMARK    3  A    between atoms: N_18  and  C_26 
REMARK    4  A    between atoms: C_23  and  C_24 
REMARK    5  A    between atoms: C_25  and  C_26 
REMARK    6  A    between atoms: C_25  and  O_27 
ROOT
HETATM    1  C   UNK N   1       4.053  -2.913  -0.081  0.00  0.00     0.184 A 
HETATM    2  C   UNK N   1      -0.294  -2.015   0.089  0.00  0.00     0.100 A 
HETATM    3  N   UNK N   1       2.818  -3.478  -0.013  0.00  0.00    -0.332 N 
ATOM      4  HN  UNK N   1       2.710  -4.492   0.004  1.00  0.00     0.168 HD
HETATM    5  C   UNK N   1       1.736  -2.669   0.032  0.00  0.00     0.164 A 
HETATM    6  O   UNK N   1       0.493  -3.071   0.086  0.00  0.00    -0.291 OA
HETATM    7  C   UNK N   1       1.823  -1.298   0.016  0.00  0.00     0.073 A 
HETATM    8  C   UNK N   1       3.116  -0.715  -0.007  0.00  0.00     0.117 A 
HETATM    9  N   UNK N   1       4.191  -1.554  -0.074  0.00  0.00    -0.338 N 
ATOM     10  HN  UNK N   1       5.128  -1.153  -0.120  1.00  0.00     0.168 HD
HETATM   11  C   UNK N   1       0.495  -0.846   0.045  0.00  0.00     0.027 A 
ENDROOT
BRANCH   2  12
HETATM   12  C   UNK N   1      -1.772  -2.147   0.034  0.00  0.00    -0.001 A 
HETATM   13  C   UNK N   1      -2.359  -3.402   0.248  0.00  0.00     0.014 A 
HETATM   14  C   UNK N   1      -3.747  -3.558   0.173  0.00  0.00     0.001 A 
HETATM   15  C   UNK N   1      -4.560  -2.464  -0.134  0.00  0.00     0.000 A 
HETATM   16  C   UNK N   1      -3.985  -1.215  -0.371  0.00  0.00     0.001 A 
HETATM   17  C   UNK N   1      -2.600  -1.062  -0.290  0.00  0.00     0.014 A 
ENDBRANCH   2  12
BRANCH  11  18
HETATM   18  C   UNK N   1      -0.025   0.538   0.004  0.00  0.00    -0.022 A 
HETATM   19  C   UNK N   1      -1.002   0.947   0.925  0.00  0.00     0.012 A 
HETATM   20  C   UNK N   1      -1.529   2.238   0.877  0.00  0.00     0.001 A 
HETATM   21  C   UNK N   1      -1.092   3.131  -0.104  0.00  0.00     0.000 A 
HETATM   22  C   UNK N   1      -0.124   2.732  -1.031  0.00  0.00     0.001 A 
HETATM   23  C   UNK N   1       0.411   1.440  -0.977  0.00  0.00     0.012 A 
ENDBRANCH  11  18
BRANCH   8  24
HETATM   24  N   UNK N   1       3.368   0.679   0.071  0.00  0.00    -0.373 N 
HETATM   25  H   UNK N   1       4.112   1.047  -0.458  0.00  0.00     0.161 HD
BRANCH  24  26
HETATM   26  C   UNK N   1       2.599   1.585   0.880  0.00  0.00     0.147 C 
BRANCH  26  27
HETATM   27  C   UNK N   1       3.010   3.007   0.564  0.00  0.00     0.183 C 
BRANCH  27  28
HETATM   28  O   UNK N   1       2.070   3.891   1.091  0.00  0.00    -0.399 OA
HETATM   29  H   UNK N   1       2.275   4.765   1.457  0.00  0.00     0.209 HD
ENDBRANCH  27  28
ENDBRANCH  26  27
ENDBRANCH  24  26
ENDBRANCH   8  24
TORSDOF 6
