REMARK  11 active torsions:
REMARK  status: ('A' for Active; 'I' for Inactive)
REMARK    1  A    between atoms: C_1  and  O_8 
REMARK    2  A    between atoms: C_4  and  N_21 
REMARK    3  A    between atoms: P_7  and  O_8 
REMARK    4  A    between atoms: P_7  and  O_9 
REMARK    5  A    between atoms: P_7  and  C_11 
REMARK    6  A    between atoms: C_11  and  C_12 
REMARK    7  A    between atoms: C_12  and  C_13 
REMARK    8  A    between atoms: C_13  and  C_14 
REMARK       I    between atoms: C_14  and  N_15 
REMARK    9  A    between atoms: N_15  and  C_17 
REMARK   10  A    between atoms: C_17  and  C_18 
REMARK   11  A    between atoms: C_18  and  O_19 
ROOT
HETATM    1  P   UNK N   1      -0.539  -0.905   0.290  0.00  0.00     0.243 P 
HETATM    2  O   UNK N   1       0.080  -2.323   0.300  0.00  0.00    -0.653 OA
ENDROOT
BRANCH   1   3
HETATM    3  O   UNK N   1      -2.165  -1.192  -0.197  0.00  0.00    -0.276 OA
BRANCH   3   4
HETATM    4  C   UNK N   1      -3.101  -0.221  -0.218  0.00  0.00     0.079 A 
HETATM    5  C   UNK N   1      -4.452  -0.576  -0.193  0.00  0.00     0.040 A 
HETATM    6  C   UNK N   1      -5.437   0.415  -0.129  0.00  0.00     0.039 A 
HETATM    7  C   UNK N   1      -5.075   1.772  -0.108  0.00  0.00     0.103 A 
HETATM    8  C   UNK N   1      -3.721   2.123  -0.169  0.00  0.00     0.039 A 
HETATM    9  C   UNK N   1      -2.741   1.135  -0.217  0.00  0.00     0.040 A 
BRANCH   7  10
HETATM   10  N   UNK N   1      -6.063   2.787  -0.007  0.00  0.00    -0.116 N 
HETATM   11  O   UNK N   1      -7.217   2.498   0.102  0.00  0.00    -0.532 OA
HETATM   12  O   UNK N   1      -5.710   4.055   0.002  0.00  0.00    -0.532 OA
ENDBRANCH   7  10
ENDBRANCH   3   4
ENDBRANCH   1   3
BRANCH   1  13
HETATM   13  O   UNK N   1      -0.634  -0.464   1.967  0.00  0.00    -0.329 OA
HETATM   14  H   UNK N   1      -0.447  -0.295   2.903  0.00  0.00     0.220 HD
ENDBRANCH   1  13
BRANCH   1  15
HETATM   15  C   UNK N   1       0.425   0.296  -0.785  0.00  0.00     0.126 C 
BRANCH  15  16
HETATM   16  C   UNK N   1       1.959   0.234  -0.705  0.00  0.00     0.021 C 
BRANCH  16  17
HETATM   17  C   UNK N   1       2.549  -0.544   0.467  0.00  0.00     0.103 C 
BRANCH  17  18
HETATM   18  C   UNK N   1       3.225  -1.795  -0.031  0.00  0.00     0.218 C 
HETATM   19  N   UNK N   1       4.538  -2.035   0.200  0.00  0.00    -0.351 N 
HETATM   20  H   UNK N   1       4.925  -2.872  -0.143  0.00  0.00     0.163 HD
HETATM   21  O   UNK N   1       2.577  -2.617  -0.655  0.00  0.00    -0.274 OA
BRANCH  19  22
HETATM   22  C   UNK N   1       5.400  -1.131   0.922  0.00  0.00     0.232 C 
BRANCH  22  23
HETATM   23  C   UNK N   1       5.982  -0.123  -0.013  0.00  0.00     0.158 C 
HETATM   24  O   UNK N   1       5.286   0.778  -0.453  0.00  0.00    -0.649 OA
BRANCH  23  25
HETATM   25  O   UNK N   1       7.277  -0.205  -0.369  0.00  0.00    -0.775 OA
HETATM   26  H   UNK N   1       7.678  -1.015  -0.616  0.00  0.00     0.167 HD
ENDBRANCH  23  25
ENDBRANCH  22  23
ENDBRANCH  19  22
ENDBRANCH  17  18
ENDBRANCH  16  17
ENDBRANCH  15  16
ENDBRANCH   1  15
TORSDOF 11
