REMARK  6 active torsions:
REMARK  status: ('A' for Active; 'I' for Inactive)
REMARK    1  A    between atoms: C_1  and  C_2 
REMARK    2  A    between atoms: C_1  and  P_17 
REMARK    3  A    between atoms: C_4  and  C_9 
REMARK    4  A    between atoms: C_9  and  O_13 
REMARK    5  A    between atoms: P_17  and  O_18 
REMARK    6  A    between atoms: P_17  and  O_19 
ROOT
HETATM    1  C   UNK N   1      -1.320  -0.432   0.424  0.00  0.00     0.026 A 
HETATM    2  C   UNK N   1      -1.442   0.893  -0.029  0.00  0.00     0.015 A 
HETATM    3  C   UNK N   1       3.393   1.286  -0.201  0.00  0.00     0.038 A 
HETATM    4  C   UNK N   1       3.503  -0.070   0.149  0.00  0.00     0.019 A 
HETATM    5  C   UNK N   1       2.358  -0.839   0.366  0.00  0.00     0.013 A 
HETATM    6  C   UNK N   1       1.095  -0.263   0.231  0.00  0.00    -0.025 A 
HETATM    7  C   UNK N   1      -0.045  -1.005   0.539  0.00  0.00     0.026 A 
HETATM    8  C   UNK N   1      -0.299   1.651  -0.319  0.00  0.00     0.013 A 
HETATM    9  C   UNK N   1       0.971   1.085  -0.169  0.00  0.00    -0.025 A 
HETATM   10  C   UNK N   1       2.122   1.854  -0.377  0.00  0.00     0.030 A 
ENDROOT
BRANCH   1  11
HETATM   11  C   UNK N   1      -2.531  -1.181   0.918  0.00  0.00     0.364 C 
HETATM   12  F   UNK N   1      -3.252  -0.358   1.765  0.00  0.00    -0.187 F 
HETATM   13  F   UNK N   1      -2.143  -2.301   1.634  0.00  0.00    -0.187 F 
BRANCH  11  14
HETATM   14  P   UNK N   1      -3.635  -1.760  -0.463  0.00  0.00     0.315 P 
HETATM   15  O   UNK N   1      -2.889  -2.795  -1.348  0.00  0.00    -0.649 OA
BRANCH  14  16
HETATM   16  O   UNK N   1      -5.027  -2.634   0.098  0.00  0.00    -0.325 OA
HETATM   17  H   UNK N   1      -5.838  -2.204   0.412  0.00  0.00     0.220 HD
ENDBRANCH  14  16
BRANCH  14  18
HETATM   18  O   UNK N   1      -4.204  -0.560  -1.579  0.00  0.00    -0.325 OA
HETATM   19  H   UNK N   1      -3.782   0.051  -2.203  0.00  0.00     0.220 HD
ENDBRANCH  14  18
ENDBRANCH  11  14
ENDBRANCH   1  11
BRANCH   3  20
HETATM   20  C   UNK N   1       4.609   2.115  -0.327  0.00  0.00     0.176 C 
HETATM   21  O   UNK N   1       5.712   1.621  -0.170  0.00  0.00    -0.646 OA
BRANCH  20  22
HETATM   22  O   UNK N   1       4.502   3.437  -0.572  0.00  0.00    -0.773 OA
HETATM   23  H   UNK N   1       5.260   3.961  -0.742  0.00  0.00     0.167 HD
ENDBRANCH  20  22
ENDBRANCH   3  20
TORSDOF 6
