REMARK  6 active torsions:
REMARK  status: ('A' for Active; 'I' for Inactive)
REMARK    1  A    between atoms: C_8  and  C_9 
REMARK       I    between atoms: C_9  and  N_11 
REMARK    2  A    between atoms: N_11  and  C_12 
REMARK    3  A    between atoms: C_15  and  O_21 
REMARK    4  A    between atoms: C_17  and  C_18 
REMARK    5  A    between atoms: C_18  and  O_20 
REMARK    6  A    between atoms: O_21  and  C_22 
ROOT
HETATM    1  C   UNK N   1       0.790   0.016  -0.000  0.00  0.00     0.052 A 
HETATM    2  C   UNK N   1       1.893  -0.859  -0.000  0.00  0.00     0.033 A 
HETATM    3  C   UNK N   1       1.693  -2.249  -0.000  0.00  0.00     0.039 A 
HETATM    4  C   UNK N   1       0.394  -2.778  -0.000  0.00  0.00     0.080 A 
HETATM    5  C   UNK N   1      -0.688  -1.896   0.000  0.00  0.00     0.058 A 
HETATM    6  C   UNK N   1      -0.517  -0.517   0.000  0.00  0.00     0.067 A 
ENDROOT
BRANCH   1   7
HETATM    7  N   UNK N   1       0.940   1.427  -0.000  0.00  0.00    -0.322 N 
HETATM    8  C   UNK N   1       2.058   2.194  -0.000  0.00  0.00     0.257 C 
HETATM    9  O   UNK N   1       3.169   1.686  -0.000  0.00  0.00    -0.267 OA
HETATM   10  H   UNK N   1       0.095   1.931  -0.000  0.00  0.00     0.169 HD
BRANCH   8  11
HETATM   11  C   UNK N   1       1.870   3.674  -0.000  0.00  0.00     0.054 A 
HETATM   12  C   UNK N   1       2.926   4.620   0.000  0.00  0.00     0.051 A 
HETATM   13  C   UNK N   1       2.626   5.990   0.000  0.00  0.00     0.048 A 
HETATM   14 Cl   UNK N   1       4.621   4.156   0.000  0.00  0.00    -0.083 Cl
HETATM   15  C   UNK N   1       1.300   6.431   0.000  0.00  0.00     0.035 A 
HETATM   16 Cl   UNK N   1       0.934   8.142   0.000  0.00  0.00    -0.084 Cl
HETATM   17  C   UNK N   1       0.261   5.508  -0.000  0.00  0.00     0.025 A 
HETATM   18  C   UNK N   1       0.545   4.147  -0.000  0.00  0.00     0.020 A 
ENDBRANCH   8  11
ENDBRANCH   1   7
BRANCH   6  19
HETATM   19  C   UNK N   1      -1.737   0.338   0.000  0.00  0.00     0.178 C 
HETATM   20  O   UNK N   1      -2.843  -0.181   0.000  0.00  0.00    -0.646 OA
BRANCH  19  21
HETATM   21  O   UNK N   1      -1.651   1.682   0.000  0.00  0.00    -0.773 OA
HETATM   22  H   UNK N   1      -0.811   2.098   0.000  0.00  0.00     0.167 HD
ENDBRANCH  19  21
ENDBRANCH   6  19
BRANCH   4  23
HETATM   23  O   UNK N   1       0.211  -4.129   0.000  0.00  0.00    -0.279 OA
BRANCH  23  24
HETATM   24  C   UNK N   1      -0.986  -4.794   0.000  0.00  0.00     0.228 A 
HETATM   25  N   UNK N   1      -0.989  -6.154   0.000  0.00  0.00    -0.332 N 
HETATM   26  C   UNK N   1      -2.158  -6.850   0.000  0.00  0.00     0.093 A 
ATOM     27  HN  UNK N   1      -0.102  -6.659   0.000  1.00  0.00     0.168 HD
HETATM   28  C   UNK N   1      -3.375  -6.173  -0.000  0.00  0.00     0.034 A 
HETATM   29  C   UNK N   1      -3.359  -4.783  -0.000  0.00  0.00     0.093 A 
HETATM   30  N   UNK N   1      -2.173  -4.123  -0.000  0.00  0.00    -0.332 N 
ATOM     31  HN  UNK N   1      -2.169  -3.103  -0.000  1.00  0.00     0.168 HD
ENDBRANCH  23  24
ENDBRANCH   4  23
TORSDOF 6
