REMARK  10 active torsions:
REMARK  status: ('A' for Active; 'I' for Inactive)
REMARK    1  A    between atoms: C_1  and  C_2 
REMARK       I    between atoms: C_1  and  N_19 
REMARK    2  A    between atoms: C_2  and  C_3 
REMARK    3  A    between atoms: C_3  and  C_4 
REMARK    4  A    between atoms: C_3  and  C_8 
REMARK    5  A    between atoms: C_4  and  C_5 
REMARK       I    between atoms: C_8  and  N_20 
REMARK    6  A    between atoms: C_9  and  C_10 
REMARK    7  A    between atoms: C_9  and  C_12 
REMARK    8  A    between atoms: C_9  and  N_20 
REMARK       I    between atoms: C_10  and  N_21 
REMARK    9  A    between atoms: C_12  and  C_13 
REMARK   10  A    between atoms: N_19  and  O_22 
ROOT
HETATM    1  C   UNK N   1       1.418  -0.124  -0.428  0.00  0.00     0.223 C 
HETATM    2  N   UNK N   1       0.163   0.378  -0.448  0.00  0.00    -0.347 N 
HETATM    3  O   UNK N   1       1.708  -1.053   0.314  0.00  0.00    -0.273 OA
HETATM    4  H   UNK N   1      -0.006   1.106  -1.088  0.00  0.00     0.163 HD
ENDROOT
BRANCH   2   5
HETATM    5  C   UNK N   1      -0.957  -0.035   0.367  0.00  0.00     0.180 C 
BRANCH   5   6
HETATM    6  C   UNK N   1      -1.367  -1.475   0.105  0.00  0.00     0.240 C 
HETATM    7  N   UNK N   1      -0.721  -2.221  -0.825  0.00  0.00    -0.364 N 
HETATM    8  C   UNK N   1      -1.062  -3.600  -1.068  0.00  0.00     0.149 C 
HETATM    9  H   UNK N   1       0.002  -1.809  -1.350  0.00  0.00     0.161 HD
HETATM   10  O   UNK N   1      -2.267  -1.971   0.771  0.00  0.00    -0.271 OA
ENDBRANCH   5   6
BRANCH   5  11
HETATM   11  C   UNK N   1      -2.029   1.014   0.042  0.00  0.00     0.073 C 
BRANCH  11  12
HETATM   12  C   UNK N   1      -3.481   0.721   0.195  0.00  0.00    -0.056 A 
HETATM   13  C   UNK N   1      -4.117  -0.143  -0.704  0.00  0.00     0.007 A 
HETATM   14  C   UNK N   1      -5.503  -0.310  -0.653  0.00  0.00     0.001 A 
HETATM   15  C   UNK N   1      -6.258   0.404   0.282  0.00  0.00     0.000 A 
HETATM   16  C   UNK N   1      -5.625   1.281   1.169  0.00  0.00     0.001 A 
HETATM   17  C   UNK N   1      -4.238   1.446   1.119  0.00  0.00     0.007 A 
ENDBRANCH  11  12
ENDBRANCH   5  11
ENDBRANCH   2   5
BRANCH   1  18
HETATM   18  C   UNK N   1       2.446   0.514  -1.338  0.00  0.00     0.087 C 
BRANCH  18  19
HETATM   19  C   UNK N   1       3.811  -0.188  -1.409  0.00  0.00     0.119 C 
BRANCH  19  20
HETATM   20  C   UNK N   1       4.491  -0.490  -0.110  0.00  0.00     0.241 C 
HETATM   21  N   UNK N   1       4.787  -1.775   0.183  0.00  0.00    -0.237 N 
HETATM   22  H   UNK N   1       4.540  -2.487  -0.451  0.00  0.00     0.197 HD
HETATM   23  O   UNK N   1       4.794   0.408   0.656  0.00  0.00    -0.271 OA
BRANCH  21  24
HETATM   24  O   UNK N   1       5.411  -2.096   1.326  0.00  0.00    -0.287 OA
HETATM   25  H   UNK N   1       5.436  -2.603   2.152  0.00  0.00     0.244 HD
ENDBRANCH  21  24
ENDBRANCH  19  20
ENDBRANCH  18  19
BRANCH  18  26
HETATM   26  C   UNK N   1       2.593   2.031  -1.099  0.00  0.00     0.018 C 
BRANCH  26  27
HETATM   27  C   UNK N   1       2.621   2.483   0.359  0.00  0.00    -0.022 C 
HETATM   28  C   UNK N   1       1.222   2.876   0.797  0.00  0.00     0.009 C 
HETATM   29  C   UNK N   1       3.505   3.704   0.482  0.00  0.00     0.009 C 
ENDBRANCH  26  27
ENDBRANCH  18  26
ENDBRANCH   1  18
TORSDOF 10
