REMARK  19 active torsions:
REMARK  status: ('A' for Active; 'I' for Inactive)
REMARK    1  A    between atoms: P_2  and  O_1 
REMARK    2  A    between atoms: P_2  and  O_4 
REMARK    3  A    between atoms: O_4  and  C_5 
REMARK    4  A    between atoms: C_5  and  C_6 
REMARK    5  A    between atoms: C_6  and  C_9 
REMARK    6  A    between atoms: C_9  and  O_10 
REMARK    7  A    between atoms: C_9  and  C_11 
REMARK       I    between atoms: C_11  and  N_13 
REMARK    8  A    between atoms: N_13  and  C_14 
REMARK    9  A    between atoms: C_14  and  C_15 
REMARK   10  A    between atoms: C_15  and  C_16 
REMARK       I    between atoms: C_16  and  N_18 
REMARK   11  A    between atoms: N_18  and  C_19 
REMARK   12  A    between atoms: C_19  and  C_20 
REMARK   13  A    between atoms: C_20  and  S_21 
REMARK   14  A    between atoms: S_21  and  C_22 
REMARK   15  A    between atoms: C_22  and  C_24 
REMARK   16  A    between atoms: C_24  and  C_25 
REMARK   17  A    between atoms: C_25  and  C_26 
REMARK   18  A    between atoms: C_26  and  C_27 
REMARK   19  A    between atoms: C_27  and  C_28 
ROOT
HETATM    1  C   UNK N   1      -2.765   0.354   0.343  0.00  0.00     0.247 C 
HETATM    2  O   UNK N   1      -2.660  -0.791  -0.090  0.00  0.00    -0.271 OA
HETATM    3  N   UNK N   1      -1.740   0.926   1.017  0.00  0.00    -0.358 N 
HETATM    4  H   UNK N   1      -1.853   1.839   1.368  0.00  0.00     0.162 HD
ENDROOT
BRANCH   3   5
HETATM    5  C   UNK N   1      -0.493   0.249   1.240  0.00  0.00     0.132 C 
BRANCH   5   6
HETATM    6  C   UNK N   1       0.421   0.507   0.063  0.00  0.00     0.122 C 
BRANCH   6   7
HETATM    7  C   UNK N   1       0.860  -0.796  -0.527  0.00  0.00     0.219 C 
HETATM    8  O   UNK N   1       0.124  -1.388  -1.299  0.00  0.00    -0.274 OA
HETATM    9  N   UNK N   1       2.068  -1.319  -0.217  0.00  0.00    -0.360 N 
HETATM   10  H   UNK N   1       2.359  -2.158  -0.641  0.00  0.00     0.162 HD
BRANCH   9  11
HETATM   11  C   UNK N   1       2.931  -0.661   0.727  0.00  0.00     0.133 C 
BRANCH  11  12
HETATM   12  C   UNK N   1       4.330  -1.213   0.634  0.00  0.00     0.102 C 
BRANCH  12  13
HETATM   13  S   UNK N   1       5.447  -0.051   1.468  0.00  0.00    -0.091 SA
BRANCH  13  14
HETATM   14  C   UNK N   1       5.410   1.123   0.103  0.00  0.00     0.186 C 
HETATM   15  O   UNK N   1       4.992   2.252   0.299  0.00  0.00    -0.286 OA
BRANCH  14  16
HETATM   16  C   UNK N   1       5.806   0.716  -1.286  0.00  0.00     0.091 C 
BRANCH  16  17
HETATM   17  C   UNK N   1       7.300   0.459  -1.422  0.00  0.00     0.008 C 
BRANCH  17  18
HETATM   18  C   UNK N   1       7.706  -0.878  -0.824  0.00  0.00     0.000 C 
BRANCH  18  19
HETATM   19  C   UNK N   1       8.447  -0.675   0.491  0.00  0.00    -0.000 C 
BRANCH  19  20
HETATM   20  C   UNK N   1       9.927  -0.410   0.268  0.00  0.00    -0.005 C 
HETATM   21  C   UNK N   1      10.161   1.017  -0.189  0.00  0.00     0.005 C 
ENDBRANCH  19  20
ENDBRANCH  18  19
ENDBRANCH  17  18
ENDBRANCH  16  17
ENDBRANCH  14  16
ENDBRANCH  13  14
ENDBRANCH  12  13
ENDBRANCH  11  12
ENDBRANCH   9  11
ENDBRANCH   6   7
ENDBRANCH   5   6
ENDBRANCH   3   5
BRANCH   1  22
HETATM   22  C   UNK N   1      -4.043   1.128   0.119  0.00  0.00     0.219 C 
BRANCH  22  23
HETATM   23  C   UNK N   1      -5.272   0.492   0.831  0.00  0.00     0.009 C 
HETATM   24  C   UNK N   1      -4.978   0.324   2.313  0.00  0.00     0.020 C 
HETATM   25  C   UNK N   1      -6.469   1.430   0.714  0.00  0.00     0.020 C 
BRANCH  23  26
HETATM   26  C   UNK N   1      -5.660  -0.898   0.290  0.00  0.00     0.189 C 
BRANCH  26  27
HETATM   27  O   UNK N   1      -6.441  -0.828  -0.871  0.00  0.00    -0.320 OA
BRANCH  27  28
HETATM   28  P   UNK N   1      -8.023  -1.425  -0.412  0.00  0.00     0.228 P 
HETATM   29  O   UNK N   1      -8.120  -2.682  -1.317  0.00  0.00    -0.655 OA
HETATM   30  H   UNK N   1      -8.649  -1.648   0.886  0.00  0.00     0.152 HD
BRANCH  28  31
HETATM   31  O   UNK N   1      -9.026  -0.373  -1.353  0.00  0.00    -0.331 OA
HETATM   32  H   UNK N   1      -8.797   0.408  -1.880  0.00  0.00     0.220 HD
ENDBRANCH  28  31
ENDBRANCH  27  28
ENDBRANCH  26  27
ENDBRANCH  23  26
ENDBRANCH  22  23
BRANCH  22  33
HETATM   33  O   UNK N   1      -3.861   2.434   0.599  0.00  0.00    -0.385 OA
HETATM   34  H   UNK N   1      -3.016   2.777   0.931  0.00  0.00     0.210 HD
ENDBRANCH  22  33
ENDBRANCH   1  22
TORSDOF 19
