REMARK  3 active torsions:
REMARK  status: ('A' for Active; 'I' for Inactive)
REMARK       I    between atoms: C_1  and  N_24 
REMARK    1  A    between atoms: C_2  and  N_27 
REMARK    2  A    between atoms: C_4  and  C_7 
REMARK    3  A    between atoms: C_7  and  N_32 
ROOT
HETATM    1  C   UNK N   1       3.373   4.724  -0.756  0.00  0.00     0.679 A 
HETATM    2  C   UNK N   1       1.437   4.545   0.596  0.00  0.00     0.145 A 
HETATM    3  C   UNK N   1       1.206   3.263   0.095  0.00  0.00     0.122 A 
HETATM    4  C   UNK N   1       0.002   1.226   0.095  0.00  0.00     0.043 A 
HETATM    5  C   UNK N   1       0.827   0.751  -0.941  0.00  0.00     0.116 A 
HETATM    6  C   UNK N   1       2.072   2.757  -0.884  0.00  0.00     0.151 A 
HETATM    7  N   UNK N   1       3.138   3.493  -1.289  0.00  0.00    -0.174 N 
ATOM      8  HN  UNK N   1       3.769   3.121  -1.999  1.00  0.00     0.186 HD
HETATM    9  N   UNK N   1       4.515   5.450  -1.144  0.00  0.00    -0.234 N 
HETATM   10  N   UNK N   1       2.518   5.246   0.166  0.00  0.00    -0.175 N 
ATOM     11  HN  UNK N   1       2.692   6.180   0.539  1.00  0.00     0.186 HD
HETATM   12  N   UNK N   1       0.196   2.487   0.565  0.00  0.00    -0.351 N 
ATOM     13  HN  UNK N   1      -0.429   2.857   1.281  1.00  0.00     0.166 HD
HETATM   14  N   UNK N   1       1.846   1.523  -1.405  0.00  0.00    -0.348 N 
ATOM     15  HN  UNK N   1       2.446   1.172  -2.151  1.00  0.00     0.167 HD
HETATM   16  H   UNK N   1       5.354   5.013  -1.416  0.00  0.00     0.174 HD
HETATM   17  H   UNK N   1       4.473   6.434  -1.144  0.00  0.00     0.174 HD
ENDROOT
BRANCH   4  18
HETATM   18  C   UNK N   1      -0.965   0.335   0.840  0.00  0.00     0.188 C 
BRANCH  18  19
HETATM   19  N   UNK N   1      -1.039  -1.073   0.419  0.00  0.00    -0.340 N 
HETATM   20  C   UNK N   1       0.194  -1.852   0.490  0.00  0.00     0.045 A 
HETATM   21  C   UNK N   1       1.320  -1.228   1.088  0.00  0.00     0.030 A 
HETATM   22  C   UNK N   1       0.397  -3.174  -0.006  0.00  0.00    -0.009 A 
HETATM   23  C   UNK N   1       2.572  -1.826   1.157  0.00  0.00     0.002 A 
HETATM   24  C   UNK N   1       2.752  -3.092   0.635  0.00  0.00     0.001 A 
HETATM   25  C   UNK N   1       1.671  -3.757   0.071  0.00  0.00     0.014 A 
HETATM   26  C   UNK N   1      -0.580  -4.044  -0.626  0.00  0.00     0.014 C 
HETATM   27  C   UNK N   1      -1.878  -3.908  -0.760  0.00  0.00     0.014 C 
HETATM   28  C   UNK N   1      -2.758  -2.827  -0.367  0.00  0.00    -0.009 A 
HETATM   29  C   UNK N   1      -4.115  -3.129  -0.561  0.00  0.00     0.014 A 
HETATM   30  C   UNK N   1      -2.386  -1.545   0.135  0.00  0.00     0.045 A 
HETATM   31  C   UNK N   1      -5.121  -2.216  -0.274  0.00  0.00     0.001 A 
HETATM   32  C   UNK N   1      -4.785  -0.963   0.203  0.00  0.00     0.002 A 
HETATM   33  C   UNK N   1      -3.447  -0.640   0.400  0.00  0.00     0.030 A 
ENDBRANCH  18  19
ENDBRANCH   4  18
BRANCH   2  34
HETATM   34  N   UNK N   1       0.574   5.106   1.561  0.00  0.00    -0.383 N 
HETATM   35  H   UNK N   1       0.612   5.824   2.234  0.00  0.00     0.157 HD
HETATM   36  H   UNK N   1      -0.303   4.659   1.561  0.00  0.00     0.157 HD
ENDBRANCH   2  34
TORSDOF 3
