REMARK  9 active torsions:
REMARK  status: ('A' for Active; 'I' for Inactive)
REMARK    1  A    between atoms: O_4  and  C_30 
REMARK    2  A    between atoms: O_5  and  C_28 
REMARK    3  A    between atoms: O_7  and  C_26 
REMARK       I    between atoms: N_8  and  C_9 
REMARK    4  A    between atoms: N_8  and  C_29 
REMARK    5  A    between atoms: C_9  and  C_10 
REMARK    6  A    between atoms: C_10  and  C_11 
REMARK    7  A    between atoms: C_12  and  C_11 
REMARK    8  A    between atoms: C_17  and  C_18 
REMARK    9  A    between atoms: C_26  and  C_27 
ROOT
HETATM    1  O   UNK N   1       0.495  -4.171   0.476  0.00  0.00    -0.273 OA
HETATM    2  N   UNK N   1      -0.606  -2.999  -1.103  0.00  0.00    -0.323 N 
HETATM    3  C   UNK N   1       0.482  -3.254  -0.327  0.00  0.00     0.222 C 
HETATM    4  H   UNK N   1      -0.459  -2.682  -2.024  0.00  0.00     0.169 HD
ENDROOT
BRANCH   3   5
HETATM    5  C   UNK N   1       1.424  -2.116  -0.124  0.00  0.00     0.104 C 
BRANCH   5   6
HETATM    6  C   UNK N   1       0.463  -1.007   0.317  0.00  0.00     0.027 C 
BRANCH   6   7
HETATM    7  C   UNK N   1       0.851   0.385   0.787  0.00  0.00     0.028 C 
HETATM    8  C   UNK N   1      -0.471   1.147   0.900  0.00  0.00     0.157 C 
HETATM    9  O   UNK N   1      -1.447   0.613   1.410  0.00  0.00    -0.292 OA
HETATM   10  C   UNK N   1      -0.590   2.555   0.460  0.00  0.00     0.048 C 
HETATM   11  C   UNK N   1       0.474   3.258   0.055  0.00  0.00    -0.013 C 
HETATM   12  C   UNK N   1       1.839   2.639  -0.001  0.00  0.00    -0.012 C 
HETATM   13  C   UNK N   1       1.776   1.090  -0.253  0.00  0.00     0.043 C 
HETATM   14  C   UNK N   1       2.693   3.282  -1.074  0.00  0.00     0.021 C 
HETATM   15  C   UNK N   1       2.697   2.960   1.214  0.00  0.00     0.052 C 
HETATM   16  C   UNK N   1       4.063   2.675  -0.774  0.00  0.00     0.023 C 
HETATM   17  C   UNK N   1       4.042   1.290  -1.371  0.00  0.00     0.040 C 
HETATM   18  C   UNK N   1       4.025   2.372   0.744  0.00  0.00     0.062 C 
HETATM   19  C   UNK N   1       3.264   0.566  -0.291  0.00  0.00     0.129 C 
HETATM   20  O   UNK N   1       3.920   0.965   0.888  0.00  0.00    -0.374 OA
HETATM   21  C   UNK N   1       5.220   2.910   1.507  0.00  0.00     0.046 C 
HETATM   22  C   UNK N   1       1.446   0.286   2.186  0.00  0.00     0.024 C 
BRANCH  13  23
ENDBRANCH  13  23
BRANCH  19  23
ENDBRANCH  19  23
ENDBRANCH   6   7
ENDBRANCH   5   6
ENDBRANCH   3   5
BRANCH   2  23
HETATM   23  C   UNK N   1      -1.945  -3.167  -0.653  0.00  0.00     0.102 A 
HETATM   24  C   UNK N   1      -2.774  -2.033  -0.738  0.00  0.00     0.112 A 
HETATM   25  C   UNK N   1      -4.073  -2.053  -0.190  0.00  0.00     0.073 A 
HETATM   26  C   UNK N   1      -4.533  -3.227   0.417  0.00  0.00     0.024 A 
HETATM   27  C   UNK N   1      -3.723  -4.364   0.479  0.00  0.00     0.040 A 
HETATM   28  C   UNK N   1      -2.427  -4.341  -0.043  0.00  0.00     0.095 A 
BRANCH  24  29
HETATM   29  O   UNK N   1      -2.296  -0.913  -1.313  0.00  0.00    -0.357 OA
HETATM   30  H   UNK N   1      -1.455  -0.812  -1.713  0.00  0.00     0.217 HD
ENDBRANCH  24  29
BRANCH  25  31
HETATM   31  C   UNK N   1      -4.944  -0.846  -0.206  0.00  0.00     0.179 C 
HETATM   32  O   UNK N   1      -6.048  -0.885   0.317  0.00  0.00    -0.646 OA
BRANCH  31  33
HETATM   33  O   UNK N   1      -4.527   0.304  -0.769  0.00  0.00    -0.773 OA
HETATM   34  H   UNK N   1      -3.689   0.454  -1.160  0.00  0.00     0.167 HD
ENDBRANCH  31  33
ENDBRANCH  25  31
BRANCH  28  35
HETATM   35  O   UNK N   1      -1.672  -5.448   0.043  0.00  0.00    -0.358 OA
HETATM   36  H   UNK N   1      -2.077  -6.291   0.103  0.00  0.00     0.217 HD
ENDBRANCH  28  35
ENDBRANCH   2  23
TORSDOF 9
