REMARK  10 active torsions:
REMARK  status: ('A' for Active; 'I' for Inactive)
REMARK    1  A    between atoms: C_1  and  C_7 
REMARK    2  A    between atoms: C_4  and  N_15 
REMARK    3  A    between atoms: C_7  and  N_17 
REMARK    4  A    between atoms: C_8  and  C_9 
REMARK    5  A    between atoms: C_8  and  C_14 
REMARK    6  A    between atoms: C_9  and  C_10 
REMARK    7  A    between atoms: C_10  and  C_11 
REMARK       I    between atoms: C_11  and  N_16 
REMARK    8  A    between atoms: C_12  and  C_13 
REMARK    9  A    between atoms: C_12  and  N_16 
REMARK   10  A    between atoms: C_13  and  O_23 
REMARK       I    between atoms: C_14  and  N_17 
ROOT
HETATM    1  C   UNK N   1      -0.380   1.595   0.144  0.00  0.00     0.217 C 
HETATM    2  N   UNK N   1      -1.584   1.000   0.094  0.00  0.00    -0.357 N 
HETATM    3  O   UNK N   1      -0.267   2.806   0.032  0.00  0.00    -0.274 OA
HETATM    4  H   UNK N   1      -1.598   0.018   0.162  0.00  0.00     0.162 HD
ENDROOT
BRANCH   1   5
HETATM    5  C   UNK N   1       0.808   0.744   0.434  0.00  0.00     0.103 C 
BRANCH   5   6
HETATM    6  C   UNK N   1       1.864   0.843  -0.638  0.00  0.00     0.018 C 
BRANCH   6   7
HETATM    7  C   UNK N   1       3.133   0.216  -0.090  0.00  0.00     0.103 C 
BRANCH   7   8
HETATM    8  C   UNK N   1       4.259   1.209   0.024  0.00  0.00     0.218 C 
HETATM    9  N   UNK N   1       5.543   0.788   0.067  0.00  0.00    -0.351 N 
HETATM   10  H   UNK N   1       6.262   1.456   0.134  0.00  0.00     0.163 HD
HETATM   11  O   UNK N   1       4.022   2.407   0.075  0.00  0.00    -0.274 OA
BRANCH   9  12
HETATM   12  C   UNK N   1       5.892  -0.613   0.016  0.00  0.00     0.232 C 
BRANCH  12  13
HETATM   13  C   UNK N   1       7.377  -0.798   0.004  0.00  0.00     0.158 C 
HETATM   14  O   UNK N   1       8.128   0.165   0.005  0.00  0.00    -0.649 OA
BRANCH  13  15
HETATM   15  O   UNK N   1       7.889  -2.042  -0.011  0.00  0.00    -0.775 OA
HETATM   16  H   UNK N   1       7.317  -2.784  -0.021  0.00  0.00     0.167 HD
ENDBRANCH  13  15
ENDBRANCH  12  13
ENDBRANCH   9  12
ENDBRANCH   7   8
ENDBRANCH   6   7
ENDBRANCH   5   6
ENDBRANCH   1   5
BRANCH   2  17
HETATM   17  C   UNK N   1      -2.860   1.664  -0.050  0.00  0.00     0.161 C 
BRANCH  17  18
HETATM   18  C   UNK N   1      -3.928   0.603  -0.034  0.00  0.00    -0.040 A 
HETATM   19  C   UNK N   1      -3.549  -0.748  -0.018  0.00  0.00     0.011 A 
HETATM   20  C   UNK N   1      -4.494  -1.756  -0.006  0.00  0.00     0.037 A 
HETATM   21  C   UNK N   1      -5.851  -1.446  -0.006  0.00  0.00     0.102 A 
HETATM   22  C   UNK N   1      -6.253  -0.094  -0.016  0.00  0.00     0.037 A 
HETATM   23  C   UNK N   1      -5.290   0.931  -0.032  0.00  0.00     0.011 A 
BRANCH  21  24
HETATM   24  N   UNK N   1      -6.801  -2.502   0.002  0.00  0.00    -0.116 N 
HETATM   25  O   UNK N   1      -7.969  -2.269   0.001  0.00  0.00    -0.532 OA
HETATM   26  O   UNK N   1      -6.388  -3.755   0.003  0.00  0.00    -0.532 OA
ENDBRANCH  21  24
ENDBRANCH  17  18
ENDBRANCH   2  17
TORSDOF 10
