REMARK  15 active torsions:
REMARK  status: ('A' for Active; 'I' for Inactive)
REMARK    1  A    between atoms: C_1  and  O_8 
REMARK    2  A    between atoms: C_4  and  N_25 
REMARK    3  A    between atoms: P_7  and  O_8 
REMARK    4  A    between atoms: P_7  and  O_9 
REMARK    5  A    between atoms: P_7  and  C_11 
REMARK    6  A    between atoms: C_11  and  C_12 
REMARK    7  A    between atoms: C_12  and  C_13 
REMARK    8  A    between atoms: C_13  and  C_14 
REMARK       I    between atoms: C_14  and  N_15 
REMARK    9  A    between atoms: N_15  and  C_17 
REMARK   10  A    between atoms: C_17  and  C_18 
REMARK   11  A    between atoms: C_18  and  C_19 
REMARK   12  A    between atoms: C_19  and  C_20 
REMARK   13  A    between atoms: C_20  and  C_21 
REMARK   14  A    between atoms: C_21  and  C_22 
REMARK   15  A    between atoms: C_22  and  O_24 
ROOT
HETATM    1  C   UNK N   1      -1.892   0.622   1.050  0.00  0.00     0.126 C 
ENDROOT
BRANCH   1   2
HETATM    2  P   UNK N   1      -2.408  -0.803  -0.047  0.00  0.00     0.243 P 
HETATM    3  O   UNK N   1      -1.623  -2.110   0.245  0.00  0.00    -0.653 OA
BRANCH   2   4
HETATM    4  O   UNK N   1      -4.063  -1.228   0.153  0.00  0.00    -0.276 OA
BRANCH   4   5
HETATM    5  C   UNK N   1      -5.056  -0.310   0.087  0.00  0.00     0.079 A 
HETATM    6  C   UNK N   1      -6.387  -0.735   0.084  0.00  0.00     0.040 A 
HETATM    7  C   UNK N   1      -7.423   0.205   0.032  0.00  0.00     0.039 A 
HETATM    8  C   UNK N   1      -7.134   1.580  -0.007  0.00  0.00     0.103 A 
HETATM    9  C   UNK N   1      -5.800   2.000   0.000  0.00  0.00     0.039 A 
HETATM   10  C   UNK N   1      -4.773   1.064   0.042  0.00  0.00     0.040 A 
BRANCH   8  11
HETATM   11  N   UNK N   1      -8.177   2.544  -0.052  0.00  0.00    -0.116 N 
HETATM   12  O   UNK N   1      -9.319   2.196  -0.083  0.00  0.00    -0.532 OA
HETATM   13  O   UNK N   1      -7.891   3.829  -0.058  0.00  0.00    -0.532 OA
ENDBRANCH   8  11
ENDBRANCH   4   5
ENDBRANCH   2   4
BRANCH   2  14
HETATM   14  O   UNK N   1      -2.190  -0.514  -1.745  0.00  0.00    -0.329 OA
HETATM   15  H   UNK N   1      -1.989  -0.539  -2.694  0.00  0.00     0.220 HD
ENDBRANCH   2  14
ENDBRANCH   1   2
BRANCH   1  16
HETATM   16  C   UNK N   1      -0.397   0.882   1.051  0.00  0.00     0.021 C 
BRANCH  16  17
HETATM   17  C   UNK N   1       0.230   0.824  -0.330  0.00  0.00     0.103 C 
BRANCH  17  18
HETATM   18  C   UNK N   1       1.587   0.252  -0.148  0.00  0.00     0.217 C 
HETATM   19  N   UNK N   1       2.536   0.984   0.488  0.00  0.00    -0.361 N 
HETATM   20  H   UNK N   1       2.328   1.919   0.713  0.00  0.00     0.162 HD
HETATM   21  O   UNK N   1       1.809  -0.892  -0.513  0.00  0.00    -0.274 OA
BRANCH  19  22
HETATM   22  C   UNK N   1       3.835   0.468   0.855  0.00  0.00     0.122 C 
BRANCH  22  23
HETATM   23  C   UNK N   1       4.618  -0.015  -0.349  0.00  0.00     0.020 C 
BRANCH  23  24
HETATM   24  C   UNK N   1       4.665  -1.531  -0.312  0.00  0.00     0.002 C 
BRANCH  24  25
HETATM   25  C   UNK N   1       5.997  -2.042  -0.823  0.00  0.00     0.010 C 
BRANCH  25  26
HETATM   26  C   UNK N   1       7.043  -1.977   0.278  0.00  0.00     0.110 C 
BRANCH  26  27
HETATM   27  C   UNK N   1       7.959  -0.813   0.080  0.00  0.00     0.139 C 
HETATM   28  O   UNK N   1       9.147  -1.005  -0.112  0.00  0.00    -0.650 OA
BRANCH  27  29
HETATM   29  O   UNK N   1       7.485   0.446   0.132  0.00  0.00    -0.776 OA
HETATM   30  H   UNK N   1       8.079   1.170   0.167  0.00  0.00     0.167 HD
ENDBRANCH  27  29
ENDBRANCH  26  27
ENDBRANCH  25  26
ENDBRANCH  24  25
ENDBRANCH  23  24
ENDBRANCH  22  23
ENDBRANCH  19  22
ENDBRANCH  17  18
ENDBRANCH  16  17
ENDBRANCH   1  16
TORSDOF 15
