REMARK  4 active torsions:
REMARK  status: ('A' for Active; 'I' for Inactive)
REMARK    1  A    between atoms: C_1  and  S_20 
REMARK    2  A    between atoms: C_4  and  N_21 
REMARK    3  A    between atoms: C_13  and  C_19 
REMARK    4  A    between atoms: C_19  and  S_20 
ROOT
HETATM    1  S   UNK N   1       0.264  -0.832   1.092  0.00  0.00    -0.083 SA
ENDROOT
BRANCH   1   2
HETATM    2  C   UNK N   1       1.771  -1.636   0.515  0.00  0.00     0.147 A 
HETATM    3  N   UNK N   1       2.906  -0.909   0.339  0.00  0.00    -0.323 N 
HETATM    4  C   UNK N   1       4.065  -1.501  -0.047  0.00  0.00     0.103 A 
ATOM      5  HN  UNK N   1       2.887   0.098   0.499  1.00  0.00     0.169 HD
HETATM    6  C   UNK N   1       4.107  -2.878  -0.247  0.00  0.00     0.090 A 
HETATM    7  C   UNK N   1       2.941  -3.613  -0.050  0.00  0.00     0.108 A 
HETATM    8  N   UNK N   1       1.794  -2.984   0.327  0.00  0.00    -0.327 N 
HETATM    9 Cl   UNK N   1       2.962  -5.351  -0.264  0.00  0.00    -0.064 Cl
ATOM     10  HN  UNK N   1       0.943  -3.527   0.470  1.00  0.00     0.169 HD
BRANCH   4  11
HETATM   11  N   UNK N   1       5.224  -0.724  -0.233  0.00  0.00    -0.385 N 
HETATM   12  H   UNK N   1       6.100  -1.154  -0.363  0.00  0.00     0.157 HD
HETATM   13  H   UNK N   1       5.158   0.259  -0.233  0.00  0.00     0.157 HD
ENDBRANCH   4  11
ENDBRANCH   1   2
BRANCH   1  14
HETATM   14  C   UNK N   1       0.194   0.507  -0.162  0.00  0.00     0.101 C 
HETATM   15  C   UNK N   1       1.334   1.491   0.076  0.00  0.00     0.028 C 
BRANCH  14  16
HETATM   16  C   UNK N   1      -1.139   1.218  -0.074  0.00  0.00     0.024 A 
HETATM   17  N   UNK N   1      -1.193   2.571   0.181  0.00  0.00    -0.365 N 
HETATM   18  C   UNK N   1      -2.376   3.249   0.268  0.00  0.00     0.126 A 
ATOM     19  HN  UNK N   1      -0.321   3.083   0.310  1.00  0.00     0.165 HD
HETATM   20  C   UNK N   1      -3.549   2.533   0.094  0.00  0.00     0.100 A 
HETATM   21  C   UNK N   1      -3.531   1.201  -0.161  0.00  0.00     0.003 A 
HETATM   22  O   UNK N   1      -4.781   2.966   0.140  0.00  0.00    -0.321 OA
HETATM   23  C   UNK N   1      -2.338   0.493  -0.259  0.00  0.00     0.040 A 
HETATM   24  C   UNK N   1      -4.837   0.787  -0.277  0.00  0.00     0.039 A 
HETATM   25  C   UNK N   1      -5.594   1.946  -0.078  0.00  0.00     0.143 A 
ENDBRANCH  14  16
ENDBRANCH   1  14
TORSDOF 4
