REMARK  7 active torsions:
REMARK  status: ('A' for Active; 'I' for Inactive)
REMARK    1  A    between atoms: C_1  and  O_7 
REMARK    2  A    between atoms: C_2  and  O_12 
REMARK    3  A    between atoms: S_4  and  N_6 
REMARK    4  A    between atoms: S_4  and  O_7 
REMARK    5  A    between atoms: C_23  and  O_26 
REMARK    6  A    between atoms: O_26  and  S_27 
REMARK    7  A    between atoms: S_27  and  N_30 
ROOT
HETATM    1  C   UNK N   1       4.268  -0.442   0.004  0.00  0.00     0.124 A 
HETATM    2  C   UNK N   1       3.764   0.863   0.101  0.00  0.00     0.103 A 
HETATM    3  C   UNK N   1       2.384   1.065   0.284  0.00  0.00     0.047 A 
HETATM    4  C   UNK N   1       1.498  -0.026   0.357  0.00  0.00    -0.044 A 
HETATM    5  C   UNK N   1       2.019  -1.338   0.246  0.00  0.00    -0.049 A 
HETATM    6  C   UNK N   1       3.383  -1.527   0.067  0.00  0.00     0.049 A 
HETATM    7  C   UNK N   1       0.010   0.196   0.576  0.00  0.00     0.024 C 
HETATM    8  C   UNK N   1      -0.774  -1.006  -0.011  0.00  0.00    -0.001 C 
HETATM    9  C   UNK N   1      -0.314  -2.282   0.677  0.00  0.00     0.010 C 
HETATM   10  C   UNK N   1       1.147  -2.567   0.325  0.00  0.00     0.039 C 
HETATM   11  C   UNK N   1      -0.483   1.535  -0.036  0.00  0.00     0.010 C 
HETATM   12  C   UNK N   1      -2.022   1.703   0.012  0.00  0.00     0.013 C 
HETATM   13  C   UNK N   1      -2.686   0.488  -0.646  0.00  0.00    -0.012 C 
HETATM   14  C   UNK N   1      -2.287  -0.764   0.133  0.00  0.00     0.001 C 
HETATM   15  C   UNK N   1      -2.226   0.429  -2.119  0.00  0.00     0.018 C 
HETATM   16  C   UNK N   1      -4.218   0.405  -0.670  0.00  0.00     0.152 C 
HETATM   17  C   UNK N   1      -4.489  -1.103  -0.807  0.00  0.00     0.034 C 
HETATM   18  C   UNK N   1      -3.186  -1.837  -0.454  0.00  0.00     0.008 C 
ENDROOT
BRANCH   1  19
HETATM   19  O   UNK N   1       5.599  -0.647  -0.109  0.00  0.00    -0.214 OA
BRANCH  19  20
HETATM   20  S   UNK N   1       6.325  -2.154   0.224  0.00  0.00     0.360 S 
HETATM   21  O   UNK N   1       6.379  -3.026  -1.039  0.00  0.00    -0.176 OA
HETATM   22  O   UNK N   1       7.785  -1.935   0.642  0.00  0.00    -0.176 OA
BRANCH  20  23
HETATM   23  N   UNK N   1       5.518  -3.050   1.515  0.00  0.00    -0.305 N 
HETATM   24  H   UNK N   1       4.837  -2.906   2.260  0.00  0.00     0.171 HD
HETATM   25  H   UNK N   1       5.833  -4.020   1.515  0.00  0.00     0.171 HD
ENDBRANCH  20  23
ENDBRANCH  19  20
ENDBRANCH   1  19
BRANCH   2  26
HETATM   26  O   UNK N   1       4.630   1.909   0.047  0.00  0.00    -0.353 OA
HETATM   27  C   UNK N   1       4.237   3.221   0.183  0.00  0.00     0.210 C 
ENDBRANCH   2  26
BRANCH  16  28
HETATM   28  O   UNK N   1      -4.832   0.873   0.524  0.00  0.00    -0.254 OA
BRANCH  28  29
HETATM   29  S   UNK N   1      -5.946   2.153   0.107  0.00  0.00     0.355 S 
HETATM   30  O   UNK N   1      -7.077   2.420   1.110  0.00  0.00    -0.176 OA
HETATM   31  O   UNK N   1      -5.198   2.600   1.370  0.00  0.00    -0.176 OA
BRANCH  29  32
HETATM   32  N   UNK N   1      -6.819   0.645   0.409  0.00  0.00    -0.306 N 
HETATM   33  H   UNK N   1      -7.824   0.646   0.583  0.00  0.00     0.171 HD
HETATM   34  H   UNK N   1      -6.311  -0.239   0.409  0.00  0.00     0.171 HD
ENDBRANCH  29  32
ENDBRANCH  28  29
ENDBRANCH  16  28
TORSDOF 7
