REMARK  5 active torsions:
REMARK  status: ('A' for Active; 'I' for Inactive)
REMARK    1  A    between atoms: O_2  and  C_5 
REMARK    2  A    between atoms: O_2  and  S_11 
REMARK    3  A    between atoms: N_7  and  S_11 
REMARK    4  A    between atoms: N_24  and  C_27 
REMARK    5  A    between atoms: C_27  and  C_28 
ROOT
HETATM    1  O   UNK N   1      -4.365   1.242  -0.878  0.00  0.00    -0.273 OA
HETATM    2  C   UNK N   1       5.170   0.464   0.738  0.00  0.00     0.091 A 
HETATM    3  C   UNK N   1       4.264   1.301   0.099  0.00  0.00     0.045 A 
HETATM    4  C   UNK N   1       3.009   0.826  -0.254  0.00  0.00    -0.049 A 
HETATM    5  C   UNK N   1       2.619  -0.490   0.076  0.00  0.00    -0.047 A 
HETATM    6  C   UNK N   1       3.519  -1.322   0.755  0.00  0.00     0.011 A 
HETATM    7  C   UNK N   1       4.797  -0.849   1.074  0.00  0.00     0.039 A 
HETATM    8  C   UNK N   1       2.093   1.706  -1.030  0.00  0.00     0.039 C 
HETATM    9  C   UNK N   1       0.710   1.533  -0.453  0.00  0.00     0.010 C 
HETATM   10  C   UNK N   1       0.207   0.096  -0.692  0.00  0.00    -0.000 C 
HETATM   11  C   UNK N   1       1.293  -1.001  -0.437  0.00  0.00     0.024 C 
HETATM   12  C   UNK N   1      -1.106  -0.108   0.074  0.00  0.00     0.016 C 
HETATM   13  C   UNK N   1      -1.596  -1.555  -0.028  0.00  0.00     0.042 C 
HETATM   14  C   UNK N   1      -0.567  -2.449   0.682  0.00  0.00     0.020 C 
HETATM   15  C   UNK N   1       0.817  -2.402   0.009  0.00  0.00     0.011 C 
HETATM   16  C   UNK N   1      -1.737  -2.009  -1.486  0.00  0.00     0.026 C 
HETATM   17  C   UNK N   1      -2.115   0.828  -0.588  0.00  0.00     0.109 C 
HETATM   18  C   UNK N   1      -3.550   0.460  -0.419  0.00  0.00     0.227 C 
HETATM   19  N   UNK N   1      -3.941  -0.698   0.234  0.00  0.00    -0.283 N 
HETATM   20  C   UNK N   1      -2.992  -1.639   0.568  0.00  0.00     0.235 C 
HETATM   21  O   UNK N   1      -3.299  -2.607   1.255  0.00  0.00    -0.272 OA
ENDROOT
BRANCH  19  22
HETATM   22  C   UNK N   1      -5.345  -0.987   0.570  0.00  0.00     0.174 C 
BRANCH  22  23
HETATM   23  C   UNK N   1      -6.310   0.155   0.427  0.00  0.00    -0.024 A 
HETATM   24  C   UNK N   1      -7.289   0.133  -0.570  0.00  0.00     0.011 A 
HETATM   25  C   UNK N   1      -8.121   1.240  -0.747  0.00  0.00     0.018 A 
HETATM   26  C   UNK N   1      -7.953   2.361   0.071  0.00  0.00     0.087 A 
HETATM   27  N   UNK N   1      -6.999   2.362   1.042  0.00  0.00    -0.375 N 
HETATM   28  C   UNK N   1      -6.185   1.291   1.236  0.00  0.00     0.096 A 
ATOM     29  HN  UNK N   1      -6.893   3.184   1.636  1.00  0.00     0.164 HD
ENDBRANCH  22  23
ENDBRANCH  19  22
BRANCH   2  30
HETATM   30  O   UNK N   1       6.422   0.911   0.938  0.00  0.00    -0.217 OA
BRANCH  30  31
HETATM   31  S   UNK N   1       7.753  -0.032   0.475  0.00  0.00     0.360 S 
HETATM   32  O   UNK N   1       7.596  -0.408  -1.008  0.00  0.00    -0.176 OA
HETATM   33  O   UNK N   1       9.033   0.814   0.533  0.00  0.00    -0.176 OA
BRANCH  31  34
HETATM   34  N   UNK N   1       7.976  -1.507   1.414  0.00  0.00    -0.305 N 
HETATM   35  H   UNK N   1       7.302  -2.045   1.958  0.00  0.00     0.171 HD
HETATM   36  H   UNK N   1       8.926  -1.879   1.414  0.00  0.00     0.171 HD
ENDBRANCH  31  34
ENDBRANCH  30  31
ENDBRANCH   2  30
TORSDOF 5
