REMARK  6 active torsions:
REMARK  status: ('A' for Active; 'I' for Inactive)
REMARK    1  A    between atoms: P_1  and  O_4 
REMARK    2  A    between atoms: C_5  and  O_4 
REMARK    3  A    between atoms: C_5  and  C_6 
REMARK    4  A    between atoms: C_5  and  C_8 
REMARK    5  A    between atoms: C_8  and  O_9 
REMARK    6  A    between atoms: O_9  and  C_14 
ROOT
HETATM    1  C   UNK N   1       1.327  -0.095   0.095  0.00  0.00     0.154 C 
ENDROOT
BRANCH   1   2
HETATM    2  O   UNK N   1       0.200  -0.957   0.097  0.00  0.00    -0.316 OA
BRANCH   2   3
HETATM    3  P   UNK N   1      -1.235  -0.190  -0.562  0.00  0.00     0.284 P 
HETATM    4  C   UNK N   1      -1.654  -0.175   1.250  0.00  0.00     0.135 C 
HETATM    5  O   UNK N   1      -2.325  -1.293  -0.591  0.00  0.00    -0.274 OA
HETATM    6 Cl   UNK N   1      -1.917   1.723   0.037  0.00  0.00    -0.027 Cl
ENDBRANCH   2   3
ENDBRANCH   1   2
BRANCH   1   7
HETATM    7  C   UNK N   1       1.486   0.704  -1.216  0.00  0.00     0.030 C 
HETATM    8  C   UNK N   1       2.471   1.855  -1.074  0.00  0.00     0.007 C 
ENDBRANCH   1   7
BRANCH   1   9
HETATM    9  C   UNK N   1       2.540  -1.009   0.276  0.00  0.00     0.208 C 
BRANCH   9  10
HETATM   10  O   UNK N   1       3.733  -0.319   0.288  0.00  0.00    -0.349 OA
BRANCH  10  11
HETATM   11  C   UNK N   1       4.935  -0.938   0.188  0.00  0.00     0.068 A 
HETATM   12  C   UNK N   1       6.101  -0.164   0.165  0.00  0.00     0.037 A 
HETATM   13  C   UNK N   1       7.353  -0.777   0.050  0.00  0.00     0.003 A 
HETATM   14  C   UNK N   1       7.446  -2.169  -0.042  0.00  0.00     0.000 A 
HETATM   15  C   UNK N   1       6.288  -2.950  -0.020  0.00  0.00     0.003 A 
HETATM   16  C   UNK N   1       5.036  -2.339   0.093  0.00  0.00     0.037 A 
ENDBRANCH  10  11
ENDBRANCH   9  10
ENDBRANCH   1   9
TORSDOF 6
