REMARK  2 active torsions:
REMARK  status: ('A' for Active; 'I' for Inactive)
REMARK    1  A    between atoms: C_2  and  C_7 
REMARK       I    between atoms: C_7  and  N_9 
REMARK    2  A    between atoms: N_9  and  C_10 
ROOT
HETATM    1  C   UNK N   1       0.597   0.207   0.005  0.00  0.00     0.240 C 
HETATM    2  O   UNK N   1       1.418   0.887   0.608  0.00  0.00    -0.271 OA
HETATM    3  N   UNK N   1       0.831  -1.110  -0.255  0.00  0.00    -0.351 N 
HETATM    4  H   UNK N   1       0.118  -1.589  -0.738  0.00  0.00     0.163 HD
ENDROOT
BRANCH   1   5
HETATM    5  C   UNK N   1      -0.723   0.811  -0.394  0.00  0.00     0.169 C 
HETATM    6  N   UNK N   1      -0.818   2.202   0.070  0.00  0.00    -0.409 N 
HETATM    7  C   UNK N   1      -2.058   2.864  -0.373  0.00  0.00     0.114 C 
HETATM    8  H   UNK N   1      -0.104   2.659   0.638  0.00  0.00     0.154 HD
HETATM    9  C   UNK N   1      -3.242   1.908  -0.579  0.00  0.00     0.019 C 
HETATM   10  C   UNK N   1      -3.167   0.730   0.379  0.00  0.00     0.004 C 
HETATM   11  C   UNK N   1      -1.844  -0.024   0.243  0.00  0.00     0.034 C 
ENDBRANCH   1   5
BRANCH   3  12
HETATM   12  C   UNK N   1       2.007  -1.897   0.095  0.00  0.00     0.022 C 
HETATM   13  C   UNK N   1       2.424  -2.713  -1.110  0.00  0.00     0.037 C 
HETATM   14  C   UNK N   1       1.627  -2.853   1.208  0.00  0.00     0.037 C 
HETATM   15  C   UNK N   1       3.210  -1.082   0.547  0.00  0.00     0.037 C 
ENDBRANCH   3  12
TORSDOF 2
