REMARK  9 active torsions:
REMARK  status: ('A' for Active; 'I' for Inactive)
REMARK    1  A    between atoms: C_2  and  N_1 
REMARK    2  A    between atoms: C_2  and  C_3 
REMARK    3  A    between atoms: C_2  and  C_10 
REMARK    4  A    between atoms: C_3  and  C_4 
REMARK       I    between atoms: C_10  and  N_12 
REMARK    5  A    between atoms: C_14  and  C_17 
REMARK       I    between atoms: C_17  and  N_19 
REMARK    6  A    between atoms: N_19  and  C_20 
REMARK    7  A    between atoms: C_20  and  C_21 
REMARK    8  A    between atoms: C_21  and  N_22 
REMARK    9  A    between atoms: N_22  and  C_23 
ROOT
HETATM    1  C   UNK N   1      -1.568   0.317  -0.278  0.00  0.00     0.243 C 
HETATM    2  O   UNK N   1      -0.543   0.664  -0.854  0.00  0.00    -0.271 OA
HETATM    3  N   UNK N   1      -2.545   1.242  -0.007  0.00  0.00    -0.337 N 
HETATM    4  C   UNK N   1      -3.772   0.879   0.650  0.00  0.00     0.127 C 
HETATM    5  C   UNK N   1      -2.505   2.621  -0.449  0.00  0.00     0.179 C 
HETATM    6  C   UNK N   1      -3.772   3.240   0.118  0.00  0.00     0.037 C 
HETATM    7  C   UNK N   1      -4.691   2.069   0.439  0.00  0.00     0.022 C 
ENDROOT
BRANCH   5   8
HETATM    8  C   UNK N   1      -1.290   3.417  -0.017  0.00  0.00     0.240 C 
HETATM    9  O   UNK N   1      -1.177   4.576  -0.391  0.00  0.00    -0.271 OA
HETATM   10  N   UNK N   1      -0.302   2.834   0.706  0.00  0.00    -0.358 N 
HETATM   11  H   UNK N   1      -0.466   1.949   1.105  0.00  0.00     0.162 HD
BRANCH  10  12
HETATM   12  C   UNK N   1       0.978   3.463   0.910  0.00  0.00     0.142 C 
BRANCH  12  13
HETATM   13  C   UNK N   1       1.845   3.134  -0.296  0.00  0.00     0.139 C 
BRANCH  13  14
HETATM   14  N   UNK N   1       3.241   3.100   0.059  0.00  0.00    -0.388 N 
HETATM   15  H   UNK N   1       3.689   3.937   0.319  0.00  0.00     0.159 HD
BRANCH  14  16
HETATM   16  C   UNK N   1       3.985   1.893   0.044  0.00  0.00     0.030 A 
HETATM   17  C   UNK N   1       5.367   1.934   0.244  0.00  0.00     0.046 A 
HETATM   18  C   UNK N   1       6.100   0.745   0.234  0.00  0.00     0.089 A 
HETATM   19  N   UNK N   1       5.471  -0.446   0.038  0.00  0.00    -0.375 N 
HETATM   20  C   UNK N   1       4.126  -0.513  -0.157  0.00  0.00     0.089 A 
ATOM     21  HN  UNK N   1       6.019  -1.306   0.037  1.00  0.00     0.164 HD
HETATM   22  C   UNK N   1       3.359   0.654  -0.160  0.00  0.00     0.046 A 
ENDBRANCH  14  16
ENDBRANCH  13  14
ENDBRANCH  12  13
ENDBRANCH  10  12
ENDBRANCH   5   8
BRANCH   1  23
HETATM   23  C   UNK N   1      -1.753  -1.144   0.085  0.00  0.00     0.171 C 
BRANCH  23  24
HETATM   24  N   UNK N   1      -2.856  -1.663  -0.710  0.00  0.00    -0.418 N 
HETATM   25  H   UNK N   1      -3.558  -1.176  -1.268  0.00  0.00     0.150 HD
HETATM   26  H   UNK N   1      -2.941  -2.680  -0.710  0.00  0.00     0.150 HD
ENDBRANCH  23  24
BRANCH  23  27
HETATM   27  C   UNK N   1      -0.472  -1.955  -0.189  0.00  0.00     0.072 C 
BRANCH  27  28
HETATM   28  C   UNK N   1      -0.548  -3.452  -0.030  0.00  0.00    -0.056 A 
HETATM   29  C   UNK N   1       0.625  -4.198  -0.187  0.00  0.00     0.007 A 
HETATM   30  C   UNK N   1       0.595  -5.593  -0.093  0.00  0.00     0.001 A 
HETATM   31  C   UNK N   1      -0.614  -6.252   0.149  0.00  0.00     0.000 A 
HETATM   32  C   UNK N   1      -1.790  -5.515   0.309  0.00  0.00     0.001 A 
HETATM   33  C   UNK N   1      -1.757  -4.121   0.223  0.00  0.00     0.007 A 
ENDBRANCH  27  28
ENDBRANCH  23  27
ENDBRANCH   1  23
TORSDOF 9
