REMARK  6 active torsions:
REMARK  status: ('A' for Active; 'I' for Inactive)
REMARK    1  A    between atoms: N_1  and  C_2 
REMARK    2  A    between atoms: C_3  and  C_15 
REMARK    3  A    between atoms: N_7  and  C_8 
REMARK    4  A    between atoms: C_15  and  C_17 
REMARK    5  A    between atoms: C_21  and  O_22 
REMARK    6  A    between atoms: O_22  and  C_23 
ROOT
HETATM    1  C   UNK N   1      -2.547  -1.194  -0.575  0.00  0.00     0.137 A 
HETATM    2  C   UNK N   1      -1.467  -1.836  -0.041  0.00  0.00     0.077 A 
HETATM    3  C   UNK N   1      -1.952  -3.022   0.483  0.00  0.00     0.127 A 
HETATM    4  N   UNK N   1      -3.302  -3.012   0.339  0.00  0.00    -0.302 N 
ATOM      5  HN  UNK N   1      -3.941  -3.743   0.650  1.00  0.00     0.186 HD
HETATM    6  N   UNK N   1      -3.647  -1.894  -0.272  0.00  0.00    -0.240 N 
ENDROOT
BRANCH   2   7
HETATM    7  C   UNK N   1      -0.111  -1.296   0.083  0.00  0.00     0.197 C 
HETATM    8  O   UNK N   1       0.826  -2.069   0.235  0.00  0.00    -0.286 OA
BRANCH   7   9
HETATM    9  C   UNK N   1       0.130   0.175   0.163  0.00  0.00     0.018 A 
HETATM   10  C   UNK N   1      -0.863   1.126   0.470  0.00  0.00     0.015 A 
HETATM   11  C   UNK N   1      -0.548   2.490   0.564  0.00  0.00     0.004 A 
HETATM   12  C   UNK N   1       0.777   2.914   0.388  0.00  0.00     0.037 A 
HETATM   13  C   UNK N   1       1.769   1.965   0.117  0.00  0.00     0.070 A 
HETATM   14  C   UNK N   1       1.415   0.617   0.007  0.00  0.00     0.052 A 
BRANCH  13  15
HETATM   15  O   UNK N   1       3.072   2.318  -0.018  0.00  0.00    -0.346 OA
BRANCH  15  16
HETATM   16  C   UNK N   1       4.015   1.330  -0.255  0.00  0.00     0.132 C 
HETATM   17  C   UNK N   1       5.403   1.821  -0.613  0.00  0.00     0.051 C 
HETATM   18  C   UNK N   1       6.367   0.614  -0.679  0.00  0.00     0.116 C 
HETATM   19  N   UNK N   1       5.645  -0.660  -0.828  0.00  0.00    -0.421 N 
HETATM   20  C   UNK N   1       4.832  -0.934   0.368  0.00  0.00     0.116 C 
HETATM   21  H   UNK N   1       5.701  -1.268  -1.646  0.00  0.00     0.153 HD
HETATM   22  C   UNK N   1       4.110   0.314   0.886  0.00  0.00     0.051 C 
ENDBRANCH  15  16
ENDBRANCH  13  15
ENDBRANCH   7   9
ENDBRANCH   2   7
BRANCH   1  23
HETATM   23  N   UNK N   1      -2.535   0.030  -1.275  0.00  0.00    -0.383 N 
HETATM   24  H   UNK N   1      -1.791   0.450  -1.763  0.00  0.00     0.157 HD
HETATM   25  H   UNK N   1      -3.383   0.530  -1.275  0.00  0.00     0.157 HD
ENDBRANCH   1  23
BRANCH   6  26
HETATM   26  C   UNK N   1      -4.985  -1.372  -0.342  0.00  0.00     0.058 A 
HETATM   27  C   UNK N   1      -6.040  -2.088   0.231  0.00  0.00     0.034 A 
HETATM   28  C   UNK N   1      -7.272  -1.459   0.446  0.00  0.00     0.044 A 
HETATM   29  C   UNK N   1      -7.441  -0.110   0.111  0.00  0.00     0.116 A 
HETATM   30  F   UNK N   1      -8.605   0.520   0.384  0.00  0.00    -0.206 F 
HETATM   31  C   UNK N   1      -6.403   0.598  -0.485  0.00  0.00     0.044 A 
HETATM   32  C   UNK N   1      -5.186  -0.030  -0.704  0.00  0.00     0.034 A 
ENDBRANCH   6  26
TORSDOF 6
