REMARK  5 active torsions:
REMARK  status: ('A' for Active; 'I' for Inactive)
REMARK    1  A    between atoms: C_9  and  S_17 
REMARK    2  A    between atoms: N_11  and  C_21 
REMARK    3  A    between atoms: C_13  and  N_16 
REMARK    4  A    between atoms: N_16  and  S_17 
REMARK    5  A    between atoms: C_21  and  C_30 
ROOT
HETATM    1  N   UNK N   1      -0.258   2.710   0.173  0.00  0.00    -0.345 N 
HETATM    2  C   UNK N   1      -0.111   1.816  -0.810  0.00  0.00     0.243 C 
HETATM    3  C   UNK N   1      -0.725   0.504  -0.518  0.00  0.00     0.186 C 
HETATM    4  C   UNK N   1      -1.473   0.800   0.797  0.00  0.00     0.055 C 
HETATM    5  C   UNK N   1      -1.045   2.208   1.258  0.00  0.00     0.129 C 
HETATM    6  O   UNK N   1       0.570   2.036  -1.806  0.00  0.00    -0.271 OA
ENDROOT
BRANCH   3   7
HETATM    7  N   UNK N   1       0.374  -0.421  -0.276  0.00  0.00    -0.301 N 
HETATM    8  H   UNK N   1       1.345  -0.114  -0.222  0.00  0.00     0.173 HD
BRANCH   7   9
HETATM    9  S   UNK N   1      -0.099  -2.119  -0.081  0.00  0.00     0.266 S 
HETATM   10  O   UNK N   1       0.983  -2.732   0.823  0.00  0.00    -0.200 OA
HETATM   11  O   UNK N   1       0.374  -2.698  -1.418  0.00  0.00    -0.200 OA
BRANCH   9  12
HETATM   12  C   UNK N   1      -1.694  -2.892   0.174  0.00  0.00     0.123 A 
HETATM   13  C   UNK N   1      -2.975  -2.313   0.111  0.00  0.00     0.063 A 
HETATM   14  C   UNK N   1      -3.994  -3.313   0.120  0.00  0.00     0.051 A 
HETATM   15  C   UNK N   1      -3.520  -4.618   0.166  0.00  0.00     0.033 A 
HETATM   16  N   UNK N   1      -5.329  -3.073   0.042  0.00  0.00    -0.365 N 
HETATM   17  C   UNK N   1      -4.370  -5.712   0.129  0.00  0.00     0.022 A 
HETATM   18  S   UNK N   1      -1.881  -4.549   0.213  0.00  0.00    -0.074 SA
HETATM   19  C   UNK N   1      -5.745  -5.455   0.047  0.00  0.00     0.018 A 
HETATM   20  C   UNK N   1      -6.208  -4.122   0.007  0.00  0.00     0.088 A 
ATOM     21  HN  UNK N   1      -5.675  -2.114   0.009  1.00  0.00     0.165 HD
ENDBRANCH   9  12
ENDBRANCH   7   9
ENDBRANCH   3   7
BRANCH   1  22
HETATM   22  C   UNK N   1       0.435   3.977   0.243  0.00  0.00     0.182 C 
BRANCH  22  23
HETATM   23  C   UNK N   1       1.913   3.723   0.269  0.00  0.00     0.028 A 
HETATM   24  C   UNK N   1       2.863   4.390  -0.503  0.00  0.00     0.040 A 
HETATM   25  C   UNK N   1       4.044   3.735  -0.226  0.00  0.00    -0.005 A 
HETATM   26  C   UNK N   1       3.771   2.733   0.655  0.00  0.00     0.058 A 
HETATM   27  C   UNK N   1       5.331   3.943  -0.709  0.00  0.00     0.030 A 
HETATM   28  C   UNK N   1       4.766   1.871   1.098  0.00  0.00     0.117 A 
HETATM   29  N   UNK N   1       2.472   2.710   0.975  0.00  0.00    -0.356 N 
HETATM   30  N   UNK N   1       6.035   2.060   0.629  0.00  0.00    -0.373 N 
HETATM   31  C   UNK N   1       6.336   3.068  -0.252  0.00  0.00     0.088 A 
ATOM     32  HN  UNK N   1       6.778   1.435   0.942  1.00  0.00     0.164 HD
HETATM   33  H   UNK N   1       2.019   2.090   1.591  0.00  0.00     0.166 HD
ENDBRANCH  22  23
ENDBRANCH   1  22
TORSDOF 5
