REMARK  5 active torsions:
REMARK  status: ('A' for Active; 'I' for Inactive)
REMARK    1  A    between atoms: C_2  and  N_1 
REMARK    2  A    between atoms: C_2  and  C_3 
REMARK    3  A    between atoms: C_2  and  C_5 
REMARK    4  A    between atoms: C_3  and  O_4 
REMARK    5  A    between atoms: C_5  and  C_6 
ROOT
HETATM    1  C   UNK N   1       0.285   1.151   0.133  0.00  0.00     0.106 C 
ENDROOT
BRANCH   1   2
HETATM    2  N   UNK N   1      -0.745   2.020  -0.417  0.00  0.00    -0.423 N 
HETATM    3  H   UNK N   1      -0.579   2.950  -0.802  0.00  0.00     0.150 HD
HETATM    4  H   UNK N   1      -1.704   1.673  -0.417  0.00  0.00     0.150 HD
ENDBRANCH   1   2
BRANCH   1   5
HETATM    5  C   UNK N   1       1.631   1.890   0.110  0.00  0.00     0.136 C 
HETATM    6  C   UNK N   1       2.720   1.063   0.775  0.00  0.00     0.041 C 
BRANCH   5   7
HETATM    7  O   UNK N   1       2.012   2.183  -1.201  0.00  0.00    -0.394 OA
HETATM    8  H   UNK N   1       2.321   2.056  -2.112  0.00  0.00     0.210 HD
ENDBRANCH   5   7
ENDBRANCH   1   5
BRANCH   1   9
HETATM    9  C   UNK N   1       0.344  -0.144  -0.689  0.00  0.00     0.065 C 
BRANCH   9  10
HETATM   10  C   UNK N   1      -0.779  -1.095  -0.392  0.00  0.00    -0.056 A 
HETATM   11  C   UNK N   1      -0.483  -2.432  -0.106  0.00  0.00     0.007 A 
HETATM   12  C   UNK N   1      -1.516  -3.339   0.161  0.00  0.00     0.001 A 
HETATM   13  C   UNK N   1      -2.844  -2.907   0.152  0.00  0.00     0.000 A 
HETATM   14  C   UNK N   1      -3.144  -1.572  -0.133  0.00  0.00     0.001 A 
HETATM   15  C   UNK N   1      -2.113  -0.669  -0.413  0.00  0.00     0.007 A 
ENDBRANCH   9  10
ENDBRANCH   1   9
TORSDOF 5
