REMARK  9 active torsions:
REMARK  status: ('A' for Active; 'I' for Inactive)
REMARK    1  A    between atoms: C_3  and  C_29 
REMARK    2  A    between atoms: C_6  and  C_7 
REMARK    3  A    between atoms: C_6  and  C_27 
REMARK       I    between atoms: C_7  and  N_25 
REMARK    4  A    between atoms: C_8  and  C_9 
REMARK    5  A    between atoms: C_9  and  N_23 
REMARK    6  A    between atoms: C_14  and  S_20 
REMARK    7  A    between atoms: C_16  and  C_17 
REMARK       I    between atoms: C_16  and  N_23 
REMARK    8  A    between atoms: C_27  and  N_28 
REMARK    9  A    between atoms: C_27  and  C_29 
ROOT
HETATM    1  C   UNK N   1       0.691   1.332  -0.965  0.00  0.00     0.222 C 
HETATM    2  C   UNK N   1      -1.553   1.790  -0.053  0.00  0.00     0.105 C 
HETATM    3  C   UNK N   1      -1.045   3.978   0.864  0.00  0.00     0.022 C 
HETATM    4  C   UNK N   1      -2.194   3.094   0.387  0.00  0.00     0.028 C 
HETATM    5  C   UNK N   1       0.193   3.449   0.161  0.00  0.00     0.126 C 
HETATM    6  N   UNK N   1      -0.193   2.156  -0.337  0.00  0.00    -0.346 N 
HETATM    7  O   UNK N   1       0.316   0.273  -1.457  0.00  0.00    -0.273 OA
ENDROOT
BRANCH   2   8
HETATM    8  C   UNK N   1      -1.615   0.811   1.135  0.00  0.00     0.148 C 
BRANCH   8   9
HETATM    9  N   UNK N   1      -0.751  -0.342   0.979  0.00  0.00    -0.355 N 
HETATM   10  C   UNK N   1      -1.151  -1.612   0.691  0.00  0.00     0.251 C 
HETATM   11  O   UNK N   1      -0.305  -2.492   0.654  0.00  0.00    -0.268 OA
HETATM   12  H   UNK N   1       0.216  -0.193   1.091  0.00  0.00     0.162 HD
BRANCH  10  13
HETATM   13  C   UNK N   1      -2.568  -1.970   0.401  0.00  0.00     0.033 A 
HETATM   14  C   UNK N   1      -3.546  -0.982   0.293  0.00  0.00     0.040 A 
HETATM   15  C   UNK N   1      -4.861  -1.296  -0.014  0.00  0.00     0.059 A 
HETATM   16  C   UNK N   1      -5.229  -2.630  -0.215  0.00  0.00     0.023 A 
HETATM   17  C   UNK N   1      -4.263  -3.638  -0.108  0.00  0.00     0.002 A 
HETATM   18  C   UNK N   1      -2.934  -3.309   0.189  0.00  0.00     0.017 A 
BRANCH  15  19
HETATM   19  S   UNK N   1      -6.030   0.041  -0.207  0.00  0.00     0.171 S 
HETATM   20  C   UNK N   1      -6.923   0.924   1.101  0.00  0.00     0.167 C 
HETATM   21  O   UNK N   1      -7.030  -0.358  -1.301  0.00  0.00    -0.223 OA
HETATM   22  O   UNK N   1      -5.272   1.120  -0.997  0.00  0.00    -0.223 OA
ENDBRANCH  15  19
ENDBRANCH  10  13
ENDBRANCH   8   9
ENDBRANCH   2   8
BRANCH   1  23
HETATM   23  C   UNK N   1       2.145   1.672  -0.969  0.00  0.00     0.127 C 
BRANCH  23  24
HETATM   24  C   UNK N   1       2.956   0.682  -0.122  0.00  0.00     0.087 C 
BRANCH  24  25
HETATM   25  N   UNK N   1       2.154   0.055   0.920  0.00  0.00    -0.425 N 
HETATM   26  H   UNK N   1       1.493   0.322   1.649  0.00  0.00     0.150 HD
HETATM   27  H   UNK N   1       2.296  -0.955   0.920  0.00  0.00     0.150 HD
ENDBRANCH  24  25
BRANCH  24  28
HETATM   28  C   UNK N   1       4.059   1.454   0.586  0.00  0.00     0.063 C 
BRANCH  28  29
HETATM   29  C   UNK N   1       5.425   0.955   0.280  0.00  0.00    -0.055 A 
HETATM   30  C   UNK N   1       5.727  -0.409   0.377  0.00  0.00     0.031 A 
HETATM   31  C   UNK N   1       7.012  -0.861   0.080  0.00  0.00     0.034 A 
HETATM   32  C   UNK N   1       8.005   0.050  -0.293  0.00  0.00     0.024 A 
HETATM   33 Cl   UNK N   1       7.370  -2.572   0.153  0.00  0.00    -0.084 Cl
HETATM   34  C   UNK N   1       7.708   1.415  -0.373  0.00  0.00     0.002 A 
HETATM   35  C   UNK N   1       6.416   1.866  -0.093  0.00  0.00     0.007 A 
ENDBRANCH  28  29
ENDBRANCH  24  28
ENDBRANCH  23  24
ENDBRANCH   1  23
TORSDOF 9
