REMARK  8 active torsions:
REMARK  status: ('A' for Active; 'I' for Inactive)
REMARK    1  A    between atoms: C_3  and  N_7 
REMARK    2  A    between atoms: C_6  and  S_10 
REMARK    3  A    between atoms: C_11  and  S_10 
REMARK    4  A    between atoms: C_12  and  O_17 
REMARK    5  A    between atoms: C_13  and  O_18 
REMARK    6  A    between atoms: C_14  and  O_19 
REMARK    7  A    between atoms: C_15  and  C_16 
REMARK    8  A    between atoms: C_16  and  O_21 
ROOT
HETATM    1  C   UNK N   1      -0.973  -0.990   0.428  0.00  0.00     0.219 C 
HETATM    2  C   UNK N   1      -2.230  -0.125   0.677  0.00  0.00     0.188 C 
HETATM    3  C   UNK N   1      -2.144   1.150  -0.183  0.00  0.00     0.181 C 
HETATM    4  C   UNK N   1      -0.804   1.862   0.065  0.00  0.00     0.180 C 
HETATM    5  C   UNK N   1       0.319   0.845  -0.203  0.00  0.00     0.178 C 
HETATM    6  O   UNK N   1       0.195  -0.234   0.703  0.00  0.00    -0.362 OA
ENDROOT
BRANCH   1   7
HETATM    7  S   UNK N   1      -0.986  -2.456   1.530  0.00  0.00    -0.095 SA
BRANCH   7   8
HETATM    8  C   UNK N   1       0.583  -3.106   0.941  0.00  0.00     0.003 A 
HETATM    9  C   UNK N   1       1.778  -2.434   1.223  0.00  0.00     0.021 A 
HETATM   10  C   UNK N   1       2.989  -2.908   0.718  0.00  0.00     0.037 A 
HETATM   11  C   UNK N   1       3.021  -4.074  -0.059  0.00  0.00     0.102 A 
HETATM   12  C   UNK N   1       1.824  -4.762  -0.315  0.00  0.00     0.037 A 
HETATM   13  C   UNK N   1       0.609  -4.276   0.178  0.00  0.00     0.021 A 
BRANCH  11  14
HETATM   14  N   UNK N   1       4.255  -4.542  -0.588  0.00  0.00    -0.116 N 
HETATM   15  O   UNK N   1       4.292  -5.552  -1.228  0.00  0.00    -0.532 OA
HETATM   16  O   UNK N   1       5.360  -3.854  -0.401  0.00  0.00    -0.532 OA
ENDBRANCH  11  14
ENDBRANCH   7   8
ENDBRANCH   1   7
BRANCH   2  17
HETATM   17  O   UNK N   1      -2.306   0.225   2.030  0.00  0.00    -0.389 OA
HETATM   18  H   UNK N   1      -2.122   0.392   2.967  0.00  0.00     0.210 HD
ENDBRANCH   2  17
BRANCH   3  19
HETATM   19  O   UNK N   1      -3.213   2.004   0.103  0.00  0.00    -0.390 OA
HETATM   20  H   UNK N   1      -3.070   2.942   0.301  0.00  0.00     0.210 HD
ENDBRANCH   3  19
BRANCH   5  21
HETATM   21  C   UNK N   1       1.710   1.455  -0.052  0.00  0.00     0.198 C 
BRANCH  21  22
HETATM   22  O   UNK N   1       1.965   1.808   1.274  0.00  0.00    -0.398 OA
HETATM   23  H   UNK N   1       2.266   1.777   2.196  0.00  0.00     0.209 HD
ENDBRANCH  21  22
ENDBRANCH   5  21
BRANCH   4  24
HETATM   24  O   UNK N   1      -0.683   2.962  -0.789  0.00  0.00    -0.390 OA
HETATM   25  H   UNK N   1       0.021   3.271  -1.381  0.00  0.00     0.210 HD
ENDBRANCH   4  24
TORSDOF 8
