REMARK  7 active torsions:
REMARK  status: ('A' for Active; 'I' for Inactive)
REMARK    1  A    between atoms: P_1  and  O_2 
REMARK    2  A    between atoms: P_1  and  O_3 
REMARK    3  A    between atoms: P_1  and  O_5 
REMARK    4  A    between atoms: O_5  and  C_6 
REMARK    5  A    between atoms: C_7  and  C_6 
REMARK    6  A    between atoms: C_9  and  O_10 
REMARK    7  A    between atoms: C_12  and  N_13 
ROOT
HETATM    1  C   UNK N   1      -0.607   1.409  -0.055  0.00  0.00     0.177 C 
HETATM    2  O   UNK N   1       0.356   0.496   0.425  0.00  0.00    -0.356 OA
HETATM    3  C   UNK N   1      -1.930   0.661  -0.226  0.00  0.00     0.153 C 
HETATM    4  C   UNK N   1      -1.404  -0.699  -0.580  0.00  0.00     0.088 C 
HETATM    5  C   UNK N   1      -0.250  -0.777   0.410  0.00  0.00     0.235 C 
ENDROOT
BRANCH   5   6
HETATM    6  N   UNK N   1       0.695  -1.875   0.112  0.00  0.00    -0.282 N 
HETATM    7  C   UNK N   1       2.048  -1.680  -0.146  0.00  0.00     0.331 A 
HETATM    8  O   UNK N   1       2.528  -0.563  -0.195  0.00  0.00    -0.246 OA
HETATM    9  N   UNK N   1       2.870  -2.762  -0.333  0.00  0.00    -0.275 N 
HETATM   10  C   UNK N   1       2.387  -4.037  -0.270  0.00  0.00     0.256 A 
HETATM   11  H   UNK N   1       3.826  -2.616  -0.517  0.00  0.00     0.173 HD
HETATM   12  O   UNK N   1       3.145  -4.979  -0.426  0.00  0.00    -0.267 OA
HETATM   13  C   UNK N   1       1.031  -4.249  -0.023  0.00  0.00     0.022 A 
HETATM   14  C   UNK N   1       0.457  -5.623   0.057  0.00  0.00     0.056 C 
HETATM   15  C   UNK N   1       0.204  -3.146   0.167  0.00  0.00     0.110 A 
ENDBRANCH   5   6
BRANCH   1  16
HETATM   16  C   UNK N   1      -0.655   2.592   0.915  0.00  0.00     0.213 C 
BRANCH  16  17
HETATM   17  O   UNK N   1      -1.735   3.469   0.716  0.00  0.00    -0.311 OA
BRANCH  17  18
HETATM   18  P   UNK N   1      -1.284   4.601  -0.535  0.00  0.00     0.324 P 
HETATM   19  S   UNK N   1      -0.766   5.585   0.848  0.00  0.00    -0.008 SA
BRANCH  18  20
HETATM   20  O   UNK N   1      -2.168   6.069  -0.807  0.00  0.00    -0.324 OA
HETATM   21  H   UNK N   1      -1.704   6.907  -0.959  0.00  0.00     0.220 HD
ENDBRANCH  18  20
BRANCH  18  22
HETATM   22  O   UNK N   1      -3.004   4.395  -0.410  0.00  0.00    -0.324 OA
HETATM   23  H   UNK N   1      -3.584   5.169  -0.339  0.00  0.00     0.220 HD
ENDBRANCH  18  22
ENDBRANCH  17  18
ENDBRANCH  16  17
ENDBRANCH   1  16
BRANCH   3  24
HETATM   24  O   UNK N   1      -2.630   0.575   0.983  0.00  0.00    -0.393 OA
HETATM   25  H   UNK N   1      -2.924   0.966   1.821  0.00  0.00     0.210 HD
ENDBRANCH   3  24
TORSDOF 7
