REMARK  12 active torsions:
REMARK  status: ('A' for Active; 'I' for Inactive)
REMARK    1  A    between atoms: C_2  and  C_3 
REMARK    2  A    between atoms: C_3  and  C_4 
REMARK    3  A    between atoms: C_4  and  C_5 
REMARK    4  A    between atoms: C_5  and  C_6 
REMARK    5  A    between atoms: C_7  and  C_8 
REMARK    6  A    between atoms: C_14  and  C_15 
REMARK    7  A    between atoms: C_15  and  C_16 
REMARK    8  A    between atoms: C_17  and  C_18 
REMARK    9  A    between atoms: C_18  and  C_19 
REMARK   10  A    between atoms: C_19  and  C_20 
REMARK   11  A    between atoms: C_20  and  C_21 
REMARK   12  A    between atoms: C_21  and  O_23 
ROOT
HETATM    1  C   UNK N   1      -0.769   0.574  -0.313  0.00  0.00     0.011 C 
HETATM    2  C   UNK N   1      -0.664   1.903  -0.138  0.00  0.00    -0.000 A 
HETATM    3  C   UNK N   1      -1.732   2.829   0.190  0.00  0.00     0.178 A 
HETATM    4  O   UNK N   1      -2.910   2.548   0.354  0.00  0.00    -0.288 OA
HETATM    5  C   UNK N   1      -1.179   4.157   0.284  0.00  0.00     0.052 A 
HETATM    6  C   UNK N   1       0.135   4.093   0.036  0.00  0.00    -0.013 A 
HETATM    7  C   UNK N   1       0.622   2.681  -0.256  0.00  0.00     0.049 A 
ENDROOT
BRANCH   7   8
HETATM    8  C   UNK N   1       1.669   2.271   0.780  0.00  0.00     0.040 C 
BRANCH   8   9
HETATM    9  C   UNK N   1       2.087   0.842   0.601  0.00  0.00    -0.030 C 
HETATM   10  C   UNK N   1       3.334   0.470   0.312  0.00  0.00    -0.031 C 
BRANCH  10  11
HETATM   11  C   UNK N   1       4.455   1.437   0.134  0.00  0.00     0.027 C 
BRANCH  11  12
HETATM   12  C   UNK N   1       5.723   0.633  -0.039  0.00  0.00     0.014 C 
BRANCH  12  13
HETATM   13  C   UNK N   1       6.936   1.544  -0.065  0.00  0.00     0.110 C 
BRANCH  13  14
HETATM   14  C   UNK N   1       8.211   0.755  -0.030  0.00  0.00     0.139 C 
HETATM   15  O   UNK N   1       9.279   1.342  -0.063  0.00  0.00    -0.650 OA
BRANCH  14  16
HETATM   16  O   UNK N   1       8.193  -0.592   0.044  0.00  0.00    -0.776 OA
HETATM   17  H   UNK N   1       7.377  -1.048   0.095  0.00  0.00     0.167 HD
ENDBRANCH  14  16
ENDBRANCH  13  14
ENDBRANCH  12  13
ENDBRANCH  11  12
ENDBRANCH  10  11
ENDBRANCH   8   9
ENDBRANCH   7   8
BRANCH   1  18
HETATM   18  C   UNK N   1      -2.045  -0.133  -0.174  0.00  0.00    -0.003 C 
HETATM   19  C   UNK N   1      -2.107  -1.458  -0.228  0.00  0.00    -0.027 C 
BRANCH  19  20
HETATM   20  C   UNK N   1      -3.436  -2.106  -0.065  0.00  0.00     0.027 C 
BRANCH  20  21
HETATM   21  C   UNK N   1      -3.326  -3.613  -0.098  0.00  0.00     0.004 C 
BRANCH  21  22
HETATM   22  C   UNK N   1      -4.726  -4.172   0.042  0.00  0.00    -0.000 C 
BRANCH  22  23
HETATM   23  C   UNK N   1      -4.709  -5.681  -0.041  0.00  0.00    -0.005 C 
HETATM   24  C   UNK N   1      -6.134  -6.191   0.017  0.00  0.00     0.005 C 
ENDBRANCH  22  23
ENDBRANCH  21  22
ENDBRANCH  20  21
ENDBRANCH  19  20
ENDBRANCH   1  18
TORSDOF 12
