REMARK  6 active torsions:
REMARK  status: ('A' for Active; 'I' for Inactive)
REMARK    1  A    between atoms: C_2  and  C_3 
REMARK    2  A    between atoms: C_3  and  C_4 
REMARK    3  A    between atoms: C_4  and  N_5 
REMARK    4  A    between atoms: C_13  and  N_14 
REMARK    5  A    between atoms: C_17  and  C_18 
REMARK    6  A    between atoms: C_18  and  C_19 
ROOT
HETATM    1  N   UNK N   1       1.588   0.080  -0.057  0.00  0.00    -0.320 N 
HETATM    2  C   UNK N   1       2.911   0.294  -0.010  0.00  0.00     0.141 A 
HETATM    3  N   UNK N   1       3.563   1.482   0.006  0.00  0.00    -0.336 N 
ATOM      4  HN  UNK N   1       3.050   2.363  -0.028  1.00  0.00     0.168 HD
HETATM    5  C   UNK N   1       4.931   1.464   0.070  0.00  0.00     0.183 A 
HETATM    6  N   UNK N   1       5.611   0.270   0.118  0.00  0.00    -0.337 N 
ATOM      7  HN  UNK N   1       6.630   0.274   0.167  1.00  0.00     0.168 HD
HETATM    8  C   UNK N   1       3.560  -0.888   0.035  0.00  0.00     0.122 A 
HETATM    9  C   UNK N   1       4.943  -0.921   0.101  0.00  0.00     0.131 A 
HETATM   10  N   UNK N   1       2.674  -1.899   0.019  0.00  0.00    -0.339 N 
ATOM     11  HN  UNK N   1       2.867  -2.900   0.039  1.00  0.00     0.167 HD
HETATM   12  C   UNK N   1       1.462  -1.281  -0.030  0.00  0.00     0.089 A 
ENDROOT
BRANCH  12  13
HETATM   13  C   UNK N   1       0.189  -2.094  -0.002  0.00  0.00     0.115 C 
BRANCH  13  14
HETATM   14  C   UNK N   1      -1.122  -1.406   0.207  0.00  0.00    -0.048 A 
HETATM   15  C   UNK N   1      -2.177  -1.650  -0.694  0.00  0.00     0.047 A 
HETATM   16  C   UNK N   1      -3.414  -1.073  -0.415  0.00  0.00     0.105 A 
HETATM   17  O   UNK N   1      -4.549  -1.176  -1.103  0.00  0.00    -0.323 OA
HETATM   18  C   UNK N   1      -3.618  -0.304   0.661  0.00  0.00     0.105 A 
HETATM   19  C   UNK N   1      -5.535  -0.435  -0.441  0.00  0.00     0.352 A 
HETATM   20  O   UNK N   1      -4.885   0.104   0.674  0.00  0.00    -0.323 OA
HETATM   21  C   UNK N   1      -2.614  -0.036   1.586  0.00  0.00     0.040 A 
HETATM   22  C   UNK N   1      -1.351  -0.616   1.362  0.00  0.00     0.010 A 
ENDBRANCH  13  14
ENDBRANCH  12  13
BRANCH   1  23
HETATM   23  C   UNK N   1       0.556   1.111  -0.093  0.00  0.00     0.132 C 
BRANCH  23  24
HETATM   24  C   UNK N   1       0.738   2.036  -1.288  0.00  0.00     0.020 C 
BRANCH  24  25
HETATM   25  C   UNK N   1      -0.171   3.246  -1.155  0.00  0.00    -0.003 C 
HETATM   26  C   UNK N   1       0.286   4.142  -0.015  0.00  0.00     0.005 C 
ENDBRANCH  24  25
ENDBRANCH  23  24
ENDBRANCH   1  23
BRANCH   9  27
HETATM   27  N   UNK N   1       5.645  -2.142   0.161  0.00  0.00    -0.383 N 
HETATM   28  H   UNK N   1       5.152  -2.993   0.202  0.00  0.00     0.157 HD
HETATM   29  H   UNK N   1       6.629  -2.143   0.161  0.00  0.00     0.157 HD
ENDBRANCH   9  27
TORSDOF 6
