REMARK  25 active torsions:
REMARK  status: ('A' for Active; 'I' for Inactive)
REMARK    1  A    between atoms: C_1  and  C_3 
REMARK    2  A    between atoms: C_1  and  O_25 
REMARK    3  A    between atoms: C_3  and  C_4 
REMARK    4  A    between atoms: C_4  and  C_5 
REMARK    5  A    between atoms: C_5  and  C_6 
REMARK    6  A    between atoms: C_6  and  C_7 
REMARK    7  A    between atoms: C_7  and  C_8 
REMARK    8  A    between atoms: C_8  and  C_9 
REMARK    9  A    between atoms: C_9  and  C_10 
REMARK   10  A    between atoms: C_10  and  C_11 
REMARK   11  A    between atoms: C_11  and  C_12 
REMARK   12  A    between atoms: C_12  and  C_13 
REMARK   13  A    between atoms: C_13  and  C_14 
REMARK   14  A    between atoms: C_14  and  C_28 
REMARK   15  A    between atoms: C_15  and  C_16 
REMARK   16  A    between atoms: C_15  and  O_25 
REMARK   17  A    between atoms: C_16  and  C_17 
REMARK   18  A    between atoms: C_16  and  O_24 
REMARK   19  A    between atoms: C_17  and  C_18 
REMARK   20  A    between atoms: C_17  and  O_23 
REMARK   21  A    between atoms: C_18  and  O_22 
REMARK   22  A    between atoms: C_19  and  C_20 
REMARK   23  A    between atoms: C_19  and  O_21 
REMARK   24  A    between atoms: C_20  and  O_27 
REMARK   25  A    between atoms: C_28  and  C_29 
ROOT
HETATM    1  O   UNK N   1       4.966   0.861   0.430  0.00  0.00    -0.319 OA
ENDROOT
BRANCH   1   2
HETATM    2  C   UNK N   1       3.865   0.840  -0.362  0.00  0.00     0.258 C 
HETATM    3  O   UNK N   1       3.436   1.890  -0.811  0.00  0.00    -0.265 OA
BRANCH   2   4
HETATM    4  C   UNK N   1       3.189  -0.444  -0.749  0.00  0.00     0.111 C 
BRANCH   4   5
HETATM    5  C   UNK N   1       2.611  -1.150   0.462  0.00  0.00     0.010 C 
BRANCH   5   6
HETATM    6  C   UNK N   1       1.836  -2.373   0.012  0.00  0.00     0.000 C 
BRANCH   6   7
HETATM    7  C   UNK N   1       0.371  -2.234   0.397  0.00  0.00     0.000 C 
BRANCH   7   8
HETATM    8  C   UNK N   1      -0.414  -1.449  -0.650  0.00  0.00     0.000 C 
BRANCH   8   9
HETATM    9  C   UNK N   1      -0.098   0.042  -0.607  0.00  0.00     0.000 C 
BRANCH   9  10
HETATM   10  C   UNK N   1      -0.746   0.706   0.599  0.00  0.00     0.000 C 
BRANCH  10  11
HETATM   11  C   UNK N   1      -1.986   1.493   0.199  0.00  0.00     0.000 C 
BRANCH  11  12
HETATM   12  C   UNK N   1      -3.078   0.549  -0.262  0.00  0.00     0.000 C 
BRANCH  12  13
HETATM   13  C   UNK N   1      -4.440   1.162  -0.032  0.00  0.00     0.000 C 
BRANCH  13  14
HETATM   14  C   UNK N   1      -5.471   0.078  -0.251  0.00  0.00     0.000 C 
BRANCH  14  15
HETATM   15  C   UNK N   1      -6.857   0.580   0.087  0.00  0.00     0.000 C 
BRANCH  15  16
HETATM   16  C   UNK N   1      -7.828  -0.570  -0.074  0.00  0.00    -0.000 C 
BRANCH  16  17
HETATM   17  C   UNK N   1      -9.242  -0.093   0.166  0.00  0.00    -0.005 C 
HETATM   18  C   UNK N   1     -10.194  -1.257  -0.010  0.00  0.00     0.005 C 
ENDBRANCH  16  17
ENDBRANCH  15  16
ENDBRANCH  14  15
ENDBRANCH  13  14
ENDBRANCH  12  13
ENDBRANCH  11  12
ENDBRANCH  10  11
ENDBRANCH   9  10
ENDBRANCH   8   9
ENDBRANCH   7   8
ENDBRANCH   6   7
ENDBRANCH   5   6
ENDBRANCH   4   5
ENDBRANCH   2   4
ENDBRANCH   1   2
BRANCH   1  19
HETATM   19  C   UNK N   1       5.427  -0.240   1.117  0.00  0.00     0.213 C 
BRANCH  19  20
HETATM   20  C   UNK N   1       6.632  -0.899   0.444  0.00  0.00     0.177 C 
BRANCH  20  21
HETATM   21  C   UNK N   1       7.817   0.077   0.278  0.00  0.00     0.208 C 
BRANCH  21  22
HETATM   22  C   UNK N   1       9.079  -0.598  -0.242  0.00  0.00     0.114 C 
HETATM   23  C   UNK N   1      10.272   0.040  -0.381  0.00  0.00     0.172 C 
BRANCH  23  24
HETATM   24  C   UNK N   1      10.518   1.475  -0.045  0.00  0.00     0.203 C 
HETATM   25  O   UNK N   1      11.638   1.936  -0.209  0.00  0.00    -0.644 OA
BRANCH  24  26
HETATM   26  O   UNK N   1       9.554   2.276   0.441  0.00  0.00    -0.771 OA
HETATM   27  H   UNK N   1       9.702   3.137   0.780  0.00  0.00     0.167 HD
ENDBRANCH  24  26
ENDBRANCH  23  24
BRANCH  23  28
HETATM   28  O   UNK N   1      11.319  -0.672  -0.846  0.00  0.00    -0.353 OA
HETATM   29  H   UNK N   1      11.254  -1.549  -1.169  0.00  0.00     0.218 HD
ENDBRANCH  23  28
BRANCH  22  30
HETATM   30  O   UNK N   1       9.021  -1.906  -0.579  0.00  0.00    -0.359 OA
HETATM   31  H   UNK N   1       8.216  -2.325  -0.812  0.00  0.00     0.217 HD
ENDBRANCH  22  30
ENDBRANCH  21  22
BRANCH  21  32
HETATM   32  O   UNK N   1       7.448   1.095  -0.607  0.00  0.00    -0.386 OA
HETATM   33  H   UNK N   1       7.931   1.669  -1.222  0.00  0.00     0.210 HD
ENDBRANCH  21  32
ENDBRANCH  20  21
BRANCH  20  34
HETATM   34  O   UNK N   1       7.011  -1.973   1.253  0.00  0.00    -0.390 OA
HETATM   35  H   UNK N   1       6.498  -2.574   1.814  0.00  0.00     0.210 HD
ENDBRANCH  20  34
ENDBRANCH  19  20
ENDBRANCH   1  19
TORSDOF 25
