REMARK  1 active torsions:
REMARK  status: ('A' for Active; 'I' for Inactive)
REMARK       I    between atoms: C_2  and  N_4 
REMARK    1  A    between atoms: N_4  and  C_5 
ROOT
HETATM    1  C   UNK N   1       0.502   0.830  -0.000  0.00  0.00     0.048 A 
HETATM    2  C   UNK N   1       1.235  -0.375  -0.000  0.00  0.00     0.020 A 
HETATM    3  C   UNK N   1       2.635  -0.369  -0.000  0.00  0.00     0.017 A 
HETATM    4  C   UNK N   1       3.338  -1.573   0.000  0.00  0.00     0.018 A 
HETATM    5  C   UNK N   1       2.636  -2.779   0.000  0.00  0.00     0.088 A 
HETATM    6  N   UNK N   1       1.275  -2.781   0.000  0.00  0.00    -0.363 N 
ATOM      7  HN  UNK N   1       0.778  -3.672   0.000  1.00  0.00     0.165 HD
HETATM    8  C   UNK N   1       0.558  -1.622  -0.000  0.00  0.00     0.072 A 
HETATM    9  C   UNK N   1      -0.847  -1.651   0.000  0.00  0.00     0.070 A 
HETATM   10  N   UNK N   1      -1.523  -2.835   0.000  0.00  0.00    -0.363 N 
ATOM     11  HN  UNK N   1      -0.998  -3.709   0.000  1.00  0.00     0.165 HD
HETATM   12  C   UNK N   1      -2.885  -2.876   0.000  0.00  0.00     0.088 A 
HETATM   13  C   UNK N   1      -3.627  -1.691   0.000  0.00  0.00     0.018 A 
HETATM   14  C   UNK N   1      -2.961  -0.467  -0.000  0.00  0.00     0.015 A 
HETATM   15  C   UNK N   1      -1.569  -0.441  -0.000  0.00  0.00    -0.005 A 
HETATM   16  C   UNK N   1      -0.898   0.775  -0.000  0.00  0.00     0.044 A 
ENDROOT
BRANCH   1  17
HETATM   17  N   UNK N   1       1.188   2.084  -0.000  0.00  0.00    -0.327 N 
HETATM   18  C   UNK N   1       0.598   3.311  -0.000  0.00  0.00     0.218 C 
HETATM   19  C   UNK N   1       1.449   4.531   0.000  0.00  0.00     0.117 C 
HETATM   20  O   UNK N   1      -0.618   3.435   0.000  0.00  0.00    -0.274 OA
HETATM   21  H   UNK N   1       2.172   2.058  -0.000  0.00  0.00     0.169 HD
ENDBRANCH   1  17
TORSDOF 1
