REMARK  4 active torsions:
REMARK  status: ('A' for Active; 'I' for Inactive)
REMARK       I    between atoms: C_5  and  N_1 
REMARK    1  A    between atoms: O_21  and  C_2 
REMARK    2  A    between atoms: O_22  and  C_4 
REMARK    3  A    between atoms: C_15  and  C_5 
REMARK    4  A    between atoms: C_6  and  C_16 
ROOT
HETATM    1  N   UNK N   1      -0.364  -0.764  -0.027  0.00  0.00    -0.339 N 
HETATM    2  C   UNK N   1       0.963  -0.420  -0.220  0.00  0.00     0.257 C 
HETATM    3  C   UNK N   1      -1.396   0.111   0.542  0.00  0.00     0.121 C 
HETATM    4  C   UNK N   1      -2.281  -2.115   0.276  0.00  0.00     0.022 C 
HETATM    5  C   UNK N   1      -2.685  -0.653   0.286  0.00  0.00     0.032 C 
HETATM    6  C   UNK N   1      -0.832  -2.119  -0.176  0.00  0.00     0.127 C 
HETATM    7  O   UNK N   1       1.284   0.749  -0.216  0.00  0.00    -0.267 OA
ENDROOT
BRANCH   3   8
HETATM    8  C   UNK N   1      -1.417   1.625   0.243  0.00  0.00    -0.029 A 
HETATM    9  C   UNK N   1      -0.384   2.407   0.795  0.00  0.00     0.010 A 
HETATM   10  C   UNK N   1      -0.338   3.789   0.636  0.00  0.00     0.001 A 
HETATM   11  C   UNK N   1      -1.352   4.438  -0.056  0.00  0.00     0.001 A 
HETATM   12  C   UNK N   1      -2.414   3.704  -0.580  0.00  0.00     0.007 A 
HETATM   13  C   UNK N   1      -2.468   2.311  -0.439  0.00  0.00    -0.054 A 
HETATM   14  C   UNK N   1      -3.659   1.626  -1.013  0.00  0.00     0.049 C 
ENDBRANCH   3   8
BRANCH   2  15
HETATM   15  C   UNK N   1       2.079  -1.438  -0.349  0.00  0.00     0.065 A 
HETATM   16  C   UNK N   1       3.429  -1.013  -0.500  0.00  0.00     0.084 A 
HETATM   17  C   UNK N   1       4.470  -1.945  -0.457  0.00  0.00     0.074 A 
HETATM   18  C   UNK N   1       4.201  -3.297  -0.266  0.00  0.00     0.068 A 
HETATM   19  C   UNK N   1       2.885  -3.734  -0.146  0.00  0.00     0.037 A 
HETATM   20  C   UNK N   1       1.838  -2.811  -0.182  0.00  0.00     0.022 A 
BRANCH  16  21
HETATM   21  O   UNK N   1       3.742   0.286  -0.651  0.00  0.00    -0.360 OA
HETATM   22  H   UNK N   1       4.635   0.550  -0.757  0.00  0.00     0.217 HD
ENDBRANCH  16  21
BRANCH  18  23
HETATM   23  O   UNK N   1       5.212  -4.177  -0.186  0.00  0.00    -0.361 OA
HETATM   24  H   UNK N   1       5.033  -5.095  -0.129  0.00  0.00     0.217 HD
ENDBRANCH  18  23
ENDBRANCH   2  15
TORSDOF 4
