REMARK  4 active torsions:
REMARK  status: ('A' for Active; 'I' for Inactive)
REMARK       I    between atoms: C_12  and  N_1 
REMARK    1  A    between atoms: C_2  and  O_16 
REMARK    2  A    between atoms: C_9  and  C_12 
REMARK    3  A    between atoms: O_14  and  C_10 
REMARK    4  A    between atoms: O_15  and  C_11 
ROOT
HETATM    1  C   UNK N   1      -0.062   2.194  -0.000  0.00  0.00     0.086 A 
HETATM    2  C   UNK N   1      -2.575   0.993  -0.000  0.00  0.00     0.074 A 
HETATM    3  C   UNK N   1      -1.226   2.967  -0.000  0.00  0.00     0.074 A 
HETATM    4  C   UNK N   1      -0.122   0.758   0.000  0.00  0.00     0.099 A 
HETATM    5  C   UNK N   1      -2.474   2.370  -0.000  0.00  0.00     0.071 A 
HETATM    6  C   UNK N   1      -1.442   0.181   0.000  0.00  0.00     0.086 A 
ENDROOT
BRANCH   4   7
HETATM    7  C   UNK N   1       1.220  -0.016   0.000  0.00  0.00     0.267 C 
HETATM    8  N   UNK N   1       1.379  -1.399   0.000  0.00  0.00    -0.299 N 
HETATM    9  C   UNK N   1       2.591  -1.998   0.000  0.00  0.00     0.099 A 
HETATM   10  C   UNK N   1       0.462  -2.376  -0.000  0.00  0.00     0.099 A 
HETATM   11  C   UNK N   1       2.433  -3.369   0.000  0.00  0.00     0.019 A 
HETATM   12  C   UNK N   1       1.076  -3.609  -0.000  0.00  0.00     0.019 A 
HETATM   13  O   UNK N   1       2.244   0.653   0.000  0.00  0.00    -0.267 OA
ENDBRANCH   4   7
BRANCH   1  14
HETATM   14  O   UNK N   1       1.111   2.853  -0.000  0.00  0.00    -0.359 OA
HETATM   15  H   UNK N   1       1.916   2.374   0.000  0.00  0.00     0.217 HD
ENDBRANCH   1  14
BRANCH   6  16
HETATM   16  O   UNK N   1      -1.675  -1.130   0.000  0.00  0.00    -0.359 OA
HETATM   17  H   UNK N   1      -2.556  -1.449   0.000  0.00  0.00     0.217 HD
ENDBRANCH   6  16
BRANCH   5  18
HETATM   18  O   UNK N   1      -3.586   3.122  -0.000  0.00  0.00    -0.361 OA
HETATM   19  H   UNK N   1      -3.519   4.056  -0.000  0.00  0.00     0.217 HD
ENDBRANCH   5  18
TORSDOF 4
