REMARK  4 active torsions:
REMARK  status: ('A' for Active; 'I' for Inactive)
REMARK    1  A    between atoms: C_9  and  C_30 
REMARK    2  A    between atoms: C_13  and  O_28 
REMARK    3  A    between atoms: C_16  and  C_30 
REMARK    4  A    between atoms: C_23  and  O_28 
ROOT
HETATM    1  C   UNK N   1      -3.373  -1.813  -0.248  0.00  0.00    -0.058 A 
HETATM    2  C   UNK N   1      -4.755  -1.722  -0.092  0.00  0.00     0.029 A 
HETATM    3  C   UNK N   1      -5.361  -0.453  -0.074  0.00  0.00     0.047 A 
HETATM    4  C   UNK N   1      -4.609   0.709  -0.227  0.00  0.00     0.059 A 
HETATM    5  C   UNK N   1      -3.242   0.645  -0.390  0.00  0.00     0.078 A 
HETATM    6  C   UNK N   1      -2.636  -0.644  -0.379  0.00  0.00     0.044 A 
HETATM    7  C   UNK N   1      -2.681  -3.135  -0.290  0.00  0.00     0.048 C 
HETATM    8  C   UNK N   1      -6.762  -0.297   0.110  0.00  0.00     0.099 C 
HETATM    9  N   UNK N   1      -7.892  -0.109   0.255  0.00  0.00    -0.191 NA
ENDROOT
BRANCH   5  10
HETATM   10  O   UNK N   1      -2.530   1.825  -0.516  0.00  0.00    -0.309 OA
BRANCH  10  11
HETATM   11  C   UNK N   1      -1.174   1.862  -0.525  0.00  0.00     0.093 C 
HETATM   12  C   UNK N   1      -0.431   2.961  -0.035  0.00  0.00     0.045 C 
HETATM   13  C   UNK N   1       0.933   2.753   0.300  0.00  0.00     0.029 C 
HETATM   14 Br   UNK N   1      -1.261   4.656   0.287  0.00  0.00    -0.048 Br
HETATM   15  C   UNK N   1       1.515   1.489   0.041  0.00  0.00    -0.051 C 
HETATM   16  C   UNK N   1       0.800   0.564  -0.679  0.00  0.00     0.010 C 
HETATM   17  C   UNK N   1      -0.497   0.740  -0.943  0.00  0.00     0.039 C 
BRANCH  15  18
HETATM   18  C   UNK N   1       2.799   1.008   0.659  0.00  0.00     0.098 C 
BRANCH  18  19
HETATM   19  C   UNK N   1       3.027  -0.494   0.431  0.00  0.00     0.044 A 
HETATM   20  C   UNK N   1       4.224  -1.081   0.191  0.00  0.00     0.036 A 
HETATM   21  C   UNK N   1       5.508  -0.588   0.145  0.00  0.00     0.036 A 
HETATM   22  C   UNK N   1       3.957  -2.393  -0.010  0.00  0.00     0.147 A 
HETATM   23  C   UNK N   1       6.520  -1.526  -0.103  0.00  0.00     0.108 A 
HETATM   24  N   UNK N   1       6.203  -2.851  -0.299  0.00  0.00    -0.310 N 
HETATM   25  N   UNK N   1       4.936  -3.287  -0.261  0.00  0.00    -0.284 N 
ATOM     26  HN  UNK N   1       6.953  -3.519  -0.478  1.00  0.00     0.186 HD
ATOM     27  HN  UNK N   1       4.717  -4.271  -0.417  1.00  0.00     0.188 HD
HETATM   28  N   UNK N   1       2.644  -2.632   0.101  0.00  0.00    -0.283 N 
HETATM   29  N   UNK N   1       2.066  -1.469   0.387  0.00  0.00    -0.302 N 
HETATM   30  H   UNK N   1       2.194  -3.501  -0.007  0.00  0.00     0.188 HD
ATOM     31  HN  UNK N   1       1.069  -1.326   0.548  1.00  0.00     0.186 HD
ENDBRANCH  18  19
ENDBRANCH  15  18
ENDBRANCH  10  11
ENDBRANCH   5  10
TORSDOF 4
