REMARK  5 active torsions:
REMARK  status: ('A' for Active; 'I' for Inactive)
REMARK    1  A    between atoms: C_3  and  O_31 
REMARK    2  A    between atoms: C_5  and  C_6 
REMARK    3  A    between atoms: C_18  and  N_19 
REMARK    4  A    between atoms: N_20  and  C_22 
REMARK    5  A    between atoms: C_26  and  C_29 
ROOT
HETATM    1  C   UNK N   1      -0.928   2.655   0.166  0.00  0.00     0.063 C 
HETATM    2  C   UNK N   1      -1.773   0.530  -0.461  0.00  0.00     0.149 C 
HETATM    3  C   UNK N   1      -2.261   1.911  -0.063  0.00  0.00     0.102 C 
HETATM    4  N   UNK N   1      -0.409   0.759  -0.901  0.00  0.00    -0.364 N 
HETATM    5  C   UNK N   1      -0.073   2.130  -0.963  0.00  0.00     0.136 C 
ENDROOT
BRANCH   4   6
HETATM    6  C   UNK N   1       0.588  -0.191  -0.593  0.00  0.00     0.106 A 
HETATM    7  C   UNK N   1       0.197  -1.410  -0.135  0.00  0.00     0.078 A 
HETATM    8  C   UNK N   1       1.116  -2.389   0.134  0.00  0.00     0.048 A 
HETATM    9  N   UNK N   1       2.444  -2.133  -0.057  0.00  0.00    -0.351 N 
HETATM   10  C   UNK N   1       2.846  -0.890  -0.458  0.00  0.00     0.182 A 
ATOM     11  HN  UNK N   1       3.134  -2.868   0.101  1.00  0.00     0.166 HD
HETATM   12  N   UNK N   1       1.922   0.076  -0.740  0.00  0.00    -0.339 N 
ATOM     13  HN  UNK N   1       2.226   0.996  -1.061  1.00  0.00     0.168 HD
BRANCH   8  14
HETATM   14  C   UNK N   1       0.561  -3.721   0.373  0.00  0.00     0.006 A 
HETATM   15  C   UNK N   1      -0.813  -3.827   0.650  0.00  0.00     0.019 A 
HETATM   16  C   UNK N   1      -1.455  -5.045   0.578  0.00  0.00     0.057 A 
HETATM   17  C   UNK N   1      -0.729  -6.163   0.195  0.00  0.00     0.141 A 
HETATM   18  N   UNK N   1       0.621  -6.066  -0.019  0.00  0.00    -0.346 N 
HETATM   19  C   UNK N   1       1.277  -4.875   0.068  0.00  0.00     0.103 A 
ATOM     20  HN  UNK N   1       1.149  -6.908  -0.249  1.00  0.00     0.167 HD
BRANCH  17  21
HETATM   21  O   UNK N   1      -1.387  -7.321  -0.004  0.00  0.00    -0.341 OA
HETATM   22  C   UNK N   1      -0.793  -8.409  -0.593  0.00  0.00     0.211 C 
ENDBRANCH  17  21
ENDBRANCH   8  14
ENDBRANCH   4   6
BRANCH   3  23
HETATM   23  N   UNK N   1      -2.994   2.449  -1.200  0.00  0.00    -0.424 N 
HETATM   24  H   UNK N   1      -2.924   3.082  -1.997  0.00  0.00     0.150 HD
HETATM   25  H   UNK N   1      -3.928   2.038  -1.200  0.00  0.00     0.150 HD
ENDBRANCH   3  23
BRANCH   1  26
HETATM   26  C   UNK N   1      -0.825   4.147   0.239  0.00  0.00    -0.009 A 
HETATM   27  C   UNK N   1      -1.922   5.032   0.259  0.00  0.00     0.126 A 
HETATM   28  C   UNK N   1      -1.693   6.412   0.277  0.00  0.00     0.088 A 
HETATM   29  F   UNK N   1      -3.201   4.586   0.275  0.00  0.00    -0.205 F 
HETATM   30  C   UNK N   1      -0.386   6.913   0.279  0.00  0.00     0.157 A 
HETATM   31  F   UNK N   1      -0.174   8.249   0.275  0.00  0.00    -0.203 F 
HETATM   32  C   UNK N   1       0.698   6.037   0.286  0.00  0.00     0.155 A 
HETATM   33  C   UNK N   1       0.476   4.671   0.273  0.00  0.00     0.056 A 
HETATM   34  F   UNK N   1       1.969   6.505   0.291  0.00  0.00    -0.203 F 
ENDBRANCH   1  26
TORSDOF 5
