REMARK  4 active torsions:
REMARK  status: ('A' for Active; 'I' for Inactive)
REMARK       I    between atoms: C_7  and  N_8 
REMARK    1  A    between atoms: C_11  and  N_12 
REMARK    2  A    between atoms: C_16  and  C_17 
REMARK    3  A    between atoms: C_17  and  N_18 
REMARK    4  A    between atoms: C_32  and  O_33 
ROOT
HETATM    1  C   UNK N   1      -0.206   3.087  -0.415  0.00  0.00     0.116 A 
HETATM    2  N   UNK N   1       0.722   4.033  -0.088  0.00  0.00    -0.348 N 
ATOM      3  HN  UNK N   1       0.435   5.006   0.012  1.00  0.00     0.167 HD
HETATM    4  C   UNK N   1       2.024   3.693   0.105  0.00  0.00     0.151 A 
HETATM    5  N   UNK N   1       2.963   4.645   0.356  0.00  0.00    -0.174 N 
ATOM      6  HN  UNK N   1       2.684   5.624   0.422  1.00  0.00     0.186 HD
HETATM    7  C   UNK N   1       4.271   4.302   0.520  0.00  0.00     0.679 A 
HETATM    8  N   UNK N   1       5.238   5.303   0.738  0.00  0.00    -0.234 N 
HETATM    9  N   UNK N   1       4.652   2.997   0.455  0.00  0.00    -0.175 N 
ATOM     10  HN  UNK N   1       5.633   2.753   0.593  1.00  0.00     0.186 HD
HETATM   11  C   UNK N   1       3.746   2.014   0.211  0.00  0.00     0.145 A 
HETATM   12  C   UNK N   1       2.405   2.349   0.014  0.00  0.00     0.122 A 
HETATM   13  N   UNK N   1       1.477   1.411  -0.304  0.00  0.00    -0.351 N 
ATOM     14  HN  UNK N   1       1.760   0.434  -0.376  1.00  0.00     0.166 HD
HETATM   15  C   UNK N   1       0.177   1.743  -0.529  0.00  0.00     0.043 A 
HETATM   16  H   UNK N   1       6.182   5.068   0.891  0.00  0.00     0.174 HD
HETATM   17  H   UNK N   1       4.967   6.250   0.738  0.00  0.00     0.174 HD
ENDROOT
BRANCH  15  18
HETATM   18  C   UNK N   1      -0.774   0.750  -1.166  0.00  0.00     0.182 C 
BRANCH  18  19
HETATM   19  N   UNK N   1      -1.038  -0.520  -0.472  0.00  0.00    -0.362 N 
HETATM   20  C   UNK N   1       0.119  -1.388  -0.160  0.00  0.00     0.140 C 
HETATM   21  C   UNK N   1       1.258  -1.168  -1.157  0.00  0.00    -0.001 C 
HETATM   22  C   UNK N   1       0.001  -2.909  -0.033  0.00  0.00    -0.035 C 
HETATM   23  C   UNK N   1       2.401  -1.860  -1.013  0.00  0.00    -0.025 C 
HETATM   24  C   UNK N   1       2.475  -2.888   0.085  0.00  0.00     0.054 C 
HETATM   25  C   UNK N   1       1.150  -3.608   0.105  0.00  0.00    -0.014 C 
HETATM   26  C   UNK N   1      -1.194  -3.719  -0.126  0.00  0.00     0.010 C 
HETATM   27  C   UNK N   1      -2.451  -3.342  -0.078  0.00  0.00     0.014 C 
HETATM   28  C   UNK N   1      -3.048  -2.024   0.069  0.00  0.00    -0.007 A 
HETATM   29  C   UNK N   1      -4.425  -2.087   0.323  0.00  0.00     0.050 A 
HETATM   30  C   UNK N   1      -2.421  -0.749  -0.102  0.00  0.00     0.042 A 
HETATM   31  C   UNK N   1      -5.205  -0.946   0.430  0.00  0.00     0.066 A 
HETATM   32  C   UNK N   1      -4.620   0.299   0.275  0.00  0.00     0.039 A 
HETATM   33  C   UNK N   1      -3.256   0.392   0.004  0.00  0.00     0.033 A 
BRANCH  31  34
HETATM   34  O   UNK N   1      -6.523  -1.052   0.668  0.00  0.00    -0.361 OA
HETATM   35  H   UNK N   1      -7.046  -0.293   0.834  0.00  0.00     0.217 HD
ENDBRANCH  31  34
ENDBRANCH  18  19
ENDBRANCH  15  18
BRANCH  11  36
HETATM   36  N   UNK N   1       4.172   0.672   0.136  0.00  0.00    -0.383 N 
HETATM   37  H   UNK N   1       3.509  -0.054   0.083  0.00  0.00     0.157 HD
HETATM   38  H   UNK N   1       5.133   0.460   0.136  0.00  0.00     0.157 HD
ENDBRANCH  11  36
TORSDOF 4
