REMARK  6 active torsions:
REMARK  status: ('A' for Active; 'I' for Inactive)
REMARK    1  A    between atoms: C_3  and  O_4 
REMARK    2  A    between atoms: O_4  and  C_5 
REMARK    3  A    between atoms: C_16  and  O_18 
REMARK    4  A    between atoms: O_18  and  C_19 
REMARK    5  A    between atoms: C_19  and  C_20 
REMARK    6  A    between atoms: C_27  and  N_28 
ROOT
HETATM    1  C   UNK N   1      -3.105  -2.695  -0.098  0.00  0.00     0.079 A 
HETATM    2  C   UNK N   1      -2.402  -3.836  -0.298  0.00  0.00     0.060 A 
HETATM    3  C   UNK N   1      -2.962  -5.074  -0.277  0.00  0.00     0.049 A 
HETATM    4  C   UNK N   1      -2.034  -6.164  -0.248  0.00  0.00     0.099 C 
HETATM    5  N   UNK N   1      -1.207  -6.973  -0.233  0.00  0.00    -0.191 NA
HETATM    6  C   UNK N   1      -4.500  -2.766   0.017  0.00  0.00     0.061 A 
HETATM    7  C   UNK N   1      -5.126  -4.027  -0.034  0.00  0.00     0.038 A 
HETATM    8 Cl   UNK N   1      -6.862  -4.148   0.122  0.00  0.00    -0.084 Cl
HETATM    9  C   UNK N   1      -4.346  -5.197  -0.143  0.00  0.00     0.046 A 
ENDROOT
BRANCH   1  10
HETATM   10  O   UNK N   1      -2.445  -1.537   0.057  0.00  0.00    -0.309 OA
BRANCH  10  11
HETATM   11  C   UNK N   1      -1.099  -1.278   0.154  0.00  0.00     0.100 A 
HETATM   12  C   UNK N   1       0.024  -2.198   0.376  0.00  0.00     0.068 A 
HETATM   13 Cl   UNK N   1       0.063  -3.906   0.784  0.00  0.00    -0.081 Cl
HETATM   14  C   UNK N   1       1.319  -1.695   0.399  0.00  0.00     0.029 A 
HETATM   15  C   UNK N   1       1.556  -0.349   0.342  0.00  0.00     0.038 A 
HETATM   16  C   UNK N   1       0.492   0.521   0.241  0.00  0.00     0.071 A 
HETATM   17  C   UNK N   1      -0.803   0.068   0.099  0.00  0.00     0.075 A 
BRANCH  16  18
HETATM   18  O   UNK N   1       0.724   1.808   0.377  0.00  0.00    -0.345 OA
BRANCH  18  19
HETATM   19  C   UNK N   1       0.237   2.741  -0.478  0.00  0.00     0.235 C 
BRANCH  19  20
HETATM   20  C   UNK N   1       1.249   3.793  -0.398  0.00  0.00     0.064 A 
HETATM   21  N   UNK N   1       0.986   5.103  -0.222  0.00  0.00    -0.300 N 
HETATM   22  N   UNK N   1       2.143   5.737  -0.047  0.00  0.00    -0.284 N 
ATOM     23  HN  UNK N   1       0.061   5.533  -0.223  1.00  0.00     0.186 HD
HETATM   24  C   UNK N   1       3.123   4.817  -0.095  0.00  0.00     0.134 A 
HETATM   25  H   UNK N   1       2.260   6.705   0.093  0.00  0.00     0.188 HD
HETATM   26  N   UNK N   1       4.445   5.027   0.097  0.00  0.00    -0.327 N 
HETATM   27  C   UNK N   1       2.608   3.592  -0.315  0.00  0.00     0.036 A 
HETATM   28  C   UNK N   1       5.295   3.954   0.065  0.00  0.00     0.100 A 
ATOM     29  HN  UNK N   1       4.803   5.968   0.262  1.00  0.00     0.169 HD
HETATM   30  C   UNK N   1       4.796   2.648  -0.161  0.00  0.00     0.049 A 
HETATM   31  C   UNK N   1       3.418   2.457  -0.354  0.00  0.00     0.021 A 
BRANCH  28  32
HETATM   32  N   UNK N   1       6.673   4.149   0.270  0.00  0.00    -0.385 N 
HETATM   33  H   UNK N   1       7.274   3.382   0.414  0.00  0.00     0.157 HD
HETATM   34  H   UNK N   1       7.041   5.062   0.270  0.00  0.00     0.157 HD
ENDBRANCH  28  32
ENDBRANCH  19  20
ENDBRANCH  18  19
ENDBRANCH  16  18
ENDBRANCH  10  11
ENDBRANCH   1  10
TORSDOF 6
