REMARK  5 active torsions:
REMARK  status: ('A' for Active; 'I' for Inactive)
REMARK    1  A    between atoms: C_2  and  N_5 
REMARK    2  A    between atoms: C_14  and  N_15 
REMARK    3  A    between atoms: C_17  and  C_18 
REMARK    4  A    between atoms: C_18  and  C_19 
REMARK    5  A    between atoms: C_24  and  O_25 
ROOT
HETATM    1  N   UNK N   1      -0.832   2.224   0.023  0.00  0.00    -0.267 N 
HETATM    2  N   UNK N   1      -1.554   1.127  -0.160  0.00  0.00    -0.299 N 
ATOM      3  HN  UNK N   1      -2.557   1.105  -0.346  1.00  0.00     0.187 HD
HETATM    4  C   UNK N   1       0.450   1.857   0.219  0.00  0.00     0.140 A 
HETATM    5  N   UNK N   1       1.507   2.678   0.423  0.00  0.00    -0.336 N 
ATOM      6  HN  UNK N   1       1.384   3.691   0.430  1.00  0.00     0.168 HD
HETATM    7  C   UNK N   1       2.736   2.129   0.620  0.00  0.00     0.183 A 
HETATM    8  N   UNK N   1       2.886   0.773   0.647  0.00  0.00    -0.338 N 
ATOM      9  HN  UNK N   1       3.811   0.378   0.818  1.00  0.00     0.168 HD
HETATM   10  C   UNK N   1       1.830  -0.068   0.451  0.00  0.00     0.116 A 
HETATM   11  C   UNK N   1       0.560   0.491   0.201  0.00  0.00     0.077 A 
HETATM   12  C   UNK N   1      -0.750   0.040  -0.062  0.00  0.00     0.048 A 
ENDROOT
BRANCH  12  13
HETATM   13  C   UNK N   1      -1.356  -1.336  -0.231  0.00  0.00     0.098 C 
BRANCH  13  14
HETATM   14  C   UNK N   1      -0.479  -2.534  -0.191  0.00  0.00    -0.050 A 
HETATM   15  C   UNK N   1       0.445  -2.787  -1.214  0.00  0.00     0.044 A 
HETATM   16  C   UNK N   1       1.278  -3.909  -1.136  0.00  0.00     0.066 A 
HETATM   17  C   UNK N   1       1.159  -4.796  -0.061  0.00  0.00     0.036 A 
HETATM   18  C   UNK N   1       0.207  -4.566   0.936  0.00  0.00     0.003 A 
HETATM   19  C   UNK N   1      -0.608  -3.434   0.872  0.00  0.00     0.007 A 
BRANCH  16  20
HETATM   20  O   UNK N   1       2.209  -4.122  -2.079  0.00  0.00    -0.361 OA
HETATM   21  H   UNK N   1       2.405  -4.758  -2.738  0.00  0.00     0.217 HD
ENDBRANCH  16  20
ENDBRANCH  13  14
ENDBRANCH  12  13
BRANCH   1  22
HETATM   22  C   UNK N   1      -1.429   3.574   0.036  0.00  0.00     0.044 C 
HETATM   23  C   UNK N   1      -2.019   3.887  -1.324  0.00  0.00     0.039 C 
HETATM   24  C   UNK N   1      -2.539   3.617   1.072  0.00  0.00     0.039 C 
HETATM   25  C   UNK N   1      -0.437   4.671   0.389  0.00  0.00     0.039 C 
ENDBRANCH   1  22
BRANCH  10  26
HETATM   26  N   UNK N   1       2.042  -1.449   0.562  0.00  0.00    -0.385 N 
HETATM   27  H   UNK N   1       1.276  -2.062   0.640  0.00  0.00     0.157 HD
HETATM   28  H   UNK N   1       2.959  -1.806   0.562  0.00  0.00     0.157 HD
ENDBRANCH  10  26
TORSDOF 5
