REMARK  9 active torsions:
REMARK  status: ('A' for Active; 'I' for Inactive)
REMARK       I    between atoms: N_13  and  C_1 
REMARK    1  A    between atoms: C_4  and  N_22 
REMARK    2  A    between atoms: C_6  and  N_16 
REMARK    3  A    between atoms: C_8  and  C_11 
REMARK    4  A    between atoms: C_8  and  N_13 
REMARK    5  A    between atoms: C_12  and  C_8 
REMARK    6  A    between atoms: C_11  and  O_10 
REMARK    7  A    between atoms: C_23  and  N_22 
REMARK    8  A    between atoms: C_23  and  C_24 
REMARK    9  A    between atoms: C_27  and  C_30 
ROOT
HETATM    1  C   UNK N   1       1.488   2.206   0.438  0.00  0.00     0.681 A 
HETATM    2  C   UNK N   1      -0.814   2.414   0.045  0.00  0.00     0.155 A 
HETATM    3  C   UNK N   1      -0.812   1.277  -0.668  0.00  0.00     0.123 A 
HETATM    4  C   UNK N   1       0.373   0.596  -0.884  0.00  0.00     0.148 A 
HETATM    5  C   UNK N   1      -2.779   2.108  -0.752  0.00  0.00     0.185 A 
HETATM    6  N   UNK N   1       2.732   2.760   0.792  0.00  0.00    -0.219 N 
HETATM    7  N   UNK N   1       1.503   1.076  -0.316  0.00  0.00    -0.175 N 
ATOM      8  HN  UNK N   1       2.383   0.579  -0.456  1.00  0.00     0.186 HD
HETATM    9  N   UNK N   1      -2.034   2.973  -0.013  0.00  0.00    -0.323 N 
HETATM   10  N   UNK N   1      -2.041   1.047  -1.169  0.00  0.00    -0.346 N 
ATOM     11  HN  UNK N   1      -2.348   0.255  -1.734  1.00  0.00     0.167 HD
HETATM   12  N   UNK N   1       0.323   2.914   0.604  0.00  0.00    -0.174 N 
ATOM     13  HN  UNK N   1       0.310   3.788   1.130  1.00  0.00     0.186 HD
HETATM   14  H   UNK N   1       3.409   2.184   1.216  0.00  0.00     0.178 HD
ENDROOT
BRANCH   4  15
HETATM   15  N   UNK N   1       0.463  -0.488  -1.758  0.00  0.00    -0.370 N 
HETATM   16  H   UNK N   1       1.286  -0.627  -2.281  0.00  0.00     0.161 HD
BRANCH  15  17
HETATM   17  C   UNK N   1      -0.622  -1.391  -1.900  0.00  0.00     0.160 C 
BRANCH  17  18
HETATM   18  C   UNK N   1      -0.467  -2.390  -0.830  0.00  0.00    -0.041 C 
HETATM   19  C   UNK N   1       0.792  -2.962  -0.621  0.00  0.00     0.010 C 
HETATM   20  C   UNK N   1       0.915  -4.076   0.178  0.00  0.00     0.014 C 
HETATM   21  C   UNK N   1      -0.224  -4.638   0.753  0.00  0.00    -0.009 C 
HETATM   22  C   UNK N   1      -1.461  -3.976   0.664  0.00  0.00     0.014 C 
HETATM   23  C   UNK N   1      -1.578  -2.836  -0.122  0.00  0.00     0.010 C 
BRANCH  21  24
HETATM   24  C   UNK N   1      -0.211  -6.091   0.901  0.00  0.00     0.042 A 
HETATM   25  N   UNK N   1       0.940  -6.766   0.616  0.00  0.00    -0.365 N 
HETATM   26  C   UNK N   1       0.942  -8.095   0.349  0.00  0.00     0.088 A 
ATOM     27  HN  UNK N   1       1.824  -6.256   0.604  1.00  0.00     0.165 HD
HETATM   28  C   UNK N   1      -0.260  -8.802   0.329  0.00  0.00     0.017 A 
HETATM   29  C   UNK N   1      -1.449  -8.143   0.636  0.00  0.00     0.004 A 
HETATM   30  C   UNK N   1      -1.430  -6.781   0.914  0.00  0.00     0.030 A 
ENDBRANCH  21  24
ENDBRANCH  17  18
ENDBRANCH  15  17
ENDBRANCH   4  15
BRANCH   9  31
HETATM   31  C   UNK N   1      -2.510   4.277   0.461  0.00  0.00     0.084 C 
HETATM   32  C   UNK N   1      -3.740   4.138   1.333  0.00  0.00     0.032 C 
HETATM   33  C   UNK N   1      -1.444   5.087   1.180  0.00  0.00     0.032 C 
ENDBRANCH   9  31
BRANCH   6  34
HETATM   34  C   UNK N   1       3.044   4.146   0.554  0.00  0.00     0.122 C 
BRANCH  34  35
HETATM   35  C   UNK N   1       2.767   4.505  -0.916  0.00  0.00     0.189 C 
BRANCH  35  36
HETATM   36  O   UNK N   1       1.399   4.637  -1.167  0.00  0.00    -0.399 OA
HETATM   37  H   UNK N   1       1.003   5.506  -1.340  0.00  0.00     0.209 HD
ENDBRANCH  35  36
ENDBRANCH  34  35
BRANCH  34  38
HETATM   38  C   UNK N   1       4.535   4.315   0.818  0.00  0.00     0.023 C 
HETATM   39  C   UNK N   1       5.021   5.718   0.491  0.00  0.00     0.007 C 
ENDBRANCH  34  38
ENDBRANCH   6  34
TORSDOF 9
