REMARK  11 active torsions:
REMARK  status: ('A' for Active; 'I' for Inactive)
REMARK    1  A    between atoms: O_2  and  C_3 
REMARK    2  A    between atoms: C_3  and  C_5 
REMARK    3  A    between atoms: C_6  and  O_7 
REMARK    4  A    between atoms: C_9  and  O_10 
REMARK    5  A    between atoms: C_13  and  C_14 
REMARK    6  A    between atoms: C_14  and  C_15 
REMARK    7  A    between atoms: C_15  and  C_16 
REMARK       I    between atoms: C_16  and  N_18 
REMARK    8  A    between atoms: N_18  and  C_19 
REMARK    9  A    between atoms: C_21  and  O_22 
REMARK   10  A    between atoms: C_23  and  O_24 
REMARK   11  A    between atoms: C_27  and  O_28 
ROOT
HETATM    1  C   UNK N   1      -1.094   0.357   0.661  0.00  0.00     0.108 C 
ENDROOT
BRANCH   1   2
HETATM    2  C   UNK N   1      -1.797   0.905  -0.570  0.00  0.00     0.051 C 
BRANCH   2   3
HETATM    3  C   UNK N   1      -3.229   1.268  -0.291  0.00  0.00    -0.014 A 
HETATM    4  C   UNK N   1      -4.279   0.281  -0.211  0.00  0.00     0.080 A 
HETATM    5  C   UNK N   1      -5.605   0.768   0.017  0.00  0.00     0.085 A 
HETATM    6  C   UNK N   1      -5.847   2.131   0.176  0.00  0.00     0.076 A 
HETATM    7  C   UNK N   1      -4.825   3.060   0.101  0.00  0.00     0.090 A 
HETATM    8  C   UNK N   1      -3.520   2.640  -0.139  0.00  0.00     0.074 A 
HETATM    9 Cl   UNK N   1      -2.243   3.857  -0.260  0.00  0.00    -0.081 Cl
BRANCH   4  10
HETATM   10  C   UNK N   1      -3.949  -1.204  -0.439  0.00  0.00     0.296 C 
HETATM   11  O   UNK N   1      -2.842  -1.488  -0.861  0.00  0.00    -0.259 OA
BRANCH  10  12
HETATM   12  O   UNK N   1      -4.800  -2.256  -0.260  0.00  0.00    -0.322 OA
HETATM   13  C   UNK N   1      -5.842  -2.363   0.624  0.00  0.00     0.213 C 
ENDBRANCH  10  12
ENDBRANCH   4  10
BRANCH   5  14
HETATM   14  O   UNK N   1      -6.674  -0.035   0.035  0.00  0.00    -0.360 OA
HETATM   15  H   UNK N   1      -7.536   0.332   0.048  0.00  0.00     0.217 HD
ENDBRANCH   5  14
BRANCH   7  16
HETATM   16  O   UNK N   1      -5.107   4.367   0.245  0.00  0.00    -0.359 OA
HETATM   17  H   UNK N   1      -4.416   4.992   0.345  0.00  0.00     0.217 HD
ENDBRANCH   7  16
ENDBRANCH   2   3
ENDBRANCH   1   2
BRANCH   1  18
HETATM   18  C   UNK N   1       0.198  -0.269   0.249  0.00  0.00     0.222 C 
HETATM   19  O   UNK N   1       0.180  -1.237  -0.498  0.00  0.00    -0.273 OA
HETATM   20  N   UNK N   1       1.368   0.294   0.647  0.00  0.00    -0.325 N 
HETATM   21  H   UNK N   1       1.296   1.123   1.172  0.00  0.00     0.169 HD
BRANCH  20  22
HETATM   22  C   UNK N   1       2.692  -0.181   0.390  0.00  0.00     0.071 A 
HETATM   23  C   UNK N   1       3.709   0.770   0.279  0.00  0.00     0.071 A 
HETATM   24  C   UNK N   1       5.036   0.396   0.049  0.00  0.00     0.101 A 
HETATM   25  C   UNK N   1       5.369  -0.976  -0.066  0.00  0.00     0.104 A 
HETATM   26  C   UNK N   1       4.357  -1.928   0.060  0.00  0.00     0.078 A 
HETATM   27  C   UNK N   1       3.029  -1.555   0.292  0.00  0.00     0.095 A 
BRANCH  24  28
HETATM   28  O   UNK N   1       5.967   1.358  -0.057  0.00  0.00    -0.358 OA
HETATM   29  H   UNK N   1       6.873   1.131  -0.131  0.00  0.00     0.217 HD
ENDBRANCH  24  28
BRANCH  25  30
HETATM   30  O   UNK N   1       6.635  -1.425  -0.284  0.00  0.00    -0.353 OA
HETATM   31  C   UNK N   1       7.755  -0.634  -0.390  0.00  0.00     0.210 C 
ENDBRANCH  25  30
BRANCH  27  32
HETATM   32  O   UNK N   1       2.115  -2.522   0.456  0.00  0.00    -0.358 OA
HETATM   33  H   UNK N   1       1.210  -2.306   0.571  0.00  0.00     0.217 HD
ENDBRANCH  27  32
ENDBRANCH  20  22
ENDBRANCH   1  18
TORSDOF 11
