REMARK  2 active torsions:
REMARK  status: ('A' for Active; 'I' for Inactive)
REMARK    1  A    between atoms: C_8  and  C_7 
REMARK    2  A    between atoms: C_15  and  C_14 
ROOT
HETATM    1  C   UNK N   1      -1.377   0.501   0.000  0.00  0.00     0.132 A 
HETATM    2  N   UNK N   1      -0.262  -0.247   0.000  0.00  0.00    -0.325 N 
HETATM    3  N   UNK N   1      -2.486  -0.265  -0.000  0.00  0.00    -0.283 N 
ATOM      4  HN  UNK N   1      -3.452   0.063  -0.000  1.00  0.00     0.188 HD
HETATM    5  N   UNK N   1      -2.080  -1.527  -0.000  0.00  0.00    -0.283 N 
ATOM      6  HN  UNK N   1      -2.674  -2.356  -0.000  1.00  0.00     0.188 HD
HETATM    7  C   UNK N   1      -0.732  -1.505   0.000  0.00  0.00     0.132 A 
HETATM    8  H   UNK N   1       0.675   0.054   0.000  0.00  0.00     0.169 HD
ENDROOT
BRANCH   1   9
HETATM    9  C   UNK N   1      -1.347   1.970   0.000  0.00  0.00     0.009 A 
HETATM   10  C   UNK N   1      -0.107   2.623   0.000  0.00  0.00     0.018 A 
HETATM   11  C   UNK N   1      -0.040   4.015   0.000  0.00  0.00     0.043 A 
HETATM   12  C   UNK N   1      -1.215   4.767  -0.000  0.00  0.00     0.116 A 
HETATM   13  C   UNK N   1      -2.459   4.125  -0.000  0.00  0.00     0.043 A 
HETATM   14  F   UNK N   1      -1.146   6.119  -0.000  0.00  0.00    -0.206 F 
HETATM   15  C   UNK N   1      -2.527   2.725  -0.000  0.00  0.00     0.018 A 
ENDBRANCH   1   9
BRANCH   7  16
HETATM   16  C   UNK N   1       0.144  -2.683   0.000  0.00  0.00     0.009 A 
HETATM   17  C   UNK N   1       1.535  -2.501   0.000  0.00  0.00     0.015 A 
HETATM   18  C   UNK N   1       2.393  -3.602   0.000  0.00  0.00     0.001 A 
HETATM   19  C   UNK N   1       1.864  -4.894  -0.000  0.00  0.00     0.000 A 
HETATM   20  C   UNK N   1       0.478  -5.084  -0.000  0.00  0.00     0.001 A 
HETATM   21  C   UNK N   1      -0.383  -3.981  -0.000  0.00  0.00     0.015 A 
ENDBRANCH   7  16
TORSDOF 2
