REMARK  7 active torsions:
REMARK  status: ('A' for Active; 'I' for Inactive)
REMARK    1  A    between atoms: C_2  and  C_5 
REMARK    2  A    between atoms: C_8  and  O_11 
REMARK    3  A    between atoms: C_12  and  O_11 
REMARK    4  A    between atoms: C_12  and  C_17 
REMARK    5  A    between atoms: C_12  and  C_13 
REMARK    6  A    between atoms: C_14  and  C_13 
REMARK    7  A    between atoms: C_14  and  N_15 
ROOT
HETATM    1  C   UNK N   1       1.239  -1.128  -0.576  0.00  0.00     0.163 C 
ENDROOT
BRANCH   1   2
HETATM    2  O   UNK N   1       0.411  -1.284   0.528  0.00  0.00    -0.341 OA
BRANCH   2   3
HETATM    3  C   UNK N   1      -0.832  -0.738   0.545  0.00  0.00     0.069 A 
HETATM    4  C   UNK N   1      -1.279  -0.078   1.694  0.00  0.00     0.037 A 
HETATM    5  C   UNK N   1      -2.482   0.636   1.667  0.00  0.00     0.019 A 
HETATM    6  C   UNK N   1      -3.258   0.674   0.498  0.00  0.00     0.048 A 
HETATM    7  C   UNK N   1      -2.836  -0.036  -0.632  0.00  0.00     0.019 A 
HETATM    8  C   UNK N   1      -1.628  -0.726  -0.613  0.00  0.00     0.037 A 
BRANCH   6   9
HETATM    9  C   UNK N   1      -4.504   1.506   0.449  0.00  0.00     0.417 C 
HETATM   10  F   UNK N   1      -5.143   1.375  -0.774  0.00  0.00    -0.166 F 
HETATM   11  F   UNK N   1      -5.372   1.116   1.451  0.00  0.00    -0.166 F 
HETATM   12  F   UNK N   1      -4.167   2.836   0.629  0.00  0.00    -0.166 F 
ENDBRANCH   6   9
ENDBRANCH   2   3
ENDBRANCH   1   2
BRANCH   1  13
HETATM   13  C   UNK N   1       1.475   0.358  -0.783  0.00  0.00    -0.029 A 
HETATM   14  C   UNK N   1       1.039   0.985  -1.958  0.00  0.00     0.010 A 
HETATM   15  C   UNK N   1       1.162   2.370  -2.104  0.00  0.00     0.001 A 
HETATM   16  C   UNK N   1       1.714   3.138  -1.075  0.00  0.00     0.000 A 
HETATM   17  C   UNK N   1       2.149   2.522   0.100  0.00  0.00     0.001 A 
HETATM   18  C   UNK N   1       2.024   1.140   0.249  0.00  0.00     0.010 A 
ENDBRANCH   1  13
BRANCH   1  19
HETATM   19  C   UNK N   1       2.543  -1.916  -0.419  0.00  0.00     0.056 C 
BRANCH  19  20
HETATM   20  C   UNK N   1       3.409  -1.472   0.751  0.00  0.00     0.116 C 
BRANCH  20  21
HETATM   21  N   UNK N   1       4.813  -1.578   0.386  0.00  0.00    -0.425 N 
HETATM   22  C   UNK N   1       5.186  -0.338  -0.278  0.00  0.00     0.139 C 
HETATM   23  H   UNK N   1       5.424  -2.375   0.564  0.00  0.00     0.152 HD
ENDBRANCH  20  21
ENDBRANCH  19  20
ENDBRANCH   1  19
TORSDOF 7
