REMARK  7 active torsions:
REMARK  status: ('A' for Active; 'I' for Inactive)
REMARK       I    between atoms: N_1  and  C_2 
REMARK    1  A    between atoms: C_2  and  C_4 
REMARK    2  A    between atoms: C_4  and  C_5 
REMARK    3  A    between atoms: C_4  and  C_9 
REMARK    4  A    between atoms: C_9  and  C_10 
REMARK       I    between atoms: C_10  and  N_12 
REMARK    5  A    between atoms: N_12  and  C_13 
REMARK    6  A    between atoms: C_13  and  C_14 
REMARK    7  A    between atoms: C_13  and  C_16 
ROOT
HETATM    1  C   UNK N   1      -1.923  -0.601   0.204  0.00  0.00     0.093 C 
ENDROOT
BRANCH   1   2
HETATM    2  C   UNK N   1      -2.868  -1.707  -0.257  0.00  0.00     0.220 C 
HETATM    3  N   UNK N   1      -4.072  -1.429  -0.800  0.00  0.00    -0.370 N 
HETATM    4  H   UNK N   1      -4.335  -0.567  -1.197  0.00  0.00     0.159 HD
HETATM    5  H   UNK N   1      -4.743  -2.149  -0.800  0.00  0.00     0.159 HD
HETATM    6  O   UNK N   1      -2.529  -2.874  -0.136  0.00  0.00    -0.273 OA
ENDBRANCH   1   2
BRANCH   1   7
HETATM    7  C   UNK N   1      -2.548   0.837   0.102  0.00  0.00    -0.039 C 
HETATM    8  C   UNK N   1      -1.681   1.893   0.755  0.00  0.00     0.015 C 
HETATM    9  C   UNK N   1      -3.878   0.914   0.837  0.00  0.00     0.015 C 
HETATM   10  C   UNK N   1      -2.771   1.246  -1.348  0.00  0.00     0.015 C 
ENDBRANCH   1   7
BRANCH   1  11
HETATM   11  C   UNK N   1      -0.644  -0.763  -0.656  0.00  0.00     0.117 C 
BRANCH  11  12
HETATM   12  C   UNK N   1       0.663  -0.235  -0.127  0.00  0.00     0.218 C 
HETATM   13  O   UNK N   1       0.753   0.915   0.257  0.00  0.00    -0.274 OA
HETATM   14  N   UNK N   1       1.766  -1.026  -0.186  0.00  0.00    -0.356 N 
HETATM   15  H   UNK N   1       1.660  -1.954  -0.498  0.00  0.00     0.162 HD
BRANCH  14  16
HETATM   16  C   UNK N   1       3.092  -0.571   0.189  0.00  0.00     0.083 C 
BRANCH  16  17
HETATM   17  C   UNK N   1       4.064  -1.733   0.033  0.00  0.00     0.021 C 
HETATM   18  C   UNK N   1       5.451  -1.362   0.532  0.00  0.00     0.007 C 
ENDBRANCH  16  17
BRANCH  16  19
HETATM   19  C   UNK N   1       3.540   0.579  -0.713  0.00  0.00     0.021 C 
HETATM   20  C   UNK N   1       3.473   1.895   0.039  0.00  0.00     0.007 C 
ENDBRANCH  16  19
ENDBRANCH  14  16
ENDBRANCH  11  12
ENDBRANCH   1  11
TORSDOF 7
