REMARK  1 active torsions:
REMARK  status: ('A' for Active; 'I' for Inactive)
REMARK    1  A    between atoms: C_2  and  N_1 
ROOT
HETATM    1  C   UNK N   1       2.348   0.081   0.065  0.00  0.00     0.167 C 
HETATM    2  C   UNK N   1       2.081  -1.226  -0.685  0.00  0.00     0.034 C 
HETATM    3  C   UNK N   1       1.370  -2.255   0.181  0.00  0.00     0.002 C 
HETATM    4  C   UNK N   1       0.197  -2.852  -0.576  0.00  0.00     0.000 C 
HETATM    5  C   UNK N   1      -1.103  -2.510   0.130  0.00  0.00     0.000 C 
HETATM    6  C   UNK N   1      -1.773  -1.330  -0.550  0.00  0.00     0.000 C 
HETATM    7  C   UNK N   1      -2.926  -0.839   0.305  0.00  0.00     0.000 C 
HETATM    8  C   UNK N   1      -3.462   0.486  -0.218  0.00  0.00     0.000 C 
HETATM    9  C   UNK N   1      -2.649   1.647   0.329  0.00  0.00     0.002 C 
HETATM   10  C   UNK N   1      -1.565   2.039  -0.655  0.00  0.00     0.020 C 
HETATM   11  C   UNK N   1      -0.432   2.733   0.083  0.00  0.00     0.122 C 
HETATM   12  N   UNK N   1       0.807   2.028  -0.151  0.00  0.00    -0.359 N 
HETATM   13  C   UNK N   1       1.055   0.800   0.378  0.00  0.00     0.239 C 
HETATM   14  O   UNK N   1       0.235   0.271   1.111  0.00  0.00    -0.271 OA
HETATM   15  H   UNK N   1       1.496   2.451  -0.713  0.00  0.00     0.162 HD
ENDROOT
BRANCH   1  16
HETATM   16  N   UNK N   1       3.208   0.913  -0.761  0.00  0.00    -0.418 N 
HETATM   17  H   UNK N   1       4.015   0.682  -1.340  0.00  0.00     0.150 HD
HETATM   18  H   UNK N   1       2.960   1.902  -0.761  0.00  0.00     0.150 HD
ENDBRANCH   1  16
TORSDOF 1
