REMARK  2 active torsions:
REMARK  status: ('A' for Active; 'I' for Inactive)
REMARK    1  A    between atoms: C_8  and  C_1 
REMARK    2  A    between atoms: C_5  and  N_12 
REMARK       I    between atoms: N_12  and  C_13 
REMARK       I    between atoms: C_13  and  N_14 
REMARK       I    between atoms: N_14  and  C_15 
REMARK       I    between atoms: C_15  and  N_16 
ROOT
HETATM    1  N   UNK N   1       0.338   0.964  -0.213  0.00  0.00    -0.190 N 
HETATM    2  C   UNK N   1       1.612   0.648   0.334  0.00  0.00     0.690 C 
HETATM    3  N   UNK N   1       2.759   1.329  -0.158  0.00  0.00    -0.023 N 
HETATM    4  C   UNK N   1       4.080   0.817  -0.028  0.00  0.00     0.683 C 
HETATM    5  N   UNK N   1       5.177   1.646  -0.345  0.00  0.00    -0.234 N 
HETATM    6  N   UNK N   1       1.704  -0.097   1.375  0.00  0.00    -0.234 N 
ATOM      7  HN  UNK N   1       2.643  -0.495   1.375  1.00  0.00     0.174 HD
HETATM    8  N   UNK N   1       4.275  -0.434   0.172  0.00  0.00    -0.234 N 
ATOM      9  HN  UNK N   1       5.226  -0.802   0.172  1.00  0.00     0.174 HD
HETATM   10  H   UNK N   1       0.259   1.819  -0.695  0.00  0.00     0.184 HD
HETATM   11  H   UNK N   1       2.633   2.196  -0.608  0.00  0.00     0.203 HD
HETATM   12  H   UNK N   1       6.061   1.273  -0.566  0.00  0.00     0.174 HD
HETATM   13  H   UNK N   1       5.056   2.623  -0.345  0.00  0.00     0.174 HD
HETATM   14  H   UNK N   1       1.245  -0.444   2.174  0.00  0.00     0.174 HD
HETATM   15  H   UNK N   1       3.517  -1.044   0.326  0.00  0.00     0.174 HD
ENDROOT
BRANCH   1  16
HETATM   16  C   UNK N   1      -0.836   0.159  -0.127  0.00  0.00     0.071 A 
HETATM   17  C   UNK N   1      -0.816  -1.265  -0.100  0.00  0.00     0.061 A 
HETATM   18  C   UNK N   1      -2.021  -1.970  -0.044  0.00  0.00     0.027 A 
HETATM   19 Cl   UNK N   1       0.650  -2.231  -0.228  0.00  0.00    -0.082 Cl
HETATM   20  C   UNK N   1      -3.240  -1.296  -0.031  0.00  0.00     0.018 A 
HETATM   21  C   UNK N   1      -3.274   0.098  -0.093  0.00  0.00     0.050 A 
HETATM   22  C   UNK N   1      -2.072   0.816  -0.141  0.00  0.00     0.048 A 
BRANCH  21  23
HETATM   23  C   UNK N   1      -4.597   0.807  -0.125  0.00  0.00     0.417 C 
HETATM   24  F   UNK N   1      -4.428   2.178  -0.209  0.00  0.00    -0.166 F 
HETATM   25  F   UNK N   1      -5.308   0.513   1.023  0.00  0.00    -0.166 F 
HETATM   26  F   UNK N   1      -5.318   0.380  -1.226  0.00  0.00    -0.166 F 
ENDBRANCH  21  23
ENDBRANCH   1  16
TORSDOF 2
