REMARK  3 active torsions:
REMARK  status: ('A' for Active; 'I' for Inactive)
REMARK    1  A    between atoms: C_2  and  C_3 
REMARK    2  A    between atoms: C_6  and  N_4 
REMARK    3  A    between atoms: C_12  and  O_15 
ROOT
HETATM    1  C   UNK N   1      -0.667   0.228  -0.000  0.00  0.00     0.115 A 
HETATM    2  C   UNK N   1      -1.439  -1.111   0.000  0.00  0.00     0.034 A 
HETATM    3  C   UNK N   1      -0.423  -2.278   0.000  0.00  0.00     0.044 A 
HETATM    4  C   UNK N   1       0.875  -1.579   0.000  0.00  0.00    -0.017 A 
HETATM    5  C   UNK N   1       0.750  -0.215  -0.000  0.00  0.00    -0.027 A 
HETATM    6  C   UNK N   1       1.883   0.607  -0.000  0.00  0.00     0.010 A 
HETATM    7  C   UNK N   1       2.130  -2.194   0.000  0.00  0.00     0.072 A 
HETATM    8  C   UNK N   1       3.278  -1.390   0.000  0.00  0.00     0.037 A 
HETATM    9  C   UNK N   1       3.155   0.011   0.000  0.00  0.00     0.003 A 
ENDROOT
BRANCH   1  10
HETATM   10  N   UNK N   1      -0.960   1.659   0.000  0.00  0.00    -0.390 N 
HETATM   11  C   UNK N   1      -2.162   2.128   0.000  0.00  0.00     0.083 C 
ATOM     12  HN  UNK N   1      -0.180   2.317   0.000  1.00  0.00     0.159 HD
BRANCH  11  13
HETATM   13  C   UNK N   1      -2.412   3.569   0.000  0.00  0.00     0.006 C 
HETATM   14  C   UNK N   1      -3.664   4.015   0.000  0.00  0.00     0.012 C 
ENDBRANCH  11  13
ENDBRANCH   1  10
BRANCH   7  15
HETATM   15  O   UNK N   1       2.239  -3.533   0.000  0.00  0.00    -0.360 OA
HETATM   16  H   UNK N   1       1.468  -4.066   0.000  0.00  0.00     0.217 HD
ENDBRANCH   7  15
TORSDOF 3
