REMARK  4 active torsions:
REMARK  status: ('A' for Active; 'I' for Inactive)
REMARK    1  A    between atoms: C_3  and  C_25 
REMARK    2  A    between atoms: C_9  and  N_10 
REMARK    3  A    between atoms: N_10  and  S_11 
REMARK    4  A    between atoms: S_11  and  C_12 
ROOT
HETATM    1  C   UNK N   1       1.225   2.133   0.187  0.00  0.00     0.079 A 
HETATM    2  S   UNK N   1      -0.509   1.655   0.084  0.00  0.00    -0.048 SA
HETATM    3  C   UNK N   1       0.143  -0.008  -0.262  0.00  0.00     0.162 A 
HETATM    4  C   UNK N   1       2.086   0.972   0.074  0.00  0.00     0.264 A 
HETATM    5  N   UNK N   1       1.415  -0.143  -0.229  0.00  0.00    -0.302 N 
ATOM      6  HN  UNK N   1       1.880  -1.031  -0.418  1.00  0.00     0.171 HD
HETATM    7  O   UNK N   1       3.299   1.008   0.124  0.00  0.00    -0.267 OA
HETATM    8  C   UNK N   1       1.705   3.387   0.216  0.00  0.00     0.061 C 
ENDROOT
BRANCH   3   9
HETATM    9  N   UNK N   1      -0.646  -1.010  -0.861  0.00  0.00    -0.260 N 
HETATM   10  H   UNK N   1      -0.438  -1.248  -1.793  0.00  0.00     0.181 HD
BRANCH   9  11
HETATM   11  S   UNK N   1      -1.962  -1.867  -0.094  0.00  0.00     0.264 S 
HETATM   12  O   UNK N   1      -3.063  -0.942   0.454  0.00  0.00    -0.200 OA
HETATM   13  O   UNK N   1      -2.677  -2.073  -1.432  0.00  0.00    -0.200 OA
BRANCH  11  14
HETATM   14  C   UNK N   1      -1.796  -3.619   0.193  0.00  0.00     0.080 A 
HETATM   15  C   UNK N   1      -0.513  -4.174   0.197  0.00  0.00     0.026 A 
HETATM   16  C   UNK N   1      -0.348  -5.560   0.196  0.00  0.00     0.008 A 
HETATM   17  C   UNK N   1      -1.467  -6.395   0.172  0.00  0.00    -0.062 A 
HETATM   18  C   UNK N   1      -2.753  -5.844   0.177  0.00  0.00     0.008 A 
HETATM   19  C   UNK N   1      -1.288  -7.869   0.118  0.00  0.00     0.048 C 
HETATM   20  C   UNK N   1      -2.919  -4.456   0.178  0.00  0.00     0.026 A 
ENDBRANCH  11  14
ENDBRANCH   9  11
ENDBRANCH   3   9
BRANCH   8  21
HETATM   21  C   UNK N   1       0.862   4.591   0.178  0.00  0.00     0.077 A 
HETATM   22  C   UNK N   1       1.341   5.886   0.128  0.00  0.00     0.040 A 
HETATM   23  C   UNK N   1       0.217   6.693   0.049  0.00  0.00     0.035 A 
HETATM   24  C   UNK N   1      -0.859   5.829   0.053  0.00  0.00     0.050 A 
HETATM   25  O   UNK N   1      -0.445   4.592   0.127  0.00  0.00    -0.316 OA
HETATM   26  C   UNK N   1      -2.289   6.223  -0.025  0.00  0.00     0.076 C 
ENDBRANCH   8  21
TORSDOF 4
