REMARK  8 active torsions:
REMARK  status: ('A' for Active; 'I' for Inactive)
REMARK    1  A    between atoms: C_2  and  O_3 
REMARK    2  A    between atoms: C_4  and  C_2 
REMARK    3  A    between atoms: C_4  and  O_5 
REMARK    4  A    between atoms: C_7  and  O_8 
REMARK    5  A    between atoms: C_9  and  O_10 
REMARK    6  A    between atoms: C_11  and  C_13 
REMARK    7  A    between atoms: C_17  and  S_19 
REMARK    8  A    between atoms: S_19  and  C_20 
ROOT
HETATM    1  C   UNK N   1       1.773   1.426  -0.200  0.00  0.00     0.163 C 
HETATM    2  C   UNK N   1       2.928   0.712  -0.927  0.00  0.00     0.088 C 
HETATM    3  C   UNK N   1       3.336  -0.548  -0.180  0.00  0.00     0.155 C 
HETATM    4  C   UNK N   1       2.175  -1.552  -0.161  0.00  0.00     0.180 C 
HETATM    5  C   UNK N   1       0.833  -0.908   0.167  0.00  0.00    -0.017 C 
HETATM    6  C   UNK N   1       0.694   0.438   0.178  0.00  0.00     0.032 C 
ENDROOT
BRANCH   5   7
HETATM    7  C   UNK N   1      -0.391  -1.749   0.299  0.00  0.00    -0.026 A 
HETATM    8  C   UNK N   1      -0.325  -3.151   0.296  0.00  0.00     0.012 A 
HETATM    9  C   UNK N   1      -1.499  -3.914   0.299  0.00  0.00     0.002 A 
HETATM   10  C   UNK N   1      -2.747  -3.282   0.259  0.00  0.00     0.019 A 
HETATM   11  C   UNK N   1      -2.826  -1.886   0.254  0.00  0.00     0.006 A 
HETATM   12  C   UNK N   1      -1.648  -1.136   0.291  0.00  0.00     0.031 A 
BRANCH  11  13
HETATM   13  S   UNK N   1      -4.438  -1.084   0.094  0.00  0.00    -0.091 SA
BRANCH  13  14
HETATM   14  C   UNK N   1      -3.861   0.570  -0.341  0.00  0.00     0.005 A 
HETATM   15  C   UNK N   1      -4.161   1.644   0.503  0.00  0.00     0.019 A 
HETATM   16  C   UNK N   1      -3.696   2.927   0.199  0.00  0.00     0.001 A 
HETATM   17  C   UNK N   1      -2.921   3.139  -0.944  0.00  0.00     0.000 A 
HETATM   18  C   UNK N   1      -2.622   2.070  -1.794  0.00  0.00     0.001 A 
HETATM   19  C   UNK N   1      -3.098   0.788  -1.498  0.00  0.00     0.019 A 
ENDBRANCH  13  14
ENDBRANCH  11  13
ENDBRANCH   5   7
BRANCH   4  20
HETATM   20  O   UNK N   1       2.477  -2.555   0.764  0.00  0.00    -0.388 OA
HETATM   21  H   UNK N   1       1.979  -3.085   1.406  0.00  0.00     0.210 HD
ENDBRANCH   4  20
BRANCH   3  22
HETATM   22  O   UNK N   1       4.453  -1.120  -0.790  0.00  0.00    -0.393 OA
HETATM   23  H   UNK N   1       4.496  -1.992  -1.214  0.00  0.00     0.210 HD
ENDBRANCH   3  22
BRANCH   1  24
HETATM   24  C   UNK N   1       2.247   2.190   1.015  0.00  0.00     0.180 C 
HETATM   25  O   UNK N   1       1.438   2.825   1.687  0.00  0.00    -0.648 OA
BRANCH  24  26
HETATM   26  O   UNK N   1       3.547   2.218   1.356  0.00  0.00    -0.774 OA
HETATM   27  H   UNK N   1       4.017   1.443   1.593  0.00  0.00     0.167 HD
ENDBRANCH  24  26
ENDBRANCH   1  24
BRANCH   1  28
HETATM   28  O   UNK N   1       1.216   2.337  -1.096  0.00  0.00    -0.375 OA
HETATM   29  H   UNK N   1       1.572   2.989  -1.720  0.00  0.00     0.211 HD
ENDBRANCH   1  28
TORSDOF 8
