REMARK  7 active torsions:
REMARK  status: ('A' for Active; 'I' for Inactive)
REMARK       I    between atoms: C_1  and  N_3 
REMARK    1  A    between atoms: C_1  and  C_5 
REMARK    2  A    between atoms: N_3  and  O_4 
REMARK    3  A    between atoms: C_5  and  C_6 
REMARK    4  A    between atoms: C_6  and  C_7 
REMARK    5  A    between atoms: C_6  and  C_21 
REMARK       I    between atoms: C_7  and  N_9 
REMARK    6  A    between atoms: C_10  and  N_9 
REMARK    7  A    between atoms: C_21  and  C_22 
ROOT
HETATM    1  C   UNK N   1      -1.113  -0.209   1.612  0.00  0.00     0.180 C 
HETATM    2  C   UNK N   1      -2.492   0.085   0.963  0.00  0.00     0.240 C 
HETATM    3  O   UNK N   1      -3.382  -0.708   1.233  0.00  0.00    -0.271 OA
HETATM    4  N   UNK N   1      -2.832   1.125   0.146  0.00  0.00    -0.359 N 
HETATM    5  C   UNK N   1      -1.977   2.125  -0.418  0.00  0.00     0.122 C 
HETATM    6  C   UNK N   1      -2.378   3.542  -0.009  0.00  0.00     0.020 C 
HETATM    7  C   UNK N   1      -1.515   4.567  -0.761  0.00  0.00     0.002 C 
HETATM    8  C   UNK N   1      -0.365   5.090   0.106  0.00  0.00     0.002 C 
HETATM    9  C   UNK N   1       0.947   5.330  -0.675  0.00  0.00     0.020 C 
HETATM   10  C   UNK N   1       1.512   4.110  -1.444  0.00  0.00     0.128 C 
HETATM   11  N   UNK N   1       1.618   2.920  -0.603  0.00  0.00    -0.356 N 
HETATM   12  C   UNK N   1       0.084   0.732   1.871  0.00  0.00     0.075 C 
HETATM   13  C   UNK N   1       0.958   1.346   0.826  0.00  0.00    -0.028 A 
HETATM   14  C   UNK N   1       0.599   2.462   0.137  0.00  0.00     0.099 A 
HETATM   15  C   UNK N   1       2.285   1.113   0.515  0.00  0.00    -0.002 A 
HETATM   16  C   UNK N   1       2.654   2.099  -0.374  0.00  0.00     0.045 A 
HETATM   17  C   UNK N   1       3.186   0.159   0.970  0.00  0.00     0.014 A 
HETATM   18  C   UNK N   1       3.948   2.180  -0.886  0.00  0.00     0.030 A 
HETATM   19  C   UNK N   1       4.501   0.214   0.469  0.00  0.00     0.001 A 
HETATM   20  C   UNK N   1       4.878   1.216  -0.456  0.00  0.00     0.002 A 
HETATM   21  H   UNK N   1      -3.786   1.196  -0.084  0.00  0.00     0.162 HD
ENDROOT
BRANCH   1  22
HETATM   22  N   UNK N   1      -0.673  -1.553   1.305  0.00  0.00    -0.347 N 
HETATM   23  C   UNK N   1      -0.256  -2.003   0.097  0.00  0.00     0.223 C 
HETATM   24  O   UNK N   1      -0.128  -1.238  -0.848  0.00  0.00    -0.273 OA
HETATM   25  H   UNK N   1      -0.677  -2.202   2.044  0.00  0.00     0.163 HD
BRANCH  23  26
HETATM   26  C   UNK N   1      -0.110  -3.501  -0.088  0.00  0.00     0.087 C 
BRANCH  26  27
HETATM   27  C   UNK N   1      -1.196  -4.048  -1.030  0.00  0.00     0.119 C 
BRANCH  27  28
HETATM   28  C   UNK N   1      -2.505  -3.296  -1.012  0.00  0.00     0.241 C 
HETATM   29  O   UNK N   1      -2.709  -2.461  -1.876  0.00  0.00    -0.271 OA
HETATM   30  N   UNK N   1      -3.447  -3.514  -0.066  0.00  0.00    -0.237 N 
HETATM   31  H   UNK N   1      -4.281  -2.991  -0.089  0.00  0.00     0.197 HD
BRANCH  30  32
HETATM   32  O   UNK N   1      -3.272  -4.425   0.898  0.00  0.00    -0.287 OA
HETATM   33  H   UNK N   1      -3.780  -4.865   1.598  0.00  0.00     0.244 HD
ENDBRANCH  30  32
ENDBRANCH  27  28
ENDBRANCH  26  27
BRANCH  26  34
HETATM   34  C   UNK N   1       1.230  -3.945  -0.686  0.00  0.00     0.018 C 
BRANCH  34  35
HETATM   35  C   UNK N   1       2.463  -3.284  -0.102  0.00  0.00    -0.022 C 
HETATM   36  C   UNK N   1       2.985  -2.303  -1.133  0.00  0.00     0.009 C 
HETATM   37  C   UNK N   1       3.528  -4.336   0.129  0.00  0.00     0.009 C 
ENDBRANCH  34  35
ENDBRANCH  26  34
ENDBRANCH  23  26
ENDBRANCH   1  22
TORSDOF 7
