REMARK  7 active torsions:
REMARK  status: ('A' for Active; 'I' for Inactive)
REMARK    1  A    between atoms: C_5  and  O_7 
REMARK    2  A    between atoms: O_7  and  C_8 
REMARK    3  A    between atoms: C_11  and  S_14 
REMARK    4  A    between atoms: S_14  and  C_17 
REMARK    5  A    between atoms: C_17  and  C_18 
REMARK    6  A    between atoms: C_18  and  C_24 
REMARK       I    between atoms: C_24  and  N_25 
REMARK    7  A    between atoms: N_25  and  O_27 
ROOT
HETATM    1  S   UNK N   1      -2.279  -0.644   0.376  0.00  0.00     0.176 S 
HETATM    2  O   UNK N   1      -3.538  -1.514   0.514  0.00  0.00    -0.223 OA
HETATM    3  O   UNK N   1      -2.048  -0.839   1.881  0.00  0.00    -0.223 OA
ENDROOT
BRANCH   1   4
HETATM    4  C   UNK N   1      -0.769  -1.567   0.158  0.00  0.00     0.059 A 
HETATM    5  C   UNK N   1      -0.557  -2.823   0.763  0.00  0.00     0.026 A 
HETATM    6  C   UNK N   1       0.733  -3.373   0.803  0.00  0.00     0.039 A 
HETATM    7  C   UNK N   1       1.805  -2.654   0.260  0.00  0.00     0.076 A 
HETATM    8  C   UNK N   1       1.551  -1.444  -0.410  0.00  0.00     0.039 A 
HETATM    9  C   UNK N   1       0.283  -0.902  -0.448  0.00  0.00     0.026 A 
BRANCH   7  10
HETATM   10  O   UNK N   1       3.085  -3.094   0.398  0.00  0.00    -0.311 OA
BRANCH  10  11
HETATM   11  C   UNK N   1       4.128  -2.224   0.323  0.00  0.00     0.076 A 
HETATM   12  C   UNK N   1       5.259  -2.553  -0.427  0.00  0.00     0.039 A 
HETATM   13  C   UNK N   1       6.253  -1.591  -0.644  0.00  0.00     0.026 A 
HETATM   14  C   UNK N   1       6.125  -0.308  -0.099  0.00  0.00     0.034 A 
HETATM   15  C   UNK N   1       5.028   0.006   0.701  0.00  0.00     0.026 A 
HETATM   16 Cl   UNK N   1       7.317   0.923  -0.449  0.00  0.00    -0.084 Cl
HETATM   17  C   UNK N   1       4.037  -0.946   0.913  0.00  0.00     0.039 A 
ENDBRANCH  10  11
ENDBRANCH   7  10
ENDBRANCH   1   4
BRANCH   1  18
HETATM   18  C   UNK N   1      -2.423   1.102   0.894  0.00  0.00     0.165 C 
BRANCH  18  19
HETATM   19  C   UNK N   1      -3.071   2.102  -0.072  0.00  0.00     0.060 C 
HETATM   20  C   UNK N   1      -2.937   3.493   0.585  0.00  0.00     0.046 C 
HETATM   21  C   UNK N   1      -1.517   4.083   0.461  0.00  0.00     0.168 C 
HETATM   22  O   UNK N   1      -0.614   3.156  -0.093  0.00  0.00    -0.391 OA
HETATM   23  C   UNK N   1      -1.041   2.931  -1.413  0.00  0.00     0.168 C 
HETATM   24  C   UNK N   1      -2.357   2.130  -1.441  0.00  0.00     0.046 C 
BRANCH  19  25
HETATM   25  C   UNK N   1      -4.526   1.738  -0.258  0.00  0.00     0.250 C 
HETATM   26  N   UNK N   1      -4.866   0.588  -0.883  0.00  0.00    -0.237 N 
HETATM   27  H   UNK N   1      -4.157  -0.004  -1.225  0.00  0.00     0.197 HD
HETATM   28  O   UNK N   1      -5.409   2.482   0.160  0.00  0.00    -0.271 OA
BRANCH  26  29
HETATM   29  O   UNK N   1      -6.147   0.241  -1.045  0.00  0.00    -0.287 OA
HETATM   30  H   UNK N   1      -6.830   0.919  -1.162  0.00  0.00     0.244 HD
ENDBRANCH  26  29
ENDBRANCH  19  25
ENDBRANCH  18  19
ENDBRANCH   1  18
TORSDOF 7
