REMARK  9 active torsions:
REMARK  status: ('A' for Active; 'I' for Inactive)
REMARK    1  A    between atoms: C_1  and  C_4 
REMARK    2  A    between atoms: O_3  and  C_1 
REMARK    3  A    between atoms: C_5  and  C_6 
REMARK    4  A    between atoms: C_11  and  C_12 
REMARK    5  A    between atoms: C_13  and  C_14 
REMARK    6  A    between atoms: C_14  and  C_15 
REMARK    7  A    between atoms: C_16  and  C_15 
REMARK    8  A    between atoms: C_17  and  C_16 
REMARK    9  A    between atoms: C_18  and  C_17 
ROOT
HETATM    1  C   UNK N   1      -3.910  -2.111  -0.205  0.00  0.00    -0.017 A 
HETATM    2  C   UNK N   1      -5.079  -1.380  -0.484  0.00  0.00     0.013 A 
HETATM    3  C   UNK N   1      -6.325  -2.037  -0.517  0.00  0.00     0.001 A 
HETATM    4  C   UNK N   1      -6.412  -3.410  -0.267  0.00  0.00     0.002 A 
HETATM    5  C   UNK N   1      -5.259  -4.130   0.008  0.00  0.00     0.021 A 
HETATM    6  C   UNK N   1      -4.025  -3.495   0.035  0.00  0.00     0.028 A 
ENDROOT
BRANCH   6   7
HETATM    7  C   UNK N   1      -2.896  -4.283   0.371  0.00  0.00    -0.066 C 
HETATM    8  C   UNK N   1      -1.917  -4.897   0.648  0.00  0.00    -0.101 C 
BRANCH   8   9
HETATM    9  C   UNK N   1      -0.653  -5.484   0.949  0.00  0.00     0.094 C 
BRANCH   9  10
HETATM   10  C   UNK N   1       0.286  -4.363   0.674  0.00  0.00     0.012 C 
BRANCH  10  11
HETATM   11  C   UNK N   1       1.021  -4.662  -0.591  0.00  0.00     0.001 C 
BRANCH  11  12
HETATM   12  C   UNK N   1       2.194  -3.750  -0.571  0.00  0.00    -0.000 C 
BRANCH  12  13
HETATM   13  C   UNK N   1       3.358  -4.454   0.054  0.00  0.00    -0.005 C 
HETATM   14  C   UNK N   1       4.414  -3.392   0.151  0.00  0.00     0.005 C 
ENDBRANCH  12  13
ENDBRANCH  11  12
ENDBRANCH  10  11
ENDBRANCH   9  10
ENDBRANCH   8   9
ENDBRANCH   6   7
BRANCH   1  15
HETATM   15  C   UNK N   1      -2.556  -1.498  -0.107  0.00  0.00     0.019 C 
HETATM   16  C   UNK N   1      -2.226  -0.208  -0.012  0.00  0.00     0.082 C 
BRANCH  16  17
HETATM   17  C   UNK N   1      -0.787   0.154   0.060  0.00  0.00     0.165 C 
HETATM   18  O   UNK N   1      -0.454   1.325   0.136  0.00  0.00    -0.647 OA
BRANCH  17  19
HETATM   19  O   UNK N   1       0.166  -0.803   0.008  0.00  0.00    -0.773 OA
HETATM   20  H   UNK N   1      -0.079  -1.706  -0.027  0.00  0.00     0.167 HD
ENDBRANCH  17  19
ENDBRANCH  16  17
ENDBRANCH   1  15
TORSDOF 9
