REMARK  3 active torsions:
REMARK  status: ('A' for Active; 'I' for Inactive)
REMARK    1  A    between atoms: C_25  and  C_26 
REMARK    2  A    between atoms: C_27  and  C_28 
REMARK    3  A    between atoms: C_31  and  C_32 
ROOT
HETATM    1  C   UNK N   1       1.042  -1.738   0.000  0.00  0.00     0.140 A 
HETATM    2  O   UNK N   1       0.782  -2.521   0.000  0.00  0.00    -0.650 OA
HETATM    3  O   UNK N   1       1.850  -1.571   0.000  0.00  0.00    -0.776 OA
HETATM    4  C   UNK N   1       0.414  -1.031   0.000  0.00  0.00     0.124 A 
HETATM    5  C   UNK N   1       0.835  -0.282   0.000  0.00  0.00     0.088 A 
HETATM    6  C   UNK N   1       0.137   0.154   0.000  0.00  0.00     0.223 A 
HETATM    7  O   UNK N   1      -0.152   0.795   0.000  0.00  0.00    -0.273 OA
HETATM    8  N   UNK N   1      -0.448   0.754   0.000  0.00  0.00    -0.347 N 
HETATM    9  C   UNK N   1      -1.033   1.270   0.000  0.00  0.00     0.180 A 
HETATM   10  C   UNK N   1      -1.124   2.090   0.000  0.00  0.00     0.240 A 
HETATM   11  O   UNK N   1      -1.738   2.658   0.000  0.00  0.00    -0.271 OA
HETATM   12  N   UNK N   1      -0.373   2.430   0.000  0.00  0.00    -0.359 N 
HETATM   13  C   UNK N   1       0.183   1.821   0.000  0.00  0.00     0.122 A 
HETATM   14  C   UNK N   1       1.288   1.846   0.000  0.00  0.00     0.020 A 
HETATM   15  C   UNK N   1       1.398   1.056   0.000  0.00  0.00     0.002 A 
HETATM   16  C   UNK N   1       0.936   0.271   0.000  0.00  0.00     0.002 A 
HETATM   17  C   UNK N   1       1.276  -0.481   0.000  0.00  0.00     0.020 A 
HETATM   18  C   UNK N   1       0.795  -1.151   0.000  0.00  0.00     0.128 A 
HETATM   19  N   UNK N   1      -0.026  -1.070   0.000  0.00  0.00    -0.356 N 
HETATM   20  C   UNK N   1       1.686   0.165   0.000  0.00  0.00     0.018 A 
HETATM   21  C   UNK N   1       1.047   0.754   0.000  0.00  0.00    -0.022 A 
HETATM   22  C   UNK N   1       0.448   1.299   0.000  0.00  0.00     0.009 A 
HETATM   23  C   UNK N   1       0.707   1.527   0.000  0.00  0.00     0.009 A 
HETATM   24  C   UNK N   1      -1.527   0.515   0.000  0.00  0.00     0.075 A 
HETATM   25  C   UNK N   1      -1.187  -0.237   0.000  0.00  0.00    -0.028 A 
HETATM   26  C   UNK N   1      -0.366  -0.318   0.000  0.00  0.00     0.099 A 
HETATM   27  C   UNK N   1      -1.361  -1.078   0.000  0.00  0.00    -0.002 A 
HETATM   28  C   UNK N   1      -0.690  -1.559   0.000  0.00  0.00     0.045 A 
HETATM   29  C   UNK N   1      -2.112  -1.418   0.000  0.00  0.00     0.014 A 
HETATM   30  C   UNK N   1      -0.772  -2.380   0.000  0.00  0.00     0.030 A 
HETATM   31  C   UNK N   1      -2.194  -2.239   0.000  0.00  0.00     0.001 A 
HETATM   32  C   UNK N   1      -1.523  -2.720   0.000  0.00  0.00     0.002 A 
HETATM   33  H   UNK N   1       2.472  -2.272   0.000  0.00  0.00     0.167 HD
HETATM   34  H   UNK N   1       0.231   1.467   0.000  0.00  0.00     0.163 HD
HETATM   35  H   UNK N   1      -0.174   3.395   0.000  0.00  0.00     0.162 HD
ENDROOT
TORSDOF 3
