REMARK  5 active torsions:
REMARK  status: ('A' for Active; 'I' for Inactive)
REMARK    1  A    between atoms: C_13  and  N_14 
REMARK       I    between atoms: N_14  and  C_15 
REMARK    2  A    between atoms: C_15  and  C_17 
REMARK    3  A    between atoms: C_17  and  O_18 
REMARK    4  A    between atoms: C_17  and  C_22 
REMARK    5  A    between atoms: O_18  and  C_19 
ROOT
HETATM    1  N   UNK N   1      -0.398   0.194   0.087  0.00  0.00    -0.324 N 
HETATM    2  C   UNK N   1      -0.269  -1.157  -0.039  0.00  0.00     0.256 C 
HETATM    3  O   UNK N   1      -1.229  -1.843  -0.354  0.00  0.00    -0.270 OA
HETATM    4  H   UNK N   1       0.424   0.707   0.263  0.00  0.00     0.169 HD
ENDROOT
BRANCH   1   5
HETATM    5  C   UNK N   1      -1.615   0.936  -0.014  0.00  0.00     0.050 A 
HETATM    6  C   UNK N   1      -1.591   2.354  -0.014  0.00  0.00     0.062 A 
HETATM    7  C   UNK N   1      -2.805   3.071  -0.067  0.00  0.00     0.049 A 
HETATM    8  C   UNK N   1      -0.328   3.138   0.040  0.00  0.00     0.253 A 
HETATM    9  C   UNK N   1      -2.789   4.557  -0.057  0.00  0.00     0.259 A 
HETATM   10  C   UNK N   1      -4.024   2.385  -0.124  0.00  0.00     0.018 A 
HETATM   11  O   UNK N   1      -3.840   5.179  -0.091  0.00  0.00    -0.267 OA
HETATM   12  N   UNK N   1      -1.615   5.239  -0.008  0.00  0.00    -0.286 N 
HETATM   13  C   UNK N   1      -0.409   4.617   0.037  0.00  0.00     0.299 A 
HETATM   14  H   UNK N   1      -1.640   6.223  -0.005  0.00  0.00     0.172 HD
HETATM   15  O   UNK N   1       0.612   5.285   0.073  0.00  0.00    -0.264 OA
HETATM   16  C   UNK N   1      -4.048   0.994  -0.130  0.00  0.00     0.003 A 
HETATM   17  C   UNK N   1      -2.856   0.277  -0.071  0.00  0.00     0.030 A 
HETATM   18  O   UNK N   1       0.763   2.588   0.078  0.00  0.00    -0.281 OA
ENDBRANCH   1   5
BRANCH   2  19
HETATM   19  C   UNK N   1       1.089  -1.785   0.234  0.00  0.00     0.257 C 
BRANCH  19  20
HETATM   20  O   UNK N   1       2.012  -1.240  -0.647  0.00  0.00    -0.302 OA
BRANCH  20  21
HETATM   21  C   UNK N   1       3.003  -0.379  -0.286  0.00  0.00     0.255 C 
HETATM   22  O   UNK N   1       3.032   0.121   0.830  0.00  0.00    -0.266 OA
HETATM   23  C   UNK N   1       4.061  -0.023  -1.270  0.00  0.00     0.126 C 
ENDBRANCH  20  21
ENDBRANCH  19  20
BRANCH  19  24
HETATM   24  C   UNK N   1       1.188  -3.305   0.169  0.00  0.00    -0.018 A 
HETATM   25  C   UNK N   1       2.433  -3.911   0.401  0.00  0.00     0.010 A 
HETATM   26  C   UNK N   1       2.565  -5.303   0.372  0.00  0.00     0.002 A 
HETATM   27  C   UNK N   1       1.450  -6.107   0.126  0.00  0.00     0.024 A 
HETATM   28  C   UNK N   1       0.204  -5.519  -0.098  0.00  0.00     0.034 A 
HETATM   29 Cl   UNK N   1      -1.203  -6.521  -0.379  0.00  0.00    -0.084 Cl
HETATM   30  C   UNK N   1       0.076  -4.129  -0.081  0.00  0.00     0.034 A 
ENDBRANCH  19  24
ENDBRANCH   2  19
TORSDOF 5
