REMARK  8 active torsions:
REMARK  status: ('A' for Active; 'I' for Inactive)
REMARK    1  A    between atoms: C_2  and  C_3 
REMARK    2  A    between atoms: C_3  and  O_4 
REMARK    3  A    between atoms: O_4  and  C_5 
REMARK    4  A    between atoms: C_10  and  N_11 
REMARK       I    between atoms: N_11  and  C_12 
REMARK    5  A    between atoms: C_12  and  C_14 
REMARK    6  A    between atoms: C_14  and  C_15 
REMARK    7  A    between atoms: C_15  and  C_16 
REMARK       I    between atoms: C_16  and  N_18 
REMARK    8  A    between atoms: N_18  and  C_19 
ROOT
HETATM    1  C   UNK N   1       1.795   0.315   0.803  0.00  0.00     0.222 C 
HETATM    2  O   UNK N   1       2.512   0.540   1.771  0.00  0.00    -0.273 OA
HETATM    3  N   UNK N   1       2.329  -0.226  -0.323  0.00  0.00    -0.327 N 
HETATM    4  H   UNK N   1       1.835  -0.868  -0.882  0.00  0.00     0.169 HD
ENDROOT
BRANCH   1   5
HETATM    5  C   UNK N   1       0.552   1.110   0.654  0.00  0.00     0.112 C 
BRANCH   5   6
HETATM    6  C   UNK N   1      -0.287   1.101   1.901  0.00  0.00     0.112 C 
BRANCH   6   7
HETATM    7  C   UNK N   1      -1.455   0.295   1.534  0.00  0.00     0.222 C 
HETATM    8  N   UNK N   1      -2.499   0.898   0.903  0.00  0.00    -0.327 N 
HETATM    9  H   UNK N   1      -2.479   1.879   0.822  0.00  0.00     0.169 HD
HETATM   10  O   UNK N   1      -1.396  -0.918   1.666  0.00  0.00    -0.273 OA
BRANCH   8  11
HETATM   11  C   UNK N   1      -3.613   0.214   0.352  0.00  0.00     0.037 A 
HETATM   12  C   UNK N   1      -4.532   0.916  -0.436  0.00  0.00     0.029 A 
HETATM   13  C   UNK N   1      -5.593   0.237  -1.044  0.00  0.00     0.005 A 
HETATM   14  C   UNK N   1      -5.732  -1.146  -0.872  0.00  0.00     0.037 A 
HETATM   15  C   UNK N   1      -4.814  -1.849  -0.074  0.00  0.00     0.070 A 
HETATM   16  C   UNK N   1      -3.772  -1.163   0.527  0.00  0.00     0.066 A 
BRANCH  15  17
HETATM   17  O   UNK N   1      -4.896  -3.182   0.128  0.00  0.00    -0.349 OA
BRANCH  17  18
HETATM   18  C   UNK N   1      -5.732  -4.013  -0.575  0.00  0.00     0.207 C 
BRANCH  18  19
HETATM   19  C   UNK N   1      -4.922  -5.173  -1.120  0.00  0.00     0.248 C 
HETATM   20  F   UNK N   1      -4.466  -5.955  -0.072  0.00  0.00    -0.253 F 
ENDBRANCH  18  19
ENDBRANCH  17  18
ENDBRANCH  15  17
ENDBRANCH   8  11
ENDBRANCH   6   7
ENDBRANCH   5   6
ENDBRANCH   1   5
BRANCH   3  21
HETATM   21  C   UNK N   1       3.629   0.193  -0.637  0.00  0.00     0.035 A 
HETATM   22  C   UNK N   1       4.752  -0.470  -0.125  0.00  0.00     0.030 A 
HETATM   23  C   UNK N   1       5.968   0.224  -0.016  0.00  0.00     0.020 A 
HETATM   24  C   UNK N   1       6.028   1.591  -0.354  0.00  0.00     0.046 A 
HETATM   25  C   UNK N   1       4.898   2.222  -0.885  0.00  0.00     0.038 A 
HETATM   26  C   UNK N   1       7.236   2.410  -0.091  0.00  0.00     0.259 A 
HETATM   27  C   UNK N   1       4.924   3.658  -1.173  0.00  0.00     0.250 A 
HETATM   28  C   UNK N   1       3.725   1.522  -1.023  0.00  0.00     0.046 A 
HETATM   29  O   UNK N   1       3.943   4.225  -1.633  0.00  0.00    -0.281 OA
HETATM   30  C   UNK N   1       6.144   4.406  -0.833  0.00  0.00     0.299 A 
HETATM   31  N   UNK N   1       7.225   3.755  -0.324  0.00  0.00    -0.286 N 
HETATM   32  O   UNK N   1       6.181   5.616  -0.993  0.00  0.00    -0.264 OA
HETATM   33  H   UNK N   1       8.034   4.277  -0.116  0.00  0.00     0.172 HD
HETATM   34  O   UNK N   1       8.232   1.892   0.386  0.00  0.00    -0.267 OA
ENDBRANCH   3  21
TORSDOF 8
