REMARK  6 active torsions:
REMARK  status: ('A' for Active; 'I' for Inactive)
REMARK    1  A    between atoms: C_11  and  C_10 
REMARK    2  A    between atoms: C_17  and  C_18 
REMARK    3  A    between atoms: O_19  and  C_18 
REMARK    4  A    between atoms: C_20  and  O_21 
REMARK    5  A    between atoms: C_22  and  O_23 
REMARK    6  A    between atoms: C_24  and  O_25 
ROOT
HETATM    1  C   UNK N   1      -0.858   0.942  -0.964  0.00  0.00     0.144 C 
HETATM    2  C   UNK N   1       0.558   0.459  -1.149  0.00  0.00     0.105 C 
HETATM    3  N   UNK N   1      -0.778   1.786   0.213  0.00  0.00    -0.290 N 
HETATM    4  O   UNK N   1       0.125   1.171   1.027  0.00  0.00    -0.241 OA
HETATM    5  C   UNK N   1       1.201   0.868   0.179  0.00  0.00     0.220 C 
HETATM    6  O   UNK N   1       1.977   2.057   0.051  0.00  0.00    -0.341 OA
HETATM    7  C   UNK N   1       3.135   1.876  -0.749  0.00  0.00     0.180 C 
HETATM    8  C   UNK N   1       4.074   0.803  -0.155  0.00  0.00     0.180 C 
HETATM    9  C   UNK N   1       3.298  -0.515  -0.042  0.00  0.00     0.183 C 
HETATM   10  C   UNK N   1       2.037  -0.277   0.800  0.00  0.00     0.214 C 
HETATM   11  H   UNK N   1      -1.288   2.652   0.393  0.00  0.00     0.188 HD
ENDROOT
BRANCH  10  12
HETATM   12  O   UNK N   1       1.283  -1.452   0.891  0.00  0.00    -0.387 OA
HETATM   13  H   UNK N   1       0.317  -1.407   0.953  0.00  0.00     0.210 HD
ENDBRANCH  10  12
BRANCH   7  14
HETATM   14  C   UNK N   1       3.842   3.224  -0.890  0.00  0.00     0.198 C 
BRANCH  14  15
HETATM   15  O   UNK N   1       4.106   3.790   0.360  0.00  0.00    -0.398 OA
HETATM   16  H   UNK N   1       4.538   3.829   1.227  0.00  0.00     0.209 HD
ENDBRANCH  14  15
ENDBRANCH   7  14
BRANCH   1  17
HETATM   17  C   UNK N   1      -1.856  -0.153  -0.678  0.00  0.00    -0.033 A 
HETATM   18  C   UNK N   1      -3.169   0.214  -0.354  0.00  0.00     0.021 A 
HETATM   19  C   UNK N   1      -4.103  -0.750   0.015  0.00  0.00    -0.025 A 
HETATM   20  C   UNK N   1      -3.731  -2.112   0.056  0.00  0.00    -0.026 A 
HETATM   21  C   UNK N   1      -5.400  -0.369   0.368  0.00  0.00     0.012 A 
HETATM   22  C   UNK N   1      -2.429  -2.487  -0.290  0.00  0.00     0.013 A 
HETATM   23  C   UNK N   1      -4.663  -3.074   0.451  0.00  0.00     0.012 A 
HETATM   24  C   UNK N   1      -1.493  -1.512  -0.651  0.00  0.00     0.010 A 
HETATM   25  C   UNK N   1      -5.959  -2.686   0.809  0.00  0.00     0.001 A 
HETATM   26  C   UNK N   1      -6.327  -1.336   0.766  0.00  0.00     0.001 A 
ENDBRANCH   1  17
BRANCH   9  27
HETATM   27  O   UNK N   1       4.099  -1.498   0.546  0.00  0.00    -0.390 OA
HETATM   28  H   UNK N   1       3.786  -2.321   0.954  0.00  0.00     0.210 HD
ENDBRANCH   9  27
BRANCH   8  29
HETATM   29  O   UNK N   1       4.530   1.194   1.110  0.00  0.00    -0.390 OA
HETATM   30  H   UNK N   1       4.923   1.056   1.986  0.00  0.00     0.210 HD
ENDBRANCH   8  29
TORSDOF 6
