REMARK  8 active torsions:
REMARK  status: ('A' for Active; 'I' for Inactive)
REMARK    1  A    between atoms: C_2  and  O_3 
REMARK       I    between atoms: C_2  and  N_6 
REMARK    2  A    between atoms: O_3  and  C_4 
REMARK    3  A    between atoms: N_6  and  C_7 
REMARK    4  A    between atoms: C_7  and  C_8 
REMARK    5  A    between atoms: C_8  and  C_9 
REMARK    6  A    between atoms: C_9  and  N_10 
REMARK       I    between atoms: N_10  and  C_11 
REMARK    7  A    between atoms: C_11  and  O_13 
REMARK    8  A    between atoms: O_13  and  C_14 
ROOT
HETATM    1  C   UNK N   1      -0.000   0.991   0.000  0.00  0.00     0.039 C 
ENDROOT
BRANCH   1   2
HETATM    2  C   UNK N   1      -1.185   0.053  -0.000  0.00  0.00     0.126 C 
BRANCH   2   3
HETATM    3  N   UNK N   1      -2.453   0.736  -0.000  0.00  0.00    -0.337 N 
HETATM    4  C   UNK N   1      -3.600   0.013  -0.000  0.00  0.00     0.360 C 
HETATM    5  O   UNK N   1      -3.553  -1.212  -0.000  0.00  0.00    -0.239 OA
HETATM    6  H   UNK N   1      -2.487   1.720  -0.000  0.00  0.00     0.164 HD
BRANCH   4   7
HETATM    7  O   UNK N   1      -4.796   0.648   0.000  0.00  0.00    -0.304 OA
BRANCH   7   8
HETATM    8  C   UNK N   1      -5.982  -0.054   0.000  0.00  0.00     0.176 C 
HETATM    9  C   UNK N   1      -7.149   0.907   0.000  0.00  0.00     0.034 C 
ENDBRANCH   7   8
ENDBRANCH   4   7
ENDBRANCH   2   3
ENDBRANCH   1   2
BRANCH   1  10
HETATM   10  C   UNK N   1       1.185   0.053   0.000  0.00  0.00     0.126 C 
BRANCH  10  11
HETATM   11  N   UNK N   1       2.453   0.736   0.000  0.00  0.00    -0.337 N 
HETATM   12  C   UNK N   1       3.600   0.013   0.000  0.00  0.00     0.360 C 
HETATM   13  O   UNK N   1       3.553  -1.212   0.000  0.00  0.00    -0.239 OA
HETATM   14  H   UNK N   1       2.487   1.720   0.000  0.00  0.00     0.164 HD
BRANCH  12  15
HETATM   15  O   UNK N   1       4.796   0.648  -0.000  0.00  0.00    -0.304 OA
BRANCH  15  16
HETATM   16  C   UNK N   1       5.982  -0.054  -0.000  0.00  0.00     0.176 C 
HETATM   17  C   UNK N   1       7.149   0.907  -0.000  0.00  0.00     0.034 C 
ENDBRANCH  15  16
ENDBRANCH  12  15
ENDBRANCH  10  11
ENDBRANCH   1  10
TORSDOF 8
