REMARK  13 active torsions:
REMARK  status: ('A' for Active; 'I' for Inactive)
REMARK    1  A    between atoms: P_2  and  O_3 
REMARK    2  A    between atoms: P_2  and  C_4 
REMARK    3  A    between atoms: P_2  and  C_7 
REMARK    4  A    between atoms: C_4  and  N_5 
REMARK    5  A    between atoms: C_8  and  C_7 
REMARK    6  A    between atoms: C_8  and  C_16 
REMARK    7  A    between atoms: C_8  and  C_9 
REMARK    8  A    between atoms: C_10  and  C_9 
REMARK       I    between atoms: C_16  and  N_18 
REMARK    9  A    between atoms: C_19  and  N_18 
REMARK   10  A    between atoms: C_19  and  C_23 
REMARK   11  A    between atoms: C_20  and  C_19 
REMARK   12  A    between atoms: C_20  and  O_22 
REMARK   13  A    between atoms: C_23  and  C_24 
ROOT
HETATM    1  C   UNK N   1      -1.496   1.515   0.310  0.00  0.00     0.091 C 
ENDROOT
BRANCH   1   2
HETATM    2  C   UNK N   1      -1.087   0.120   0.811  0.00  0.00     0.110 C 
BRANCH   2   3
HETATM    3  P   UNK N   1      -1.209  -1.247  -0.479  0.00  0.00     0.121 P 
HETATM    4  O   UNK N   1      -0.499  -0.743  -1.762  0.00  0.00    -0.672 OA
BRANCH   3   5
HETATM    5  O   UNK N   1      -2.847  -1.414  -1.032  0.00  0.00    -0.348 OA
HETATM    6  H   UNK N   1      -3.385  -0.669  -1.342  0.00  0.00     0.218 HD
ENDBRANCH   3   5
BRANCH   3   7
HETATM    7  C   UNK N   1      -0.544  -2.947  -0.127  0.00  0.00     0.153 C 
HETATM    8  C   UNK N   1      -1.374  -3.606   0.954  0.00  0.00     0.042 C 
BRANCH   7   9
HETATM    9  N   UNK N   1       0.834  -2.854   0.313  0.00  0.00    -0.419 N 
HETATM   10  H   UNK N   1       1.376  -3.661   0.623  0.00  0.00     0.150 HD
HETATM   11  H   UNK N   1       1.283  -1.938   0.313  0.00  0.00     0.150 HD
ENDBRANCH   7   9
ENDBRANCH   3   7
ENDBRANCH   2   3
ENDBRANCH   1   2
BRANCH   1  12
HETATM   12  C   UNK N   1      -0.523   2.234  -0.627  0.00  0.00     0.223 C 
HETATM   13  N   UNK N   1       0.801   1.963  -0.788  0.00  0.00    -0.346 N 
HETATM   14  H   UNK N   1       1.208   2.396  -1.573  0.00  0.00     0.163 HD
HETATM   15  O   UNK N   1      -0.978   3.169  -1.283  0.00  0.00    -0.273 OA
BRANCH  13  16
HETATM   16  C   UNK N   1       1.726   1.151  -0.013  0.00  0.00     0.186 C 
BRANCH  16  17
HETATM   17  C   UNK N   1       2.165  -0.046  -0.878  0.00  0.00     0.074 C 
BRANCH  17  18
HETATM   18  C   UNK N   1       3.350  -0.888  -0.463  0.00  0.00    -0.056 A 
HETATM   19  C   UNK N   1       4.202  -0.534   0.595  0.00  0.00     0.007 A 
HETATM   20  C   UNK N   1       5.325  -1.312   0.894  0.00  0.00     0.001 A 
HETATM   21  C   UNK N   1       5.601  -2.457   0.142  0.00  0.00     0.000 A 
HETATM   22  C   UNK N   1       4.753  -2.824  -0.905  0.00  0.00     0.001 A 
HETATM   23  C   UNK N   1       3.637  -2.037  -1.211  0.00  0.00     0.007 A 
ENDBRANCH  17  18
ENDBRANCH  16  17
BRANCH  16  24
HETATM   24  C   UNK N   1       2.894   2.047   0.295  0.00  0.00     0.163 C 
HETATM   25  O   UNK N   1       3.199   2.284   1.455  0.00  0.00    -0.648 OA
BRANCH  24  26
HETATM   26  O   UNK N   1       3.611   2.592  -0.707  0.00  0.00    -0.775 OA
HETATM   27  H   UNK N   1       4.188   2.349  -1.404  0.00  0.00     0.167 HD
ENDBRANCH  24  26
ENDBRANCH  16  24
ENDBRANCH  13  16
ENDBRANCH   1  12
BRANCH   1  28
HETATM   28  C   UNK N   1      -2.848   1.393  -0.418  0.00  0.00     0.053 C 
BRANCH  28  29
HETATM   29  C   UNK N   1      -4.012   2.051   0.245  0.00  0.00    -0.057 A 
HETATM   30  C   UNK N   1      -4.035   3.439   0.432  0.00  0.00     0.007 A 
HETATM   31  C   UNK N   1      -5.156   4.049   1.003  0.00  0.00     0.001 A 
HETATM   32  C   UNK N   1      -6.259   3.275   1.377  0.00  0.00     0.000 A 
HETATM   33  C   UNK N   1      -6.240   1.891   1.183  0.00  0.00     0.001 A 
HETATM   34  C   UNK N   1      -5.119   1.280   0.614  0.00  0.00     0.007 A 
ENDBRANCH  28  29
ENDBRANCH   1  28
TORSDOF 13
