REMARK  4 active torsions:
REMARK  status: ('A' for Active; 'I' for Inactive)
REMARK    1  A    between atoms: C_2  and  C_3 
REMARK       I    between atoms: C_2  and  N_9 
REMARK    2  A    between atoms: N_9  and  C_10 
REMARK    3  A    between atoms: C_10  and  C_12 
REMARK    4  A    between atoms: C_12  and  O_14 
ROOT
HETATM    1  O   UNK N   1      -0.267   2.097   0.041  0.00  0.00    -0.268 OA
HETATM    2  C   UNK N   1      -0.177   0.876  -0.018  0.00  0.00     0.252 C 
HETATM    3  N   UNK N   1       1.037   0.272  -0.028  0.00  0.00    -0.343 N 
HETATM    4  H   UNK N   1       1.052  -0.709  -0.108  0.00  0.00     0.163 HD
ENDROOT
BRANCH   2   5
HETATM    5  C   UNK N   1      -1.391   0.036  -0.043  0.00  0.00     0.032 A 
HETATM    6  C   UNK N   1      -1.262  -1.362  -0.072  0.00  0.00     0.017 A 
HETATM    7  C   UNK N   1      -2.394  -2.178  -0.064  0.00  0.00     0.001 A 
HETATM    8  C   UNK N   1      -3.666  -1.604  -0.027  0.00  0.00     0.000 A 
HETATM    9  C   UNK N   1      -3.805  -0.212  -0.001  0.00  0.00     0.001 A 
HETATM   10  C   UNK N   1      -2.670   0.607  -0.008  0.00  0.00     0.017 A 
ENDBRANCH   2   5
BRANCH   3  11
HETATM   11  C   UNK N   1       2.312   0.948   0.067  0.00  0.00     0.178 C 
HETATM   12  C   UNK N   1       2.513   1.890  -1.111  0.00  0.00     0.043 C 
BRANCH  11  13
HETATM   13  C   UNK N   1       3.406  -0.086   0.079  0.00  0.00     0.163 C 
HETATM   14  O   UNK N   1       4.571   0.257   0.196  0.00  0.00    -0.648 OA
BRANCH  13  15
HETATM   15  O   UNK N   1       3.107  -1.398  -0.029  0.00  0.00    -0.775 OA
HETATM   16  H   UNK N   1       2.215  -1.674  -0.103  0.00  0.00     0.167 HD
ENDBRANCH  13  15
ENDBRANCH  11  13
ENDBRANCH   3  11
TORSDOF 4
