REMARK  9 active torsions:
REMARK  status: ('A' for Active; 'I' for Inactive)
REMARK    1  A    between atoms: O_2  and  C_3 
REMARK    2  A    between atoms: C_7  and  O_10 
REMARK    3  A    between atoms: O_10  and  C_11 
REMARK    4  A    between atoms: C_11  and  C_12 
REMARK    5  A    between atoms: C_12  and  C_13 
REMARK    6  A    between atoms: C_13  and  C_14 
REMARK    7  A    between atoms: C_14  and  C_15 
REMARK    8  A    between atoms: C_15  and  C_16 
REMARK    9  A    between atoms: C_16  and  N_17 
ROOT
HETATM    1  C   UNK N   1      -0.939   1.276   0.000  0.00  0.00     0.175 C 
ENDROOT
BRANCH   1   2
HETATM    2  O   UNK N   1      -2.255   1.663   0.000  0.00  0.00    -0.349 OA
BRANCH   2   3
HETATM    3  C   UNK N   1      -3.223   0.710   0.000  0.00  0.00     0.090 A 
HETATM    4  C   UNK N   1      -4.577   1.072  -0.000  0.00  0.00     0.070 A 
HETATM    5  C   UNK N   1      -5.566   0.078  -0.000  0.00  0.00     0.063 A 
HETATM    6 Cl   UNK N   1      -5.054   2.760  -0.000  0.00  0.00    -0.081 Cl
HETATM    7  C   UNK N   1      -5.215  -1.279  -0.000  0.00  0.00     0.070 A 
HETATM    8  C   UNK N   1      -3.862  -1.639   0.000  0.00  0.00     0.039 A 
HETATM    9  C   UNK N   1      -2.880  -0.657   0.000  0.00  0.00     0.041 A 
BRANCH   7  10
HETATM   10  O   UNK N   1      -6.191  -2.217  -0.000  0.00  0.00    -0.356 OA
HETATM   11  C   UNK N   1      -5.930  -3.570   0.000  0.00  0.00     0.210 C 
ENDBRANCH   7  10
ENDBRANCH   2   3
ENDBRANCH   1   2
BRANCH   1  12
HETATM   12  C   UNK N   1       0.073   2.389   0.000  0.00  0.00     0.027 C 
BRANCH  12  13
HETATM   13  C   UNK N   1       1.328   1.562  -0.000  0.00  0.00     0.002 C 
BRANCH  13  14
HETATM   14  C   UNK N   1       2.658   2.257   0.000  0.00  0.00     0.002 C 
BRANCH  14  15
HETATM   15  C   UNK N   1       3.585   1.067   0.000  0.00  0.00     0.020 C 
BRANCH  15  16
HETATM   16  C   UNK N   1       5.064   1.379   0.000  0.00  0.00     0.129 C 
BRANCH  16  17
HETATM   17  N   UNK N   1       5.828   0.130   0.000  0.00  0.00    -0.352 N 
HETATM   18  C   UNK N   1       7.166   0.039   0.000  0.00  0.00     0.182 A 
HETATM   19  N   UNK N   1       7.558  -1.252  -0.000  0.00  0.00    -0.361 N 
HETATM   20  C   UNK N   1       6.427  -1.987  -0.000  0.00  0.00     0.106 A 
ATOM     21  HN  UNK N   1       8.516  -1.602  -0.000  1.00  0.00     0.166 HD
HETATM   22  C   UNK N   1       5.349  -1.129   0.000  0.00  0.00     0.108 A 
ENDBRANCH  16  17
ENDBRANCH  15  16
ENDBRANCH  14  15
ENDBRANCH  13  14
ENDBRANCH  12  13
ENDBRANCH   1  12
TORSDOF 9
