REMARK  0 active torsions:
REMARK  status: ('A' for Active; 'I' for Inactive)
REMARK       I    between atoms: C_1  and  N_2 
ROOT
HETATM    1  C   UNK N   1      -3.141   0.809  -0.000  0.00  0.00     0.679 A 
HETATM    2  N   UNK N   1      -4.345   1.538  -0.000  0.00  0.00    -0.234 N 
HETATM    3  N   UNK N   1      -1.954   1.470   0.000  0.00  0.00    -0.191 N 
ATOM      4  HN  UNK N   1      -1.947   2.490   0.000  1.00  0.00     0.184 HD
HETATM    5  C   UNK N   1      -0.779   0.794   0.000  0.00  0.00     0.067 A 
HETATM    6  C   UNK N   1       0.435   1.503   0.000  0.00  0.00     0.063 A 
HETATM    7  C   UNK N   1       1.607   0.759   0.000  0.00  0.00     0.062 A 
HETATM    8  N   UNK N   1       2.867   1.213   0.000  0.00  0.00    -0.344 N 
ATOM      9  HN  UNK N   1       3.188   2.181   0.000  1.00  0.00     0.167 HD
HETATM   10  C   UNK N   1       3.615   0.081  -0.000  0.00  0.00     0.078 A 
HETATM   11  C   UNK N   1       5.100   0.084  -0.000  0.00  0.00     0.089 C 
HETATM   12  N   UNK N   1       2.870  -1.052  -0.000  0.00  0.00    -0.344 N 
HETATM   13  C   UNK N   1       1.608  -0.602  -0.000  0.00  0.00     0.061 A 
HETATM   14  C   UNK N   1       0.435  -1.346   0.000  0.00  0.00     0.051 A 
HETATM   15  C   UNK N   1      -0.782  -0.632   0.000  0.00  0.00     0.062 A 
HETATM   16  C   UNK N   1      -2.017  -1.288   0.000  0.00  0.00     0.272 A 
HETATM   17  O   UNK N   1      -2.076  -2.506   0.000  0.00  0.00    -0.267 OA
HETATM   18  N   UNK N   1      -3.172  -0.551  -0.000  0.00  0.00    -0.156 N 
HETATM   19  H   UNK N   1      -4.325   2.522  -0.000  0.00  0.00     0.174 HD
HETATM   20  H   UNK N   1      -5.208   1.063  -0.000  0.00  0.00     0.174 HD
HETATM   21  H   UNK N   1       3.182  -1.986  -0.000  0.00  0.00     0.167 HD
HETATM   22  H   UNK N   1      -4.041  -1.014  -0.000  0.00  0.00     0.187 HD
ENDROOT
TORSDOF 0
