REMARK  2 active torsions:
REMARK  status: ('A' for Active; 'I' for Inactive)
REMARK       I    between atoms: C_6  and  N_7 
REMARK    1  A    between atoms: N_7  and  C_8 
REMARK    2  A    between atoms: C_8  and  C_9 
REMARK       I    between atoms: C_16  and  N_17 
ROOT
HETATM    1  N   UNK N   1       0.518  -1.475  -0.000  0.00  0.00    -0.190 N 
HETATM    2  C   UNK N   1      -0.753  -1.050  -0.000  0.00  0.00     0.077 A 
HETATM    3  C   UNK N   1      -0.783   0.312   0.000  0.00  0.00     0.078 A 
HETATM    4  N   UNK N   1       0.464   0.793  -0.000  0.00  0.00    -0.190 N 
ATOM      5  HN  UNK N   1       0.765   1.767   0.000  1.00  0.00     0.184 HD
HETATM    6  C   UNK N   1       1.234  -0.323  -0.000  0.00  0.00     0.679 A 
HETATM    7  N   UNK N   1       2.641  -0.292  -0.000  0.00  0.00    -0.221 N 
HETATM    8  C   UNK N   1      -1.967   1.032   0.000  0.00  0.00     0.063 A 
HETATM    9  C   UNK N   1      -3.166   0.303   0.000  0.00  0.00     0.067 A 
HETATM   10  C   UNK N   1      -3.145  -1.123   0.000  0.00  0.00     0.062 A 
HETATM   11  C   UNK N   1      -4.370  -1.798  -0.000  0.00  0.00     0.272 A 
HETATM   12  O   UNK N   1      -4.411  -3.016  -0.000  0.00  0.00    -0.267 OA
HETATM   13  N   UNK N   1      -5.537  -1.079   0.000  0.00  0.00    -0.156 N 
HETATM   14  C   UNK N   1      -5.528   0.282   0.000  0.00  0.00     0.679 A 
HETATM   15  N   UNK N   1      -6.743   0.991   0.000  0.00  0.00    -0.234 N 
HETATM   16  N   UNK N   1      -4.352   0.960   0.000  0.00  0.00    -0.191 N 
ATOM     17  HN  UNK N   1      -4.360   1.980   0.000  1.00  0.00     0.184 HD
HETATM   18  C   UNK N   1      -1.913  -1.816  -0.000  0.00  0.00     0.052 A 
HETATM   19  H   UNK N   1       0.852  -2.401  -0.000  0.00  0.00     0.184 HD
HETATM   20  H   UNK N   1       3.149  -1.135  -0.000  0.00  0.00     0.178 HD
HETATM   21  H   UNK N   1      -6.398  -1.556  -0.000  0.00  0.00     0.187 HD
HETATM   22  H   UNK N   1      -6.739   1.976   0.000  0.00  0.00     0.174 HD
HETATM   23  H   UNK N   1      -7.598   0.503   0.000  0.00  0.00     0.174 HD
ENDROOT
BRANCH   7  24
HETATM   24  C   UNK N   1       3.344   0.964  -0.000  0.00  0.00     0.184 C 
BRANCH  24  25
HETATM   25  C   UNK N   1       4.815   0.740  -0.000  0.00  0.00     0.001 A 
HETATM   26  C   UNK N   1       5.782   1.738  -0.000  0.00  0.00     0.017 A 
HETATM   27  C   UNK N   1       7.108   1.219   0.000  0.00  0.00     0.008 A 
HETATM   28  C   UNK N   1       7.175  -0.183   0.000  0.00  0.00     0.050 A 
HETATM   29  S   UNK N   1       5.606  -0.713   0.000  0.00  0.00    -0.105 SA
ENDBRANCH  24  25
ENDBRANCH   7  24
TORSDOF 2
