REMARK  6 active torsions:
REMARK  status: ('A' for Active; 'I' for Inactive)
REMARK    1  A    between atoms: C_7  and  C_8 
REMARK    2  A    between atoms: C_8  and  O_9 
REMARK    3  A    between atoms: O_9  and  C_10 
REMARK    4  A    between atoms: C_15  and  C_16 
REMARK    5  A    between atoms: N_17  and  C_19 
REMARK    6  A    between atoms: C_19  and  C_21 
REMARK       I    between atoms: C_21  and  N_23 
ROOT
HETATM    1  C   UNK N   1      -0.058   1.227   0.462  0.00  0.00     0.069 A 
HETATM    2  C   UNK N   1       1.201   1.841   0.380  0.00  0.00     0.037 A 
HETATM    3  C   UNK N   1       2.318   1.101  -0.027  0.00  0.00     0.015 A 
HETATM    4  C   UNK N   1      -0.203  -0.110   0.072  0.00  0.00     0.037 A 
HETATM    5  C   UNK N   1       0.900  -0.832  -0.362  0.00  0.00     0.015 A 
HETATM    6  C   UNK N   1       2.159  -0.238  -0.406  0.00  0.00    -0.021 A 
ENDROOT
BRANCH   6   7
HETATM    7  C   UNK N   1       3.286  -1.126  -0.625  0.00  0.00     0.095 C 
HETATM    8  N   UNK N   1       4.070  -1.386   0.360  0.00  0.00    -0.385 N 
ATOM      9  HN  UNK N   1       4.046  -0.786   1.184  1.00  0.00     0.159 HD
BRANCH   8  10
HETATM   10  C   UNK N   1       4.986  -2.508   0.333  0.00  0.00     0.169 C 
HETATM   11  C   UNK N   1       5.992  -2.358  -0.798  0.00  0.00     0.042 C 
BRANCH  10  12
HETATM   12  C   UNK N   1       4.237  -3.826   0.219  0.00  0.00     0.237 C 
HETATM   13  O   UNK N   1       4.858  -4.878   0.234  0.00  0.00    -0.271 OA
HETATM   14  N   UNK N   1       2.890  -3.860   0.124  0.00  0.00    -0.368 N 
HETATM   15  H   UNK N   1       2.378  -3.022   0.054  0.00  0.00     0.159 HD
HETATM   16  H   UNK N   1       2.420  -4.725   0.124  0.00  0.00     0.159 HD
ENDBRANCH  10  12
ENDBRANCH   8  10
ENDBRANCH   6   7
BRANCH   1  17
HETATM   17  O   UNK N   1      -1.104   1.924   0.957  0.00  0.00    -0.347 OA
BRANCH  17  18
HETATM   18  C   UNK N   1      -2.273   1.323   1.381  0.00  0.00     0.214 C 
BRANCH  18  19
HETATM   19  C   UNK N   1      -3.437   1.810   0.594  0.00  0.00    -0.031 A 
HETATM   20  C   UNK N   1      -3.574   3.174   0.321  0.00  0.00     0.051 A 
HETATM   21  C   UNK N   1      -4.674   3.636  -0.401  0.00  0.00     0.117 A 
HETATM   22  F   UNK N   1      -4.789   4.956  -0.678  0.00  0.00    -0.206 F 
HETATM   23  C   UNK N   1      -5.653   2.737  -0.837  0.00  0.00     0.042 A 
HETATM   24  C   UNK N   1      -5.524   1.373  -0.556  0.00  0.00     0.004 A 
HETATM   25  C   UNK N   1      -4.413   0.907   0.156  0.00  0.00     0.009 A 
ENDBRANCH  18  19
ENDBRANCH  17  18
ENDBRANCH   1  17
TORSDOF 6
