REMARK  0 active torsions:
REMARK  status: ('A' for Active; 'I' for Inactive)
ROOT
HETATM    1  N   UNK N   1      -3.237   0.575  -0.070  0.00  0.00    -0.332 N 
HETATM    2  C   UNK N   1      -2.319   1.495   0.393  0.00  0.00     0.291 C 
HETATM    3  O   UNK N   1      -1.370   1.108   1.057  0.00  0.00    -0.264 OA
HETATM    4  C   UNK N   1      -2.417   2.975   0.108  0.00  0.00     0.226 C 
HETATM    5  O   UNK N   1      -3.433   3.435  -0.394  0.00  0.00    -0.286 OA
HETATM    6  C   UNK N   1      -1.221   3.909   0.368  0.00  0.00     0.045 C 
HETATM    7  C   UNK N   1       0.018   3.534  -0.481  0.00  0.00     0.195 C 
HETATM    8  O   UNK N   1       0.341   2.207  -0.317  0.00  0.00    -0.320 OA
HETATM    9  C   UNK N   1       1.531   1.721   0.102  0.00  0.00     0.258 C 
HETATM   10  O   UNK N   1       1.570   0.597   0.576  0.00  0.00    -0.265 OA
HETATM   11  C   UNK N   1       2.799   2.505  -0.027  0.00  0.00     0.111 C 
HETATM   12  C   UNK N   1       3.783   1.748  -0.918  0.00  0.00     0.010 C 
HETATM   13  C   UNK N   1       4.832   0.993  -0.102  0.00  0.00     0.000 C 
HETATM   14  C   UNK N   1       4.304  -0.307   0.495  0.00  0.00     0.000 C 
HETATM   15  C   UNK N   1       4.162  -1.388  -0.562  0.00  0.00     0.000 C 
HETATM   16  C   UNK N   1       3.542  -2.620   0.068  0.00  0.00     0.000 C 
HETATM   17  C   UNK N   1       3.224  -3.646  -1.005  0.00  0.00     0.000 C 
HETATM   18  C   UNK N   1       2.185  -4.634  -0.498  0.00  0.00     0.000 C 
HETATM   19  C   UNK N   1       0.813  -3.979  -0.436  0.00  0.00     0.002 C 
HETATM   20  C   UNK N   1       0.311  -3.969   0.998  0.00  0.00     0.027 C 
HETATM   21  C   UNK N   1       0.031  -2.544   1.447  0.00  0.00     0.178 C 
HETATM   22  O   UNK N   1      -1.276  -2.194   1.176  0.00  0.00    -0.320 OA
HETATM   23  C   UNK N   1      -1.592  -1.339   0.171  0.00  0.00     0.282 C 
HETATM   24  O   UNK N   1      -0.723  -0.955  -0.603  0.00  0.00    -0.263 OA
HETATM   25  C   UNK N   1      -3.022  -0.881  -0.051  0.00  0.00     0.187 C 
HETATM   26  C   UNK N   1      -4.040  -1.501   0.903  0.00  0.00     0.035 C 
HETATM   27  C   UNK N   1      -5.455  -1.116   0.445  0.00  0.00     0.004 C 
HETATM   28  C   UNK N   1      -5.617   0.404   0.298  0.00  0.00     0.020 C 
HETATM   29  C   UNK N   1      -4.519   1.000  -0.590  0.00  0.00     0.127 C 
HETATM   30  C   UNK N   1      -0.857   3.894   1.844  0.00  0.00     0.026 C 
HETATM   31  C   UNK N   1      -1.568   5.348   0.010  0.00  0.00     0.026 C 
ENDROOT
TORSDOF 0
