REMARK  4 active torsions:
REMARK  status: ('A' for Active; 'I' for Inactive)
REMARK    1  A    between atoms: C_3  and  N_7 
REMARK    2  A    between atoms: C_6  and  S_24 
REMARK    3  A    between atoms: C_10  and  C_21 
REMARK       I    between atoms: C_21  and  N_22 
REMARK    4  A    between atoms: S_24  and  N_27 
ROOT
HETATM    1  N   UNK N   1       1.087  -0.505   0.055  0.00  0.00    -0.254 N 
HETATM    2  C   UNK N   1       0.233  -1.564   0.072  0.00  0.00     0.083 A 
HETATM    3  C   UNK N   1       0.970  -2.726   0.053  0.00  0.00     0.027 A 
HETATM    4  C   UNK N   1       2.290  -2.329   0.021  0.00  0.00     0.129 A 
HETATM    5  N   UNK N   1       2.333  -0.972   0.010  0.00  0.00    -0.287 N 
ATOM      6  HN  UNK N   1       3.180  -0.405  -0.026  1.00  0.00     0.188 HD
HETATM    7  C   UNK N   1      -1.167  -1.650   0.054  0.00  0.00     0.038 A 
HETATM    8  C   UNK N   1       0.375  -4.003   0.042  0.00  0.00     0.018 A 
HETATM    9  C   UNK N   1      -1.037  -4.083   0.033  0.00  0.00     0.033 A 
HETATM   10  C   UNK N   1      -1.766  -2.883   0.033  0.00  0.00     0.062 A 
HETATM   11  C   UNK N   1      -2.202  -0.741   0.024  0.00  0.00     0.123 A 
HETATM   12  N   UNK N   1      -3.097  -2.740  -0.002  0.00  0.00    -0.300 N 
HETATM   13  N   UNK N   1      -3.364  -1.438  -0.007  0.00  0.00    -0.310 N 
ATOM     14  HN  UNK N   1      -4.297  -1.027  -0.030  1.00  0.00     0.186 HD
HETATM   15  H   UNK N   1      -3.759  -3.468  -0.021  0.00  0.00     0.187 HD
ENDROOT
BRANCH   1  16
HETATM   16  C   UNK N   1       0.784   0.906   0.035  0.00  0.00     0.057 A 
HETATM   17  C   UNK N   1       1.724   1.818  -0.465  0.00  0.00     0.033 A 
HETATM   18  C   UNK N   1       1.399   3.175  -0.590  0.00  0.00     0.027 A 
HETATM   19  C   UNK N   1       0.142   3.661  -0.188  0.00  0.00     0.079 A 
HETATM   20  C   UNK N   1      -0.773   2.736   0.379  0.00  0.00     0.027 A 
HETATM   21  C   UNK N   1      -0.450   1.387   0.472  0.00  0.00     0.033 A 
BRANCH  19  22
HETATM   22  S   UNK N   1      -0.194   5.463  -0.474  0.00  0.00     0.256 S 
HETATM   23  O   UNK N   1      -1.039   6.472   0.318  0.00  0.00    -0.201 OA
HETATM   24  O   UNK N   1       0.121   5.184   1.004  0.00  0.00    -0.201 OA
BRANCH  22  25
HETATM   25  N   UNK N   1      -1.833   4.829  -0.705  0.00  0.00    -0.324 N 
HETATM   26  H   UNK N   1      -2.621   5.463  -0.838  0.00  0.00     0.169 HD
HETATM   27  H   UNK N   1      -1.990   3.821  -0.705  0.00  0.00     0.169 HD
ENDBRANCH  22  25
ENDBRANCH  19  22
ENDBRANCH   1  16
BRANCH   4  28
HETATM   28  C   UNK N   1       3.479  -3.201  -0.020  0.00  0.00     0.268 C 
HETATM   29  N   UNK N   1       4.713  -2.660  -0.048  0.00  0.00    -0.365 N 
HETATM   30  H   UNK N   1       5.506  -3.242  -0.068  0.00  0.00     0.159 HD
HETATM   31  H   UNK N   1       4.821  -1.681  -0.048  0.00  0.00     0.159 HD
HETATM   32  O   UNK N   1       3.354  -4.415  -0.028  0.00  0.00    -0.266 OA
ENDBRANCH   4  28
TORSDOF 4
