REMARK  4 active torsions:
REMARK  status: ('A' for Active; 'I' for Inactive)
REMARK    1  A    between atoms: C_8  and  C_21 
REMARK    2  A    between atoms: C_11  and  N_12 
REMARK    3  A    between atoms: N_12  and  C_13 
REMARK    4  A    between atoms: C_14  and  C_13 
ROOT
HETATM    1  C   UNK N   1      -2.859   2.457   0.224  0.00  0.00     0.115 A 
HETATM    2  N   UNK N   1      -1.595   2.022   0.120  0.00  0.00    -0.312 N 
HETATM    3  C   UNK N   1      -1.653   0.710  -0.130  0.00  0.00     0.156 A 
HETATM    4  N   UNK N   1      -2.917   0.262  -0.196  0.00  0.00    -0.347 N 
ATOM      5  HN  UNK N   1      -3.230  -0.692  -0.375  1.00  0.00     0.167 HD
HETATM    6  C   UNK N   1      -3.688   1.356   0.027  0.00  0.00     0.107 A 
HETATM    7  C   UNK N   1      -0.432   2.709   0.217  0.00  0.00     0.128 A 
HETATM    8  C   UNK N   1       0.771   1.989   0.062  0.00  0.00     0.063 A 
HETATM    9  N   UNK N   1       0.709   0.645  -0.188  0.00  0.00    -0.338 N 
ATOM     10  HN  UNK N   1       1.580   0.125  -0.296  1.00  0.00     0.167 HD
HETATM   11  C   UNK N   1      -0.469  -0.024  -0.300  0.00  0.00     0.147 A 
ENDROOT
BRANCH  11  12
HETATM   12  N   UNK N   1      -0.448  -1.407  -0.617  0.00  0.00    -0.369 N 
HETATM   13  H   UNK N   1       0.425  -1.857  -0.686  0.00  0.00     0.161 HD
BRANCH  12  14
HETATM   14  C   UNK N   1      -1.638  -2.185  -0.845  0.00  0.00     0.161 C 
BRANCH  14  15
HETATM   15  C   UNK N   1      -1.500  -3.578  -0.323  0.00  0.00    -0.025 A 
HETATM   16  C   UNK N   1      -2.645  -4.359  -0.176  0.00  0.00     0.011 A 
HETATM   17  C   UNK N   1      -2.543  -5.657   0.321  0.00  0.00     0.018 A 
HETATM   18  C   UNK N   1      -1.286  -6.164   0.658  0.00  0.00     0.087 A 
HETATM   19  N   UNK N   1      -0.175  -5.395   0.501  0.00  0.00    -0.375 N 
HETATM   20  C   UNK N   1      -0.255  -4.123   0.024  0.00  0.00     0.096 A 
ATOM     21  HN  UNK N   1       0.738  -5.780   0.745  1.00  0.00     0.164 HD
ENDBRANCH  14  15
ENDBRANCH  12  14
ENDBRANCH  11  12
BRANCH   8  22
HETATM   22  C   UNK N   1       2.090   2.670   0.103  0.00  0.00     0.031 A 
HETATM   23  C   UNK N   1       2.153   4.072   0.176  0.00  0.00     0.017 A 
HETATM   24  C   UNK N   1       3.387   4.729   0.174  0.00  0.00     0.001 A 
HETATM   25  C   UNK N   1       4.571   3.994   0.105  0.00  0.00     0.003 A 
HETATM   26  C   UNK N   1       4.526   2.601   0.043  0.00  0.00     0.043 A 
HETATM   27  C   UNK N   1       3.298   1.935   0.040  0.00  0.00     0.129 A 
HETATM   28  F   UNK N   1       3.296   0.580  -0.019  0.00  0.00    -0.205 F 
ENDBRANCH   8  22
TORSDOF 4
