REMARK  4 active torsions:
REMARK  status: ('A' for Active; 'I' for Inactive)
REMARK    1  A    between atoms: C_8  and  C_12 
REMARK    2  A    between atoms: N_11  and  C_10 
REMARK    3  A    between atoms: N_11  and  C_13 
REMARK    4  A    between atoms: C_14  and  C_13 
ROOT
HETATM    1  C   UNK N   1      -3.269   1.738   0.008  0.00  0.00     0.056 A 
HETATM    2  C   UNK N   1      -1.972   1.298  -0.098  0.00  0.00     0.078 A 
HETATM    3  N   UNK N   1      -1.986   0.027  -0.524  0.00  0.00    -0.239 N 
HETATM    4  N   UNK N   1      -3.235  -0.370  -0.703  0.00  0.00    -0.302 N 
ATOM      5  HN  UNK N   1      -3.530  -1.292  -1.026  1.00  0.00     0.186 HD
HETATM    6  C   UNK N   1      -4.056   0.661  -0.383  0.00  0.00     0.129 A 
HETATM    7  C   UNK N   1      -0.776   1.971   0.159  0.00  0.00     0.045 A 
HETATM    8  C   UNK N   1       0.430   1.262  -0.032  0.00  0.00    -0.020 A 
HETATM    9  C   UNK N   1       0.381  -0.073  -0.475  0.00  0.00     0.062 A 
HETATM   10  C   UNK N   1      -0.844  -0.691  -0.730  0.00  0.00     0.124 A 
HETATM   11 Br   UNK N   1      -3.883   3.456   0.567  0.00  0.00    -0.047 Br
ENDROOT
BRANCH  10  12
HETATM   12  N   UNK N   1      -0.840  -2.029  -1.193  0.00  0.00    -0.370 N 
HETATM   13  H   UNK N   1       0.031  -2.438  -1.398  0.00  0.00     0.161 HD
BRANCH  12  14
HETATM   14  C   UNK N   1      -2.016  -2.836  -1.387  0.00  0.00     0.162 C 
BRANCH  14  15
HETATM   15  C   UNK N   1      -1.993  -3.987  -0.435  0.00  0.00    -0.010 A 
HETATM   16  C   UNK N   1      -0.791  -4.588  -0.047  0.00  0.00     0.099 A 
HETATM   17  N   UNK N   1      -0.802  -5.618   0.838  0.00  0.00    -0.361 N 
HETATM   18  C   UNK N   1      -1.973  -6.081   1.347  0.00  0.00     0.180 A 
ATOM     19  HN  UNK N   1       0.078  -6.048   1.122  1.00  0.00     0.166 HD
HETATM   20  N   UNK N   1      -3.153  -5.515   0.975  0.00  0.00    -0.361 N 
HETATM   21  C   UNK N   1      -3.182  -4.477   0.098  0.00  0.00     0.099 A 
ATOM     22  HN  UNK N   1      -4.027  -5.874   1.359  1.00  0.00     0.166 HD
ENDBRANCH  14  15
ENDBRANCH  12  14
ENDBRANCH  10  12
BRANCH   8  23
HETATM   23  C   UNK N   1       1.749   1.900   0.186  0.00  0.00    -0.026 A 
HETATM   24  C   UNK N   1       1.853   3.277   0.439  0.00  0.00     0.012 A 
HETATM   25  C   UNK N   1       3.109   3.871   0.597  0.00  0.00     0.001 A 
HETATM   26  C   UNK N   1       4.269   3.095   0.515  0.00  0.00     0.000 A 
HETATM   27  C   UNK N   1       4.175   1.723   0.275  0.00  0.00     0.001 A 
HETATM   28  C   UNK N   1       2.923   1.130   0.104  0.00  0.00     0.012 A 
ENDBRANCH   8  23
TORSDOF 4
