REMARK  4 active torsions:
REMARK  status: ('A' for Active; 'I' for Inactive)
REMARK    1  A    between atoms: C_8  and  C_12 
REMARK    2  A    between atoms: N_11  and  C_10 
REMARK    3  A    between atoms: N_11  and  C_13 
REMARK    4  A    between atoms: C_14  and  C_13 
ROOT
HETATM    1  C   UNK N   1      -3.304   1.500  -0.020  0.00  0.00     0.103 A 
HETATM    2  N   UNK N   1      -2.001   1.191   0.018  0.00  0.00    -0.298 N 
HETATM    3  C   UNK N   1      -1.938  -0.138   0.180  0.00  0.00     0.139 A 
HETATM    4  N   UNK N   1      -3.162  -0.701   0.247  0.00  0.00    -0.347 N 
ATOM      5  HN  UNK N   1      -3.383  -1.690   0.366  1.00  0.00     0.167 HD
HETATM    6  C   UNK N   1      -4.034   0.330   0.120  0.00  0.00     0.127 A 
HETATM    7  C   UNK N   1      -0.908   1.992  -0.057  0.00  0.00     0.112 A 
HETATM    8  C   UNK N   1       0.367   1.396   0.020  0.00  0.00    -0.008 A 
HETATM    9  C   UNK N   1       0.452  -0.005   0.171  0.00  0.00     0.046 A 
HETATM   10  C   UNK N   1      -0.700  -0.792   0.268  0.00  0.00     0.074 A 
HETATM   11 Br   UNK N   1      -4.023   3.260  -0.210  0.00  0.00    -0.029 Br
ENDROOT
BRANCH  10  12
HETATM   12  N   UNK N   1      -0.563  -2.182   0.515  0.00  0.00    -0.383 N 
HETATM   13  H   UNK N   1       0.285  -2.622   0.277  0.00  0.00     0.160 HD
BRANCH  12  14
HETATM   14  C   UNK N   1      -1.613  -2.977   1.099  0.00  0.00     0.161 C 
BRANCH  14  15
HETATM   15  C   UNK N   1      -1.870  -4.200   0.298  0.00  0.00    -0.010 A 
HETATM   16  C   UNK N   1      -0.862  -5.137   0.068  0.00  0.00     0.099 A 
HETATM   17  N   UNK N   1      -1.137  -6.264  -0.638  0.00  0.00    -0.361 N 
HETATM   18  C   UNK N   1      -2.389  -6.497  -1.116  0.00  0.00     0.180 A 
ATOM     19  HN  UNK N   1      -0.396  -6.944  -0.812  1.00  0.00     0.166 HD
HETATM   20  N   UNK N   1      -3.384  -5.597  -0.893  0.00  0.00    -0.361 N 
HETATM   21  C   UNK N   1      -3.146  -4.457  -0.196  0.00  0.00     0.099 A 
ATOM     22  HN  UNK N   1      -4.320  -5.781  -1.255  1.00  0.00     0.166 HD
ENDBRANCH  14  15
ENDBRANCH  12  14
ENDBRANCH  10  12
BRANCH   8  23
HETATM   23  C   UNK N   1       1.603   2.212   0.044  0.00  0.00    -0.025 A 
HETATM   24  C   UNK N   1       1.538   3.614   0.070  0.00  0.00     0.012 A 
HETATM   25  C   UNK N   1       2.709   4.373   0.164  0.00  0.00     0.001 A 
HETATM   26  C   UNK N   1       3.952   3.738   0.231  0.00  0.00     0.000 A 
HETATM   27  C   UNK N   1       4.028   2.344   0.198  0.00  0.00     0.001 A 
HETATM   28  C   UNK N   1       2.859   1.585   0.112  0.00  0.00     0.012 A 
ENDBRANCH   8  23
TORSDOF 4
