REMARK  5 active torsions:
REMARK  status: ('A' for Active; 'I' for Inactive)
REMARK    1  A    between atoms: C_1  and  C_27 
REMARK    2  A    between atoms: C_9  and  C_13 
REMARK    3  A    between atoms: N_12  and  C_11 
REMARK    4  A    between atoms: N_12  and  C_14 
REMARK    5  A    between atoms: C_15  and  C_14 
ROOT
HETATM    1  C   UNK N   1      -2.541   1.572  -0.378  0.00  0.00     0.009 A 
HETATM    2  C   UNK N   1      -1.214   1.181  -0.356  0.00  0.00     0.137 A 
HETATM    3  N   UNK N   1      -1.160  -0.154  -0.357  0.00  0.00    -0.224 N 
HETATM    4  N   UNK N   1      -2.381  -0.657  -0.368  0.00  0.00    -0.301 N 
ATOM      5  HN  UNK N   1      -2.622  -1.648  -0.367  1.00  0.00     0.186 HD
HETATM    6  C   UNK N   1      -3.261   0.378  -0.383  0.00  0.00     0.119 A 
HETATM    7  N   UNK N   1      -0.086   1.939  -0.334  0.00  0.00    -0.340 N 
ATOM      8  HN  UNK N   1      -0.146   2.958  -0.318  1.00  0.00     0.167 HD
HETATM    9  C   UNK N   1       1.135   1.313  -0.334  0.00  0.00     0.047 A 
HETATM   10  C   UNK N   1       1.199  -0.097  -0.367  0.00  0.00     0.080 A 
HETATM   11  C   UNK N   1       0.016  -0.831  -0.367  0.00  0.00     0.127 A 
ENDROOT
BRANCH  11  12
HETATM   12  N   UNK N   1       0.062  -2.241  -0.338  0.00  0.00    -0.370 N 
HETATM   13  H   UNK N   1       0.446  -2.741  -1.094  0.00  0.00     0.161 HD
BRANCH  12  14
HETATM   14  C   UNK N   1      -0.456  -2.941   0.807  0.00  0.00     0.161 C 
BRANCH  14  15
HETATM   15  C   UNK N   1      -0.789  -4.354   0.483  0.00  0.00    -0.025 A 
HETATM   16  C   UNK N   1       0.159  -5.221  -0.070  0.00  0.00     0.011 A 
HETATM   17  C   UNK N   1      -0.189  -6.548  -0.328  0.00  0.00     0.018 A 
HETATM   18  C   UNK N   1      -1.477  -6.991  -0.015  0.00  0.00     0.087 A 
HETATM   19  N   UNK N   1      -2.381  -6.132   0.531  0.00  0.00    -0.375 N 
HETATM   20  C   UNK N   1      -2.063  -4.835   0.783  0.00  0.00     0.096 A 
ATOM     21  HN  UNK N   1      -3.317  -6.470   0.757  1.00  0.00     0.164 HD
ENDBRANCH  14  15
ENDBRANCH  12  14
ENDBRANCH  11  12
BRANCH   9  22
HETATM   22  C   UNK N   1       2.389   2.092  -0.253  0.00  0.00    -0.009 A 
HETATM   23  C   UNK N   1       2.358   3.485  -0.091  0.00  0.00     0.013 A 
HETATM   24  C   UNK N   1       3.552   4.208   0.016  0.00  0.00     0.001 A 
HETATM   25  C   UNK N   1       4.782   3.545  -0.043  0.00  0.00     0.000 A 
HETATM   26  C   UNK N   1       4.822   2.160  -0.207  0.00  0.00     0.001 A 
HETATM   27  C   UNK N   1       3.632   1.437  -0.307  0.00  0.00     0.013 A 
ENDBRANCH   9  22
BRANCH   1  28
HETATM   28  C   UNK N   1      -3.169   2.939  -0.419  0.00  0.00     0.024 A 
HETATM   29  C   UNK N   1      -2.797   3.721   0.826  0.00  0.00     0.010 A 
HETATM   30  C   UNK N   1      -2.153   4.064  -0.499  0.00  0.00     0.010 A 
ENDBRANCH   1  28
TORSDOF 5
