REMARK  5 active torsions:
REMARK  status: ('A' for Active; 'I' for Inactive)
REMARK    1  A    between atoms: C_1  and  N_21 
REMARK    2  A    between atoms: C_13  and  N_22 
REMARK    3  A    between atoms: C_15  and  C_16 
REMARK    4  A    between atoms: C_16  and  O_26 
REMARK    5  A    between atoms: C_17  and  O_26 
ROOT
HETATM    1  C   UNK N   1       1.008   0.395   1.493  0.00  0.00     0.144 C 
HETATM    2  C   UNK N   1      -0.249  -0.079   2.205  0.00  0.00     0.145 C 
HETATM    3  C   UNK N   1      -1.292   2.106   1.691  0.00  0.00     0.145 C 
HETATM    4  C   UNK N   1      -0.130   2.509   0.792  0.00  0.00     0.144 C 
HETATM    5  N   UNK N   1       0.697   1.362   0.440  0.00  0.00    -0.367 N 
HETATM    6  N   UNK N   1      -1.374   0.668   1.711  0.00  0.00    -0.358 N 
ENDROOT
BRANCH   5   7
HETATM    7  C   UNK N   1       1.646   1.512  -0.607  0.00  0.00     0.089 C 
HETATM    8  C   UNK N   1       1.623   2.763  -1.437  0.00  0.00     0.155 C 
HETATM    9  S   UNK N   1       2.599   4.029  -0.607  0.00  0.00    -0.120 SA
HETATM   10  C   UNK N   1       4.048   2.980  -0.379  0.00  0.00     0.027 A 
HETATM   11  C   UNK N   1       5.238   3.602  -0.014  0.00  0.00     0.021 A 
HETATM   12  C   UNK N   1       3.990   1.560  -0.424  0.00  0.00     0.050 A 
HETATM   13  C   UNK N   1       6.363   2.840   0.303  0.00  0.00     0.002 A 
HETATM   14  C   UNK N   1       6.309   1.447   0.239  0.00  0.00     0.002 A 
HETATM   15  C   UNK N   1       5.122   0.811  -0.112  0.00  0.00     0.031 A 
HETATM   16  N   UNK N   1       2.753   0.891  -0.440  0.00  0.00    -0.344 N 
ATOM     17  HN  UNK N   1       2.737  -0.121  -0.315  1.00  0.00     0.167 HD
ENDBRANCH   5   7
BRANCH   6  18
HETATM   18  C   UNK N   1      -2.391   0.006   0.989  0.00  0.00     0.147 A 
HETATM   19  N   UNK N   1      -2.445  -1.335   0.852  0.00  0.00    -0.331 N 
HETATM   20  C   UNK N   1      -3.516  -1.722   0.072  0.00  0.00     0.117 A 
ATOM     21  HN  UNK N   1      -1.778  -1.982   1.271  1.00  0.00     0.168 HD
HETATM   22  C   UNK N   1      -4.320  -0.680  -0.429  0.00  0.00     0.089 A 
HETATM   23  S   UNK N   1      -3.624   0.709   0.155  0.00  0.00    -0.063 SA
BRANCH  20  24
HETATM   24  C   UNK N   1      -3.750  -3.140  -0.194  0.00  0.00     0.310 C 
HETATM   25  O   UNK N   1      -4.697  -3.486  -0.897  0.00  0.00    -0.258 OA
BRANCH  24  26
HETATM   26  O   UNK N   1      -2.908  -4.054   0.334  0.00  0.00    -0.317 OA
BRANCH  26  27
HETATM   27  C   UNK N   1      -2.957  -5.391   0.029  0.00  0.00     0.175 C 
HETATM   28  C   UNK N   1      -1.594  -5.829  -0.467  0.00  0.00     0.034 C 
ENDBRANCH  26  27
ENDBRANCH  24  26
ENDBRANCH  20  24
ENDBRANCH   6  18
TORSDOF 5
