REMARK  8 active torsions:
REMARK  status: ('A' for Active; 'I' for Inactive)
REMARK    1  A    between atoms: C_7  and  N_8 
REMARK    2  A    between atoms: N_11  and  C_14 
REMARK    3  A    between atoms: C_14  and  C_15 
REMARK    4  A    between atoms: C_15  and  O_16 
REMARK    5  A    between atoms: C_15  and  C_17 
REMARK    6  A    between atoms: C_17  and  O_18 
REMARK    7  A    between atoms: O_18  and  C_19 
REMARK    8  A    between atoms: C_22  and  C_25 
ROOT
HETATM    1  C   UNK N   1      -0.865  -1.705   0.540  0.00  0.00     0.170 C 
ENDROOT
BRANCH   1   2
HETATM    2  C   UNK N   1       0.628  -1.424   0.786  0.00  0.00     0.306 C 
BRANCH   2   3
HETATM    3  N   UNK N   1       1.562  -1.613  -0.348  0.00  0.00     0.094 N 
HETATM    4  C   UNK N   1       1.064  -2.221  -1.580  0.00  0.00     0.292 C 
HETATM    5  C   UNK N   1       0.637  -3.673  -1.394  0.00  0.00     0.154 C 
HETATM    6  N   UNK N   1       1.409  -4.417  -0.406  0.00  0.00    -0.364 N 
HETATM    7  C   UNK N   1       2.476  -3.812   0.381  0.00  0.00     0.154 C 
HETATM    8  C   UNK N   1       2.757  -2.337   0.067  0.00  0.00     0.292 C 
BRANCH   6   9
HETATM    9  C   UNK N   1       1.055  -5.774  -0.149  0.00  0.00     0.102 A 
HETATM   10  N   UNK N   1       1.832  -6.542   0.671  0.00  0.00    -0.352 N 
HETATM   11  C   UNK N   1       1.525  -7.840   0.940  0.00  0.00     0.089 A 
ATOM     12  HN  UNK N   1       2.665  -6.131   1.093  1.00  0.00     0.166 HD
HETATM   13  C   UNK N   1       0.383  -8.421   0.387  0.00  0.00     0.017 A 
HETATM   14  C   UNK N   1      -0.434  -7.660  -0.447  0.00  0.00     0.005 A 
HETATM   15  C   UNK N   1      -0.097  -6.336  -0.723  0.00  0.00     0.048 A 
ENDBRANCH   6   9
ENDBRANCH   2   3
ENDBRANCH   1   2
BRANCH   1  16
HETATM   16  O   UNK N   1      -1.571  -1.420   1.711  0.00  0.00    -0.392 OA
HETATM   17  H   UNK N   1      -1.645  -0.897   2.525  0.00  0.00     0.210 HD
ENDBRANCH   1  16
BRANCH   1  18
HETATM   18  C   UNK N   1      -1.415  -0.895  -0.641  0.00  0.00     0.209 C 
BRANCH  18  19
HETATM   19  O   UNK N   1      -2.267   0.103  -0.225  0.00  0.00    -0.349 OA
BRANCH  19  20
HETATM   20  C   UNK N   1      -1.907   1.401  -0.126  0.00  0.00     0.068 A 
HETATM   21  C   UNK N   1      -2.841   2.318   0.358  0.00  0.00     0.037 A 
HETATM   22  C   UNK N   1      -2.496   3.660   0.515  0.00  0.00     0.010 A 
HETATM   23  C   UNK N   1      -1.211   4.106   0.182  0.00  0.00    -0.054 A 
HETATM   24  C   UNK N   1      -0.271   3.186  -0.315  0.00  0.00     0.010 A 
HETATM   25  C   UNK N   1      -0.616   1.841  -0.467  0.00  0.00     0.037 A 
BRANCH  23  26
HETATM   26  C   UNK N   1      -0.868   5.557   0.397  0.00  0.00     0.018 C 
HETATM   27  C   UNK N   1      -1.811   6.460  -0.400  0.00  0.00     0.009 C 
HETATM   28  C   UNK N   1      -1.539   7.922  -0.064  0.00  0.00     0.001 C 
HETATM   29  C   UNK N   1      -0.091   8.273  -0.395  0.00  0.00     0.000 C 
HETATM   30  C   UNK N   1       0.864   7.371   0.381  0.00  0.00     0.001 C 
HETATM   31  C   UNK N   1       0.588   5.904   0.060  0.00  0.00     0.009 C 
ENDBRANCH  23  26
ENDBRANCH  19  20
ENDBRANCH  18  19
ENDBRANCH   1  18
TORSDOF 8
