REMARK  7 active torsions:
REMARK  status: ('A' for Active; 'I' for Inactive)
REMARK    1  A    between atoms: C_12  and  O_13 
REMARK    2  A    between atoms: O_13  and  C_25 
REMARK    3  A    between atoms: C_19  and  C_22 
REMARK    4  A    between atoms: C_25  and  C_27 
REMARK    5  A    between atoms: C_27  and  C_28 
REMARK    6  A    between atoms: C_28  and  C_29 
REMARK    7  A    between atoms: C_29  and  O_31 
ROOT
HETATM    1  C   UNK N   1      -2.790   2.226  -0.110  0.00  0.00     0.022 C 
HETATM    2  C   UNK N   1      -4.112   2.855   0.310  0.00  0.00     0.084 C 
HETATM    3  C   UNK N   1      -5.244   2.065  -0.263  0.00  0.00     0.149 C 
HETATM    4  O   UNK N   1      -6.312   2.610  -0.488  0.00  0.00    -0.293 OA
HETATM    5  C   UNK N   1      -5.091   0.619  -0.506  0.00  0.00     0.053 C 
HETATM    6  C   UNK N   1      -3.935  -0.019  -0.252  0.00  0.00    -0.068 C 
HETATM    7  C   UNK N   1      -3.878  -1.500  -0.498  0.00  0.00     0.035 C 
HETATM    8  C   UNK N   1      -2.666  -2.115   0.184  0.00  0.00     0.010 C 
HETATM    9  C   UNK N   1      -1.329  -1.473  -0.227  0.00  0.00    -0.002 C 
HETATM   10  C   UNK N   1      -1.436   0.093  -0.440  0.00  0.00     0.032 C 
HETATM   11  C   UNK N   1      -2.692   0.727   0.249  0.00  0.00    -0.014 C 
HETATM   12  C   UNK N   1      -0.098   0.831  -0.091  0.00  0.00     0.138 C 
HETATM   13  C   UNK N   1       1.077  -0.049  -0.519  0.00  0.00     0.043 C 
HETATM   14  C   UNK N   1       1.151  -1.310   0.368  0.00  0.00    -0.027 C 
HETATM   15  C   UNK N   1      -0.241  -1.822   0.814  0.00  0.00    -0.001 C 
HETATM   16  C   UNK N   1      -0.061  -3.336   0.996  0.00  0.00     0.006 C 
HETATM   17  C   UNK N   1       1.311  -3.698   0.429  0.00  0.00     0.013 C 
HETATM   18  C   UNK N   1       1.743  -2.497  -0.402  0.00  0.00     0.063 C 
HETATM   19  C   UNK N   1       1.982  -1.013   1.624  0.00  0.00     0.016 C 
HETATM   20  C   UNK N   1      -2.605   0.588   1.768  0.00  0.00     0.020 C 
ENDROOT
BRANCH  12  21
HETATM   21  O   UNK N   1      -0.085   2.086  -0.684  0.00  0.00    -0.316 OA
BRANCH  21  22
HETATM   22  C   UNK N   1       0.949   2.970  -0.677  0.00  0.00     0.259 C 
HETATM   23  O   UNK N   1       0.713   4.160  -0.815  0.00  0.00    -0.265 OA
BRANCH  22  24
HETATM   24  C   UNK N   1       2.373   2.513  -0.629  0.00  0.00     0.121 C 
BRANCH  24  25
HETATM   25  C   UNK N   1       3.060   2.894   0.664  0.00  0.00     0.119 C 
BRANCH  25  26
HETATM   26  C   UNK N   1       4.508   2.555   0.546  0.00  0.00     0.139 C 
HETATM   27  O   UNK N   1       4.985   1.668   1.234  0.00  0.00    -0.650 OA
BRANCH  26  28
HETATM   28  O   UNK N   1       5.288   3.219  -0.328  0.00  0.00    -0.776 OA
HETATM   29  H   UNK N   1       5.960   2.981  -0.936  0.00  0.00     0.167 HD
ENDBRANCH  26  28
ENDBRANCH  25  26
ENDBRANCH  24  25
ENDBRANCH  22  24
ENDBRANCH  21  22
ENDBRANCH  12  21
BRANCH  18  30
HETATM   30  C   UNK N   1       3.243  -2.424  -0.617  0.00  0.00     0.128 C 
HETATM   31  O   UNK N   1       3.981  -3.273  -0.141  0.00  0.00    -0.298 OA
HETATM   32  C   UNK N   1       3.839  -1.308  -1.409  0.00  0.00     0.091 C 
ENDBRANCH  18  30
TORSDOF 7
