REMARK  7 active torsions:
REMARK  status: ('A' for Active; 'I' for Inactive)
REMARK    1  A    between atoms: O_1  and  S_2 
REMARK    2  A    between atoms: S_2  and  N_5 
REMARK    3  A    between atoms: N_5  and  C_6 
REMARK       I    between atoms: N_11  and  C_20 
REMARK    4  A    between atoms: C_12  and  C_13 
REMARK       I    between atoms: C_13  and  N_15 
REMARK    5  A    between atoms: C_20  and  O_22 
REMARK    6  A    between atoms: O_22  and  C_23 
REMARK    7  A    between atoms: C_23  and  C_24 
ROOT
HETATM    1  C   UNK N   1      -4.276   0.564  -0.146  0.00  0.00     0.044 A 
HETATM    2  C   UNK N   1      -4.092  -0.661  -0.801  0.00  0.00     0.031 A 
HETATM    3  C   UNK N   1      -3.165   1.272   0.323  0.00  0.00     0.039 A 
HETATM    4  C   UNK N   1      -1.876   0.758   0.154  0.00  0.00    -0.032 A 
HETATM    5  C   UNK N   1      -0.702   1.539   0.682  0.00  0.00     0.168 C 
HETATM    6  N   UNK N   1       0.572   0.923   0.335  0.00  0.00    -0.310 N 
HETATM    7  C   UNK N   1       0.626  -0.543   0.433  0.00  0.00     0.186 C 
HETATM    8  C   UNK N   1      -0.344  -1.126  -0.595  0.00  0.00     0.074 C 
HETATM    9  C   UNK N   1      -1.701  -0.497  -0.473  0.00  0.00    -0.048 A 
HETATM   10  C   UNK N   1      -2.810  -1.190  -0.958  0.00  0.00     0.010 A 
HETATM   11  C   UNK N   1       1.610   1.744  -0.031  0.00  0.00     0.364 C 
HETATM   12  O   UNK N   1       1.444   2.960  -0.035  0.00  0.00    -0.238 OA
ENDROOT
BRANCH   7  13
HETATM   13  C   UNK N   1       1.967  -1.245   0.332  0.00  0.00     0.240 C 
HETATM   14  O   UNK N   1       2.409  -1.819   1.319  0.00  0.00    -0.271 OA
HETATM   15  N   UNK N   1       2.638  -1.308  -0.844  0.00  0.00    -0.364 N 
HETATM   16  C   UNK N   1       3.896  -2.004  -0.957  0.00  0.00     0.149 C 
HETATM   17  H   UNK N   1       2.258  -0.868  -1.639  0.00  0.00     0.161 HD
ENDBRANCH   7  13
BRANCH  11  18
HETATM   18  O   UNK N   1       2.809   1.243  -0.401  0.00  0.00    -0.299 OA
BRANCH  18  19
HETATM   19  C   UNK N   1       3.907   2.043  -0.627  0.00  0.00     0.219 C 
BRANCH  19  20
HETATM   20  C   UNK N   1       5.138   1.366  -0.128  0.00  0.00    -0.034 A 
HETATM   21  C   UNK N   1       6.305   1.390  -0.898  0.00  0.00     0.009 A 
HETATM   22  C   UNK N   1       7.465   0.766  -0.428  0.00  0.00     0.001 A 
HETATM   23  C   UNK N   1       7.456   0.108   0.806  0.00  0.00     0.000 A 
HETATM   24  C   UNK N   1       6.289   0.080   1.575  0.00  0.00     0.001 A 
HETATM   25  C   UNK N   1       5.134   0.715   1.113  0.00  0.00     0.009 A 
ENDBRANCH  19  20
ENDBRANCH  18  19
ENDBRANCH  11  18
BRANCH   1  26
HETATM   26  N   UNK N   1      -5.580   1.081   0.074  0.00  0.00    -0.273 N 
HETATM   27  H   UNK N   1      -5.679   1.897   0.617  0.00  0.00     0.180 HD
BRANCH  26  28
HETATM   28  S   UNK N   1      -7.029   0.324  -0.583  0.00  0.00     0.199 S 
HETATM   29  O   UNK N   1      -6.755  -0.447   0.719  0.00  0.00    -0.585 OA
HETATM   30  O   UNK N   1      -7.428   1.744  -0.155  0.00  0.00    -0.585 OA
BRANCH  28  31
HETATM   31  O   UNK N   1      -8.472   0.262   0.343  0.00  0.00    -0.279 OA
HETATM   32  H   UNK N   1      -8.910   0.952   0.866  0.00  0.00     0.234 HD
ENDBRANCH  28  31
ENDBRANCH  26  28
ENDBRANCH   1  26
TORSDOF 7
