REMARK  9 active torsions:
REMARK  status: ('A' for Active; 'I' for Inactive)
REMARK    1  A    between atoms: C_5  and  C_6 
REMARK    2  A    between atoms: C_6  and  C_7 
REMARK       I    between atoms: C_7  and  N_9 
REMARK    3  A    between atoms: N_9  and  C_10 
REMARK    4  A    between atoms: C_10  and  B_11 
REMARK    5  A    between atoms: C_10  and  C_14 
REMARK    6  A    between atoms: B_11  and  O_12 
REMARK    7  A    between atoms: B_11  and  O_13 
REMARK    8  A    between atoms: C_19  and  C_20 
REMARK    9  A    between atoms: C_20  and  O_22 
ROOT
HETATM    1  C   UNK N   1       0.727   0.391  -0.610  0.00  0.00     0.143 C 
ENDROOT
BRANCH   1   2
HETATM    2  N   UNK N   1      -0.737   0.436  -0.610  0.00  0.00    -0.355 N 
HETATM    3  C   UNK N   1      -1.561   0.889   0.377  0.00  0.00     0.222 C 
HETATM    4  O   UNK N   1      -1.117   1.348   1.419  0.00  0.00    -0.273 OA
HETATM    5  H   UNK N   1      -1.180   0.098  -1.422  0.00  0.00     0.162 HD
BRANCH   3   6
HETATM    6  C   UNK N   1      -3.042   0.752   0.207  0.00  0.00     0.148 C 
BRANCH   6   7
HETATM    7  C   UNK N   1      -3.777   2.050   0.072  0.00  0.00    -0.009 A 
HETATM    8  C   UNK N   1      -5.163   2.172   0.009  0.00  0.00     0.015 A 
HETATM    9  C   UNK N   1      -5.596   3.520  -0.146  0.00  0.00     0.008 A 
HETATM   10  C   UNK N   1      -4.551   4.453  -0.211  0.00  0.00     0.050 A 
HETATM   11  S   UNK N   1      -3.148   3.576  -0.071  0.00  0.00    -0.106 SA
ENDBRANCH   6   7
ENDBRANCH   3   6
ENDBRANCH   1   2
BRANCH   1  12
HETATM   12  B   UNK N   1       1.437   1.559   0.261  0.00  0.00     0.519 B 
BRANCH  12  13
HETATM   13  O   UNK N   1       0.918   2.914   0.090  0.00  0.00    -0.436 OA
HETATM   14  H   UNK N   1       1.524   3.662  -0.023  0.00  0.00     0.184 HD
ENDBRANCH  12  13
BRANCH  12  15
HETATM   15  O   UNK N   1       2.869   1.437   0.524  0.00  0.00    -0.436 OA
HETATM   16  H   UNK N   1       3.274   0.573   0.698  0.00  0.00     0.184 HD
ENDBRANCH  12  15
ENDBRANCH   1  12
BRANCH   1  17
HETATM   17  C   UNK N   1       1.215  -1.009  -0.273  0.00  0.00    -0.038 A 
HETATM   18  C   UNK N   1       2.589  -1.299  -0.286  0.00  0.00     0.026 A 
HETATM   19  C   UNK N   1       3.057  -2.590  -0.006  0.00  0.00     0.038 A 
HETATM   20  C   UNK N   1       2.138  -3.611   0.266  0.00  0.00     0.018 A 
HETATM   21  C   UNK N   1       0.768  -3.339   0.272  0.00  0.00     0.002 A 
HETATM   22  C   UNK N   1       0.308  -2.046   0.009  0.00  0.00     0.008 A 
BRANCH  19  23
HETATM   23  C   UNK N   1       4.506  -2.868   0.016  0.00  0.00     0.176 C 
HETATM   24  O   UNK N   1       5.309  -1.967  -0.174  0.00  0.00    -0.646 OA
BRANCH  23  25
HETATM   25  O   UNK N   1       4.954  -4.115   0.259  0.00  0.00    -0.773 OA
HETATM   26  H   UNK N   1       4.359  -4.819   0.429  0.00  0.00     0.167 HD
ENDBRANCH  23  25
ENDBRANCH  19  23
ENDBRANCH   1  17
TORSDOF 9
