REMARK  4 active torsions:
REMARK  status: ('A' for Active; 'I' for Inactive)
REMARK    1  A    between atoms: N_2  and  C_1 
REMARK    2  A    between atoms: C_18  and  C_5 
REMARK    3  A    between atoms: C_17  and  C_21 
REMARK    4  A    between atoms: N_29  and  O_31 
ROOT
HETATM    1  N   UNK N   1       2.177   0.507   0.232  0.00  0.00    -0.297 N 
HETATM    2  N   UNK N   1       1.545   1.667   0.240  0.00  0.00    -0.297 N 
ATOM      3  HN  UNK N   1       1.986   2.581   0.337  1.00  0.00     0.187 HD
HETATM    4  C   UNK N   1       1.291  -0.501   0.104  0.00  0.00     0.125 A 
HETATM    5  C   UNK N   1       0.018   0.050   0.030  0.00  0.00     0.020 A 
HETATM    6  C   UNK N   1       0.223   1.446   0.100  0.00  0.00     0.071 A 
ENDROOT
BRANCH   5   7
HETATM    7  C   UNK N   1      -1.215  -0.791  -0.041  0.00  0.00    -0.022 A 
HETATM    8  C   UNK N   1      -1.096  -2.200  -0.129  0.00  0.00     0.013 A 
HETATM    9  C   UNK N   1      -2.239  -3.020  -0.137  0.00  0.00     0.015 A 
HETATM   10  C   UNK N   1      -3.489  -2.410  -0.046  0.00  0.00    -0.005 A 
HETATM   11  C   UNK N   1      -3.617  -1.059   0.043  0.00  0.00    -0.045 A 
HETATM   12  C   UNK N   1      -4.795  -3.003  -0.020  0.00  0.00     0.043 A 
HETATM   13  C   UNK N   1      -2.499  -0.233   0.051  0.00  0.00     0.020 A 
HETATM   14  C   UNK N   1      -5.045  -0.619   0.139  0.00  0.00     0.045 A 
HETATM   15  C   UNK N   1      -5.855  -1.946   0.096  0.00  0.00     0.064 A 
HETATM   16  N   UNK N   1      -5.019  -4.268  -0.080  0.00  0.00    -0.273 N 
ATOM     17  HN  UNK N   1      -4.235  -4.916  -0.156  1.00  0.00     0.194 HD
BRANCH  16  18
HETATM   18  O   UNK N   1      -6.249  -4.735  -0.045  0.00  0.00    -0.290 OA
HETATM   19  H   UNK N   1      -6.975  -4.143  -0.020  0.00  0.00     0.244 HD
ENDBRANCH  16  18
ENDBRANCH   5   7
BRANCH   6  20
HETATM   20  C   UNK N   1      -0.719   2.601   0.038  0.00  0.00    -0.004 A 
HETATM   21  C   UNK N   1      -2.079   2.463  -0.242  0.00  0.00     0.030 A 
HETATM   22  C   UNK N   1      -2.903   3.588  -0.314  0.00  0.00     0.088 A 
HETATM   23  N   UNK N   1      -2.381   4.827  -0.118  0.00  0.00    -0.375 N 
HETATM   24  C   UNK N   1      -1.059   5.000   0.146  0.00  0.00     0.088 A 
ATOM     25  HN  UNK N   1      -2.992   5.642  -0.170  1.00  0.00     0.164 HD
HETATM   26  C   UNK N   1      -0.209   3.895   0.224  0.00  0.00     0.030 A 
ENDBRANCH   6  20
BRANCH   1  27
HETATM   27  C   UNK N   1       3.627   0.394   0.410  0.00  0.00     0.110 C 
HETATM   28  C   UNK N   1       4.374   1.359  -0.506  0.00  0.00     0.046 C 
HETATM   29  C   UNK N   1       5.869   1.234  -0.226  0.00  0.00     0.115 C 
HETATM   30  N   UNK N   1       6.315  -0.125  -0.528  0.00  0.00    -0.421 N 
HETATM   31  C   UNK N   1       5.659  -1.058   0.390  0.00  0.00     0.115 C 
HETATM   32  H   UNK N   1       6.977  -0.382  -1.261  0.00  0.00     0.153 HD
HETATM   33  C   UNK N   1       4.143  -1.032   0.191  0.00  0.00     0.046 C 
ENDBRANCH   1  27
TORSDOF 4
