REMARK  9 active torsions:
REMARK  status: ('A' for Active; 'I' for Inactive)
REMARK    1  A    between atoms: C_1  and  C_2 
REMARK    2  A    between atoms: C_1  and  C_5 
REMARK    3  A    between atoms: C_1  and  N_8 
REMARK    4  A    between atoms: C_2  and  O_3 
REMARK    5  A    between atoms: C_5  and  C_6 
REMARK       I    between atoms: N_8  and  C_9 
REMARK    6  A    between atoms: C_9  and  C_11 
REMARK    7  A    between atoms: C_11  and  C_12 
REMARK    8  A    between atoms: C_12  and  C_13 
REMARK    9  A    between atoms: C_13  and  O_14 
ROOT
HETATM    1  N   UNK N   1       0.319  -0.001   0.406  0.00  0.00    -0.347 N 
HETATM    2  C   UNK N   1       1.426   0.630  -0.064  0.00  0.00     0.218 C 
HETATM    3  O   UNK N   1       1.334   1.458  -0.966  0.00  0.00    -0.274 OA
HETATM    4  H   UNK N   1       0.426  -0.643   1.144  0.00  0.00     0.163 HD
ENDROOT
BRANCH   1   5
HETATM    5  C   UNK N   1      -1.017   0.224  -0.126  0.00  0.00     0.182 C 
BRANCH   5   6
HETATM    6  C   UNK N   1      -1.469   1.661   0.072  0.00  0.00     0.163 C 
HETATM    7  O   UNK N   1      -2.545   2.029  -0.376  0.00  0.00    -0.648 OA
BRANCH   6   8
HETATM    8  O   UNK N   1      -0.692   2.547   0.725  0.00  0.00    -0.775 OA
HETATM    9  H   UNK N   1       0.112   2.387   1.179  0.00  0.00     0.167 HD
ENDBRANCH   6   8
ENDBRANCH   5   6
BRANCH   5  10
HETATM   10  C   UNK N   1      -1.982  -0.747   0.556  0.00  0.00     0.035 C 
BRANCH  10  11
HETATM   11  C   UNK N   1      -3.358  -0.744  -0.097  0.00  0.00    -0.002 C 
HETATM   12  C   UNK N   1      -4.194  -1.881   0.451  0.00  0.00     0.005 C 
ENDBRANCH  10  11
ENDBRANCH   5  10
ENDBRANCH   1   5
BRANCH   2  13
HETATM   13  C   UNK N   1       2.771   0.356   0.519  0.00  0.00     0.113 C 
BRANCH  13  14
HETATM   14  C   UNK N   1       3.284  -1.022   0.125  0.00  0.00     0.119 C 
BRANCH  14  15
HETATM   15  C   UNK N   1       4.784  -1.043   0.025  0.00  0.00     0.139 C 
HETATM   16  O   UNK N   1       5.360  -2.102  -0.162  0.00  0.00    -0.650 OA
BRANCH  15  17
HETATM   17  O   UNK N   1       5.502   0.094   0.126  0.00  0.00    -0.776 OA
HETATM   18  H   UNK N   1       6.436   0.058   0.197  0.00  0.00     0.167 HD
ENDBRANCH  15  17
ENDBRANCH  14  15
ENDBRANCH  13  14
ENDBRANCH   2  13
TORSDOF 9
