REMARK  13 active torsions:
REMARK  status: ('A' for Active; 'I' for Inactive)
REMARK    1  A    between atoms: C_1  and  S_15 
REMARK    2  A    between atoms: C_2  and  O_16 
REMARK    3  A    between atoms: C_3  and  O_17 
REMARK    4  A    between atoms: C_4  and  O_18 
REMARK    5  A    between atoms: C_5  and  C_6 
REMARK    6  A    between atoms: C_6  and  O_20 
REMARK    7  A    between atoms: C_7  and  C_8 
REMARK    8  A    between atoms: C_7  and  S_15 
REMARK    9  A    between atoms: C_8  and  C_9 
REMARK   10  A    between atoms: C_9  and  C_10 
REMARK   11  A    between atoms: C_10  and  C_11 
REMARK   12  A    between atoms: C_11  and  C_12 
REMARK   13  A    between atoms: C_12  and  C_13 
ROOT
HETATM    1  C   UNK N   1       1.787   0.360   0.439  0.00  0.00     0.214 C 
HETATM    2  C   UNK N   1       3.054   1.256   0.416  0.00  0.00     0.188 C 
HETATM    3  C   UNK N   1       4.337   0.417   0.193  0.00  0.00     0.181 C 
HETATM    4  C   UNK N   1       3.968  -0.817  -0.627  0.00  0.00     0.180 C 
HETATM    5  C   UNK N   1       2.973  -1.670   0.218  0.00  0.00     0.178 C 
HETATM    6  O   UNK N   1       2.049  -0.903   1.008  0.00  0.00    -0.363 OA
ENDROOT
BRANCH   1   7
HETATM    7  S   UNK N   1       0.461   1.204   1.376  0.00  0.00    -0.135 SA
BRANCH   7   8
HETATM    8  C   UNK N   1      -0.892   0.341   0.528  0.00  0.00     0.076 C 
BRANCH   8   9
HETATM    9  C   UNK N   1      -1.386   1.209  -0.610  0.00  0.00     0.010 C 
BRANCH   9  10
HETATM   10  C   UNK N   1      -2.078   0.349  -1.649  0.00  0.00     0.001 C 
BRANCH  10  11
HETATM   11  C   UNK N   1      -3.586   0.524  -1.592  0.00  0.00     0.000 C 
BRANCH  11  12
HETATM   12  C   UNK N   1      -4.186  -0.292  -0.462  0.00  0.00     0.000 C 
BRANCH  12  13
HETATM   13  C   UNK N   1      -4.655   0.635   0.644  0.00  0.00    -0.000 C 
BRANCH  13  14
HETATM   14  C   UNK N   1      -6.121   0.387   0.955  0.00  0.00    -0.005 C 
HETATM   15  C   UNK N   1      -7.000   0.987  -0.127  0.00  0.00     0.005 C 
ENDBRANCH  13  14
ENDBRANCH  12  13
ENDBRANCH  11  12
ENDBRANCH  10  11
ENDBRANCH   9  10
ENDBRANCH   8   9
ENDBRANCH   7   8
ENDBRANCH   1   7
BRANCH   2  16
HETATM   16  O   UNK N   1       2.905   2.189  -0.614  0.00  0.00    -0.389 OA
HETATM   17  H   UNK N   1       3.414   2.602  -1.329  0.00  0.00     0.210 HD
ENDBRANCH   2  16
BRANCH   3  18
HETATM   18  O   UNK N   1       4.851   0.007   1.430  0.00  0.00    -0.390 OA
HETATM   19  H   UNK N   1       4.783  -0.444   2.286  0.00  0.00     0.210 HD
ENDBRANCH   3  18
BRANCH   5  20
HETATM   20  C   UNK N   1       2.238  -2.666  -0.671  0.00  0.00     0.198 C 
BRANCH  20  21
HETATM   21  O   UNK N   1       1.407  -3.485   0.093  0.00  0.00    -0.398 OA
HETATM   22  H   UNK N   1       0.625  -3.269   0.625  0.00  0.00     0.209 HD
ENDBRANCH  20  21
ENDBRANCH   5  20
BRANCH   4  23
HETATM   23  O   UNK N   1       5.105  -1.571  -0.942  0.00  0.00    -0.390 OA
HETATM   24  H   UNK N   1       5.047  -2.514  -1.161  0.00  0.00     0.210 HD
ENDBRANCH   4  23
TORSDOF 13
