REMARK  6 active torsions:
REMARK  status: ('A' for Active; 'I' for Inactive)
REMARK    1  A    between atoms: C_4  and  C_5 
REMARK    2  A    between atoms: C_5  and  O_7 
REMARK    3  A    between atoms: S_11  and  O_24 
REMARK    4  A    between atoms: C_13  and  N_14 
REMARK       I    between atoms: N_14  and  C_15 
REMARK    5  A    between atoms: C_15  and  C_17 
REMARK    6  A    between atoms: C_17  and  C_18 
ROOT
HETATM    1  O   UNK N   1      -0.515   1.538   1.243  0.00  0.00    -0.277 OA
HETATM    2  C   UNK N   1      -0.202   0.562   0.577  0.00  0.00     0.227 A 
HETATM    3  N   UNK N   1       0.726   0.463  -0.356  0.00  0.00    -0.219 NA
HETATM    4  C   UNK N   1       1.942   1.298  -0.516  0.00  0.00     0.183 C 
HETATM    5  C   UNK N   1       3.177   0.300  -0.560  0.00  0.00     0.031 C 
HETATM    6  C   UNK N   1       4.464   0.741   0.126  0.00  0.00     0.029 C 
HETATM    7  C   UNK N   1       3.528  -0.008  -2.007  0.00  0.00     0.029 C 
HETATM    8  S   UNK N   1       2.478  -1.273   0.129  0.00  0.00    -0.127 S 
HETATM    9  C   UNK N   1       0.748  -0.976  -0.291  0.00  0.00     0.164 A 
HETATM   10  C   UNK N   1      -0.371  -0.882   0.863  0.00  0.00     0.199 A 
HETATM   11  H   UNK N   1       3.435  -1.347   1.209  0.00  0.00     0.111 HD
ENDROOT
BRANCH  10  12
HETATM   12  N   UNK N   1      -1.669  -1.435   0.502  0.00  0.00    -0.346 N 
HETATM   13  C   UNK N   1      -2.316  -1.259  -0.684  0.00  0.00     0.222 C 
HETATM   14  O   UNK N   1      -1.856  -0.543  -1.559  0.00  0.00    -0.273 OA
HETATM   15  H   UNK N   1      -2.122  -1.987   1.179  0.00  0.00     0.163 HD
BRANCH  13  16
HETATM   16  C   UNK N   1      -3.584  -2.010  -0.947  0.00  0.00     0.141 C 
BRANCH  16  17
HETATM   17  C   UNK N   1      -4.791  -1.478  -0.235  0.00  0.00    -0.050 A 
HETATM   18  C   UNK N   1      -5.962  -2.244  -0.242  0.00  0.00     0.007 A 
HETATM   19  C   UNK N   1      -7.116  -1.772   0.389  0.00  0.00     0.001 A 
HETATM   20  C   UNK N   1      -7.108  -0.525   1.020  0.00  0.00     0.000 A 
HETATM   21  C   UNK N   1      -5.944   0.249   1.025  0.00  0.00     0.001 A 
HETATM   22  C   UNK N   1      -4.787  -0.225   0.399  0.00  0.00     0.007 A 
ENDBRANCH  16  17
ENDBRANCH  13  16
ENDBRANCH  10  12
BRANCH   8  23
HETATM   23  O   UNK N   1       3.085  -2.776  -0.495  0.00  0.00    -0.351 OA
HETATM   24  H   UNK N   1       2.527  -3.489  -0.843  0.00  0.00     0.225 HD
ENDBRANCH   8  23
BRANCH   4  25
HETATM   25  C   UNK N   1       2.014   2.439   0.502  0.00  0.00     0.160 C 
HETATM   26  O   UNK N   1       2.901   2.506   1.336  0.00  0.00    -0.649 OA
BRANCH  25  27
HETATM   27  O   UNK N   1       1.105   3.433   0.438  0.00  0.00    -0.775 OA
HETATM   28  H   UNK N   1       1.387   4.325   0.394  0.00  0.00     0.167 HD
ENDBRANCH  25  27
ENDBRANCH   4  25
TORSDOF 6
