REMARK  5 active torsions:
REMARK  status: ('A' for Active; 'I' for Inactive)
REMARK    1  A    between atoms: C_7  and  S_8 
REMARK    2  A    between atoms: S_8  and  N_11 
REMARK    3  A    between atoms: N_11  and  C_12 
REMARK    4  A    between atoms: C_14  and  C_15 
REMARK    5  A    between atoms: N_22  and  C_23 
ROOT
HETATM    1  C   UNK N   1      -0.623  -0.237  -0.528  0.00  0.00     0.139 A 
HETATM    2  C   UNK N   1       0.535  -0.971  -0.464  0.00  0.00     0.083 A 
HETATM    3  C   UNK N   1       0.088  -2.256  -0.213  0.00  0.00     0.069 A 
HETATM    4  N   UNK N   1      -1.264  -2.269  -0.109  0.00  0.00    -0.291 N 
ATOM      5  HN  UNK N   1      -1.847  -3.084   0.082  1.00  0.00     0.187 HD
HETATM    6  N   UNK N   1      -1.690  -1.026  -0.303  0.00  0.00    -0.239 N 
ENDROOT
BRANCH   1   7
HETATM    7  N   UNK N   1      -0.699   1.160  -0.682  0.00  0.00    -0.264 N 
HETATM    8  H   UNK N   1      -1.204   1.546  -1.435  0.00  0.00     0.180 HD
BRANCH   7   9
HETATM    9  S   UNK N   1       0.099   2.208   0.459  0.00  0.00     0.264 S 
HETATM   10  O   UNK N   1      -0.858   3.401   0.604  0.00  0.00    -0.200 OA
HETATM   11  O   UNK N   1      -0.054   1.509   1.819  0.00  0.00    -0.200 OA
BRANCH   9  12
HETATM   12  C   UNK N   1       1.767   2.682   0.084  0.00  0.00     0.082 A 
HETATM   13  C   UNK N   1       2.070   4.023  -0.156  0.00  0.00     0.067 A 
HETATM   14  C   UNK N   1       3.380   4.397  -0.456  0.00  0.00     0.117 A 
HETATM   15  F   UNK N   1       3.672   5.698  -0.688  0.00  0.00    -0.206 F 
HETATM   16  C   UNK N   1       4.387   3.428  -0.517  0.00  0.00     0.042 A 
HETATM   17  C   UNK N   1       4.082   2.084  -0.278  0.00  0.00     0.005 A 
HETATM   18  C   UNK N   1       2.770   1.711   0.023  0.00  0.00     0.025 A 
ENDBRANCH   9  12
ENDBRANCH   7   9
ENDBRANCH   1   7
BRANCH   6  19
HETATM   19  C   UNK N   1      -3.059  -0.577  -0.187  0.00  0.00     0.058 A 
HETATM   20  C   UNK N   1      -4.068  -1.437   0.271  0.00  0.00     0.034 A 
HETATM   21  C   UNK N   1      -5.373  -0.953   0.456  0.00  0.00     0.044 A 
HETATM   22  C   UNK N   1      -5.675   0.387   0.181  0.00  0.00     0.116 A 
HETATM   23  F   UNK N   1      -6.929   0.862   0.375  0.00  0.00    -0.206 F 
HETATM   24  C   UNK N   1      -4.683   1.241  -0.288  0.00  0.00     0.044 A 
HETATM   25  C   UNK N   1      -3.389   0.763  -0.465  0.00  0.00     0.034 A 
ENDBRANCH   6  19
BRANCH   3  26
HETATM   26  C   UNK N   1       0.975  -3.419  -0.072  0.00  0.00     0.033 A 
HETATM   27  C   UNK N   1       2.369  -3.383  -0.149  0.00  0.00     0.021 A 
HETATM   28  C   UNK N   1       2.968  -4.664   0.014  0.00  0.00     0.008 A 
HETATM   29  C   UNK N   1       2.046  -5.702   0.215  0.00  0.00     0.050 A 
HETATM   30  S   UNK N   1       0.542  -4.992   0.186  0.00  0.00    -0.100 SA
ENDBRANCH   3  26
TORSDOF 5
