REMARK  6 active torsions:
REMARK  status: ('A' for Active; 'I' for Inactive)
REMARK    1  A    between atoms: C_2  and  N_27 
REMARK    2  A    between atoms: C_2  and  C_12 
REMARK    3  A    between atoms: C_5  and  C_6 
REMARK    4  A    between atoms: C_5  and  O_14 
REMARK    5  A    between atoms: C_11  and  C_15 
REMARK    6  A    between atoms: O_14  and  C_15 
ROOT
HETATM    1  N   UNK N   1       0.101   1.111   0.017  0.00  0.00    -0.267 N 
HETATM    2  C   UNK N   1       1.085   0.150  -0.034  0.00  0.00     0.336 A 
HETATM    3  C   UNK N   1      -1.259   0.923  -0.175  0.00  0.00     0.127 A 
HETATM    4  C   UNK N   1      -2.019   2.110  -0.016  0.00  0.00     0.098 A 
HETATM    5  C   UNK N   1       0.416   2.396   0.301  0.00  0.00     0.090 A 
HETATM    6  S   UNK N   1      -0.938   3.313   0.344  0.00  0.00    -0.064 SA
HETATM    7  C   UNK N   1       1.702   2.803   0.545  0.00  0.00     0.112 A 
HETATM    8  C   UNK N   1       2.706   1.848   0.501  0.00  0.00     0.254 A 
HETATM    9  O   UNK N   1       3.841   2.210   0.749  0.00  0.00    -0.268 OA
HETATM   10  O   UNK N   1       0.792  -1.013  -0.273  0.00  0.00    -0.246 OA
HETATM   11  N   UNK N   1       2.409   0.509   0.204  0.00  0.00    -0.262 N 
ENDROOT
BRANCH   4  12
HETATM   12  C   UNK N   1      -3.487   2.316  -0.070  0.00  0.00     0.302 C 
HETATM   13  O   UNK N   1      -3.938   3.382   0.318  0.00  0.00    -0.259 OA
BRANCH  12  14
HETATM   14  O   UNK N   1      -4.355   1.374  -0.513  0.00  0.00    -0.312 OA
BRANCH  14  15
HETATM   15  C   UNK N   1      -4.001   0.314  -1.313  0.00  0.00     0.217 C 
BRANCH  15  16
HETATM   16  C   UNK N   1      -4.180  -0.970  -0.587  0.00  0.00    -0.034 A 
HETATM   17  C   UNK N   1      -3.103  -1.855  -0.493  0.00  0.00     0.009 A 
HETATM   18  C   UNK N   1      -3.254  -3.071   0.177  0.00  0.00     0.001 A 
HETATM   19  C   UNK N   1      -4.483  -3.401   0.756  0.00  0.00     0.000 A 
HETATM   20  C   UNK N   1      -5.562  -2.517   0.662  0.00  0.00     0.001 A 
HETATM   21  C   UNK N   1      -5.413  -1.303  -0.014  0.00  0.00     0.009 A 
ENDBRANCH  15  16
ENDBRANCH  14  15
ENDBRANCH  12  14
ENDBRANCH   4  12
BRANCH  11  22
HETATM   22  C   UNK N   1       3.441  -0.558   0.171  0.00  0.00     0.175 C 
BRANCH  22  23
HETATM   23  C   UNK N   1       4.843  -0.066  -0.033  0.00  0.00    -0.040 A 
HETATM   24  C   UNK N   1       5.751  -0.098   1.033  0.00  0.00     0.009 A 
HETATM   25  C   UNK N   1       7.020   0.473   0.888  0.00  0.00     0.001 A 
HETATM   26  C   UNK N   1       7.380   1.080  -0.319  0.00  0.00     0.000 A 
HETATM   27  C   UNK N   1       6.478   1.103  -1.388  0.00  0.00     0.001 A 
HETATM   28  C   UNK N   1       5.209   0.535  -1.244  0.00  0.00     0.009 A 
ENDBRANCH  22  23
ENDBRANCH  11  22
TORSDOF 6
