REMARK  8 active torsions:
REMARK  status: ('A' for Active; 'I' for Inactive)
REMARK    1  A    between atoms: C_6  and  C_7 
REMARK    2  A    between atoms: C_8  and  C_9 
REMARK    3  A    between atoms: C_12  and  N_15 
REMARK       I    between atoms: N_15  and  C_16 
REMARK    4  A    between atoms: C_16  and  C_17 
REMARK    5  A    between atoms: C_17  and  C_18 
REMARK    6  A    between atoms: C_18  and  C_19 
REMARK    7  A    between atoms: C_19  and  C_20 
REMARK    8  A    between atoms: C_20  and  O_23 
ROOT
HETATM    1  C   UNK N   1      -2.001   0.560   0.181  0.00  0.00    -0.036 A 
HETATM    2  C   UNK N   1      -2.021   1.955   0.321  0.00  0.00     0.013 A 
HETATM    3  C   UNK N   1      -0.820   2.685   0.257  0.00  0.00     0.030 A 
HETATM    4  C   UNK N   1       0.401   2.023   0.051  0.00  0.00     0.034 A 
HETATM    5  C   UNK N   1       0.401   0.631  -0.095  0.00  0.00     0.030 A 
HETATM    6  C   UNK N   1      -0.779  -0.090  -0.028  0.00  0.00     0.013 A 
ENDROOT
BRANCH   4   7
HETATM    7  N   UNK N   1       1.615   2.772  -0.026  0.00  0.00    -0.327 N 
HETATM    8  C   UNK N   1       2.858   2.231  -0.182  0.00  0.00     0.222 C 
HETATM    9  O   UNK N   1       3.012   1.016  -0.234  0.00  0.00    -0.273 OA
HETATM   10  H   UNK N   1       1.550   3.752   0.039  0.00  0.00     0.169 HD
BRANCH   8  11
HETATM   11  C   UNK N   1       4.051   3.137  -0.304  0.00  0.00     0.103 C 
BRANCH  11  12
HETATM   12  C   UNK N   1       5.342   2.373  -0.603  0.00  0.00     0.019 C 
BRANCH  12  13
HETATM   13  C   UNK N   1       5.840   1.642   0.635  0.00  0.00     0.110 C 
BRANCH  13  14
HETATM   14  C   UNK N   1       6.666   0.456   0.252  0.00  0.00     0.139 C 
HETATM   15  O   UNK N   1       7.692   0.602  -0.391  0.00  0.00    -0.650 OA
BRANCH  14  16
HETATM   16  O   UNK N   1       6.283  -0.776   0.634  0.00  0.00    -0.776 OA
HETATM   17  H   UNK N   1       5.406  -0.974   0.899  0.00  0.00     0.167 HD
ENDBRANCH  14  16
ENDBRANCH  13  14
ENDBRANCH  12  13
ENDBRANCH  11  12
ENDBRANCH   8  11
ENDBRANCH   4   7
BRANCH   1  18
HETATM   18  C   UNK N   1      -3.243  -0.235   0.244  0.00  0.00     0.012 C 
HETATM   19  C   UNK N   1      -3.157  -1.573   0.247  0.00  0.00     0.012 C 
BRANCH  19  20
HETATM   20  C   UNK N   1      -4.288  -2.503   0.236  0.00  0.00    -0.036 A 
HETATM   21  C   UNK N   1      -4.015  -3.871   0.349  0.00  0.00     0.011 A 
HETATM   22  C   UNK N   1      -5.055  -4.802   0.323  0.00  0.00     0.001 A 
HETATM   23  C   UNK N   1      -6.374  -4.368   0.176  0.00  0.00     0.000 A 
HETATM   24  C   UNK N   1      -6.653  -3.002   0.059  0.00  0.00     0.001 A 
HETATM   25  C   UNK N   1      -5.612  -2.067   0.090  0.00  0.00     0.011 A 
ENDBRANCH  19  20
ENDBRANCH   1  18
TORSDOF 8
