REMARK  7 active torsions:
REMARK  status: ('A' for Active; 'I' for Inactive)
REMARK    1  A    between atoms: C_1  and  C_11 
REMARK    2  A    between atoms: C_11  and  C_12 
REMARK    3  A    between atoms: C_12  and  N_15 
REMARK    4  A    between atoms: C_12  and  B_20 
REMARK       I    between atoms: C_14  and  N_15 
REMARK    5  A    between atoms: O_17  and  B_20 
REMARK    6  A    between atoms: O_18  and  B_20 
REMARK    7  A    between atoms: O_19  and  B_20 
ROOT
HETATM    1  C   UNK N   1      -0.720   1.363   0.114  0.00  0.00     0.153 C 
ENDROOT
BRANCH   1   2
HETATM    2  C   UNK N   1      -0.356   0.167   1.013  0.00  0.00     0.063 C 
BRANCH   2   3
HETATM    3  C   UNK N   1       0.683  -0.810   0.506  0.00  0.00    -0.046 A 
HETATM    4  C   UNK N   1       0.358  -2.169   0.291  0.00  0.00    -0.020 A 
HETATM    5  C   UNK N   1       1.369  -3.078  -0.113  0.00  0.00    -0.025 A 
HETATM    6  C   UNK N   1      -0.949  -2.645   0.482  0.00  0.00     0.013 A 
HETATM    7  C   UNK N   1       2.677  -2.632  -0.301  0.00  0.00     0.012 A 
HETATM    8  C   UNK N   1       1.062  -4.426  -0.316  0.00  0.00     0.012 A 
HETATM    9  C   UNK N   1       2.994  -1.291  -0.091  0.00  0.00     0.001 A 
HETATM   10  C   UNK N   1       2.006  -0.392   0.314  0.00  0.00     0.008 A 
HETATM   11  C   UNK N   1      -0.244  -4.884  -0.123  0.00  0.00     0.001 A 
HETATM   12  C   UNK N   1      -1.247  -3.995   0.273  0.00  0.00     0.001 A 
ENDBRANCH   2   3
ENDBRANCH   1   2
BRANCH   1  13
HETATM   13  N   UNK N   1      -1.998   1.862   0.596  0.00  0.00    -0.356 N 
HETATM   14  C   UNK N   1      -2.758   2.789  -0.045  0.00  0.00     0.213 C 
HETATM   15  C   UNK N   1      -4.034   3.245   0.572  0.00  0.00     0.117 C 
HETATM   16  O   UNK N   1      -2.406   3.256  -1.118  0.00  0.00    -0.274 OA
HETATM   17  H   UNK N   1      -2.337   1.503   1.448  0.00  0.00     0.162 HD
ENDBRANCH   1  13
BRANCH   1  18
HETATM   18  B   UNK N   1       0.420   2.560   0.107  0.00  0.00     0.627 B 
BRANCH  18  19
HETATM   19  O   UNK N   1       0.927   2.731  -1.264  0.00  0.00    -0.408 OA
HETATM   20  H   UNK N   1       1.191   2.498  -2.168  0.00  0.00     0.188 HD
ENDBRANCH  18  19
BRANCH  18  21
HETATM   21  O   UNK N   1       1.549   2.245   0.994  0.00  0.00    -0.408 OA
HETATM   22  H   UNK N   1       1.742   1.496   1.579  0.00  0.00     0.188 HD
ENDBRANCH  18  21
BRANCH  18  23
HETATM   23  O   UNK N   1      -0.148   3.842   0.556  0.00  0.00    -0.408 OA
HETATM   24  H   UNK N   1       0.397   4.588   0.853  0.00  0.00     0.188 HD
ENDBRANCH  18  23
ENDBRANCH   1  18
TORSDOF 7
