REMARK  7 active torsions:
REMARK  status: ('A' for Active; 'I' for Inactive)
REMARK    1  A    between atoms: C_28  and  C_12 
REMARK    2  A    between atoms: C_17  and  C_13 
REMARK    3  A    between atoms: C_15  and  O_26 
REMARK    4  A    between atoms: C_16  and  C_27 
REMARK    5  A    between atoms: O_26  and  C_16 
REMARK    6  A    between atoms: C_27  and  C_28 
REMARK    7  A    between atoms: C_27  and  N_29 
ROOT
HETATM    1  N   UNK N   1       2.775   2.904   0.127  0.00  0.00    -0.372 N 
ATOM      2  HN  UNK N   1       3.614   3.435  -0.106  1.00  0.00     0.164 HD
HETATM    3  C   UNK N   1       0.402   2.815   0.426  0.00  0.00    -0.008 A 
HETATM    4  C   UNK N   1       0.526   1.475   0.790  0.00  0.00     0.051 A 
HETATM    5  C   UNK N   1       1.753   0.848   0.812  0.00  0.00     0.085 A 
HETATM    6  C   UNK N   1       2.893   1.583   0.456  0.00  0.00     0.124 A 
HETATM    7  C   UNK N   1       1.562   3.531   0.104  0.00  0.00     0.100 A 
ENDROOT
BRANCH   5   8
HETATM    8  O   UNK N   1       1.784  -0.463   1.144  0.00  0.00    -0.348 OA
BRANCH   8   9
HETATM    9  C   UNK N   1       2.751  -1.356   0.741  0.00  0.00     0.200 C 
BRANCH   9  10
HETATM   10  C   UNK N   1       2.626  -1.622  -0.762  0.00  0.00     0.102 C 
BRANCH  10  11
HETATM   11  C   UNK N   1       3.483  -2.814  -1.192  0.00  0.00     0.065 C 
BRANCH  11  12
HETATM   12  C   UNK N   1       3.078  -4.134  -0.598  0.00  0.00    -0.056 A 
HETATM   13  C   UNK N   1       3.993  -4.846   0.185  0.00  0.00     0.007 A 
HETATM   14  C   UNK N   1       3.646  -6.097   0.708  0.00  0.00     0.001 A 
HETATM   15  C   UNK N   1       2.384  -6.640   0.446  0.00  0.00     0.000 A 
HETATM   16  C   UNK N   1       1.469  -5.934  -0.339  0.00  0.00     0.001 A 
HETATM   17  C   UNK N   1       1.817  -4.687  -0.866  0.00  0.00     0.007 A 
ENDBRANCH  11  12
ENDBRANCH  10  11
BRANCH  10  18
HETATM   18  N   UNK N   1       1.234  -1.837  -1.137  0.00  0.00    -0.424 N 
HETATM   19  H   UNK N   1       0.617  -1.068  -1.399  0.00  0.00     0.150 HD
HETATM   20  H   UNK N   1       0.865  -2.788  -1.137  0.00  0.00     0.150 HD
ENDBRANCH  10  18
ENDBRANCH   9  10
ENDBRANCH   8   9
ENDBRANCH   5   8
BRANCH   3  21
HETATM   21  C   UNK N   1      -0.957   3.369   0.274  0.00  0.00    -0.024 A 
HETATM   22  C   UNK N   1      -1.210   4.752   0.053  0.00  0.00     0.014 A 
HETATM   23  C   UNK N   1      -2.530   5.206  -0.179  0.00  0.00     0.033 A 
HETATM   24  C   UNK N   1      -3.546   4.247  -0.218  0.00  0.00     0.060 A 
HETATM   25  N   UNK N   1      -4.855   4.420  -0.470  0.00  0.00    -0.300 N 
HETATM   26  C   UNK N   1      -3.291   2.929  -0.019  0.00  0.00     0.016 A 
HETATM   27  N   UNK N   1      -5.436   3.217  -0.442  0.00  0.00    -0.304 N 
HETATM   28  H   UNK N   1      -5.304   5.279  -0.643  0.00  0.00     0.187 HD
HETATM   29  C   UNK N   1      -4.490   2.293  -0.168  0.00  0.00     0.034 A 
ATOM     30  HN  UNK N   1      -6.426   3.029  -0.601  1.00  0.00     0.186 HD
HETATM   31  C   UNK N   1      -4.731   0.824  -0.083  0.00  0.00     0.070 C 
HETATM   32  C   UNK N   1      -2.029   2.454   0.242  0.00  0.00     0.028 A 
ENDBRANCH   3  21
TORSDOF 7
