REMARK  7 active torsions:
REMARK  status: ('A' for Active; 'I' for Inactive)
REMARK    1  A    between atoms: C_12  and  C_28 
REMARK    2  A    between atoms: C_13  and  C_17 
REMARK    3  A    between atoms: C_15  and  O_26 
REMARK    4  A    between atoms: C_16  and  O_26 
REMARK    5  A    between atoms: C_16  and  C_27 
REMARK    6  A    between atoms: C_27  and  C_28 
REMARK    7  A    between atoms: C_27  and  N_29 
ROOT
HETATM    1  N   UNK N   1       3.241   2.997  -0.221  0.00  0.00    -0.372 N 
ATOM      2  HN  UNK N   1       4.046   3.622  -0.191  1.00  0.00     0.164 HD
HETATM    3  C   UNK N   1       0.868   2.688  -0.291  0.00  0.00    -0.008 A 
HETATM    4  C   UNK N   1       1.086   1.323  -0.365  0.00  0.00     0.051 A 
HETATM    5  C   UNK N   1       2.358   0.775  -0.332  0.00  0.00     0.085 A 
HETATM    6  C   UNK N   1       3.449   1.646  -0.258  0.00  0.00     0.124 A 
HETATM    7  C   UNK N   1       1.983   3.533  -0.225  0.00  0.00     0.100 A 
ENDROOT
BRANCH   5   8
HETATM    8  O   UNK N   1       2.528  -0.574  -0.348  0.00  0.00    -0.348 OA
BRANCH   8   9
HETATM    9  C   UNK N   1       1.487  -1.469  -0.580  0.00  0.00     0.200 C 
BRANCH   9  10
HETATM   10  C   UNK N   1       0.440  -1.526   0.550  0.00  0.00     0.102 C 
BRANCH  10  11
HETATM   11  C   UNK N   1      -0.858  -2.154   0.034  0.00  0.00     0.065 C 
BRANCH  11  12
HETATM   12  C   UNK N   1      -0.865  -3.646   0.001  0.00  0.00    -0.056 A 
HETATM   13  C   UNK N   1      -1.850  -4.331   0.718  0.00  0.00     0.008 A 
HETATM   14  C   UNK N   1      -1.865  -5.726   0.731  0.00  0.00     0.019 A 
HETATM   15  C   UNK N   1      -0.892  -6.440   0.026  0.00  0.00     0.011 A 
HETATM   16  C   UNK N   1       0.089  -5.759  -0.701  0.00  0.00     0.019 A 
HETATM   17 Br   UNK N   1      -0.896  -8.343   0.072  0.00  0.00    -0.051 Br
HETATM   18  C   UNK N   1       0.101  -4.361  -0.718  0.00  0.00     0.008 A 
ENDBRANCH  11  12
ENDBRANCH  10  11
BRANCH  10  19
HETATM   19  N   UNK N   1       0.963  -2.243   1.702  0.00  0.00    -0.424 N 
HETATM   20  H   UNK N   1       0.711  -2.812   2.510  0.00  0.00     0.150 HD
HETATM   21  H   UNK N   1       1.977  -2.134   1.702  0.00  0.00     0.150 HD
ENDBRANCH  10  19
ENDBRANCH   9  10
ENDBRANCH   8   9
ENDBRANCH   5   8
BRANCH   3  22
HETATM   22  C   UNK N   1      -0.532   3.158  -0.210  0.00  0.00    -0.024 A 
HETATM   23  C   UNK N   1      -0.864   4.537  -0.134  0.00  0.00     0.014 A 
HETATM   24  C   UNK N   1      -2.214   4.940  -0.012  0.00  0.00     0.033 A 
HETATM   25  C   UNK N   1      -3.185   3.941   0.042  0.00  0.00     0.060 A 
HETATM   26  C   UNK N   1      -2.868   2.623  -0.024  0.00  0.00     0.016 A 
HETATM   27  N   UNK N   1      -4.519   4.076   0.169  0.00  0.00    -0.300 N 
HETATM   28  C   UNK N   1      -4.055   1.949   0.071  0.00  0.00     0.034 A 
HETATM   29  C   UNK N   1      -1.563   2.190  -0.153  0.00  0.00     0.028 A 
HETATM   30  N   UNK N   1      -5.052   2.857   0.187  0.00  0.00    -0.304 N 
HETATM   31  C   UNK N   1      -4.249   0.472   0.060  0.00  0.00     0.070 C 
ATOM     32  HN  UNK N   1      -6.046   2.642   0.274  1.00  0.00     0.186 HD
HETATM   33  H   UNK N   1      -5.012   4.926   0.237  0.00  0.00     0.187 HD
ENDBRANCH   3  22
TORSDOF 7
