REMARK  5 active torsions:
REMARK  status: ('A' for Active; 'I' for Inactive)
REMARK    1  A    between atoms: C_1  and  O_3 
REMARK    2  A    between atoms: C_1  and  C_4 
REMARK    3  A    between atoms: C_6  and  N_7 
REMARK    4  A    between atoms: C_8  and  N_9 
REMARK       I    between atoms: N_9  and  C_10 
REMARK    5  A    between atoms: C_13  and  O_14 
ROOT
HETATM    1  C   UNK N   1       2.239   0.852  -0.000  0.00  0.00     0.042 A 
HETATM    2  C   UNK N   1       2.205  -0.543  -0.000  0.00  0.00     0.049 A 
HETATM    3  C   UNK N   1       0.982  -1.223  -0.000  0.00  0.00     0.056 A 
HETATM    4  C   UNK N   1      -0.244  -0.515   0.000  0.00  0.00     0.094 A 
HETATM    5  C   UNK N   1      -0.189   0.909   0.001  0.00  0.00     0.095 A 
HETATM    6  C   UNK N   1       1.043   1.560   0.000  0.00  0.00     0.057 A 
ENDROOT
BRANCH   4   7
HETATM    7  N   UNK N   1      -1.445  -1.312   0.000  0.00  0.00    -0.323 N 
HETATM    8  C   UNK N   1      -2.787  -1.059  -0.000  0.00  0.00     0.218 C 
HETATM    9  O   UNK N   1      -3.554  -2.008   0.001  0.00  0.00    -0.274 OA
HETATM   10  C   UNK N   1      -3.393   0.297  -0.001  0.00  0.00     0.117 C 
HETATM   11  H   UNK N   1      -1.250  -2.277   0.001  0.00  0.00     0.169 HD
ENDBRANCH   4   7
BRANCH   3  12
HETATM   12  N   UNK N   1       0.987  -2.634  -0.000  0.00  0.00    -0.397 N 
HETATM   13  H   UNK N   1       0.136  -3.130  -0.001  0.00  0.00     0.156 HD
HETATM   14  H   UNK N   1       1.842  -3.123  -0.000  0.00  0.00     0.156 HD
ENDBRANCH   3  12
BRANCH   5  15
HETATM   15  O   UNK N   1      -1.276   1.681   0.001  0.00  0.00    -0.358 OA
HETATM   16  H   UNK N   1      -1.188   2.614   0.002  0.00  0.00     0.217 HD
ENDBRANCH   5  15
BRANCH   1  17
HETATM   17  C   UNK N   1       3.520   1.585  -0.000  0.00  0.00     0.176 C 
HETATM   18  O   UNK N   1       3.527   2.807  -0.000  0.00  0.00    -0.646 OA
BRANCH  17  19
HETATM   19  O   UNK N   1       4.689   0.917  -0.000  0.00  0.00    -0.773 OA
HETATM   20  H   UNK N   1       4.693  -0.020  -0.000  0.00  0.00     0.167 HD
ENDBRANCH  17  19
ENDBRANCH   1  17
TORSDOF 5
