REMARK  5 active torsions:
REMARK  status: ('A' for Active; 'I' for Inactive)
REMARK    1  A    between atoms: N_1  and  C_2 
REMARK    2  A    between atoms: N_1  and  S_9 
REMARK    3  A    between atoms: S_9  and  C_10 
REMARK    4  A    between atoms: C_13  and  C_16 
REMARK    5  A    between atoms: C_16  and  O_18 
ROOT
HETATM    1  S   UNK N   1       1.266  -0.037  -0.139  0.00  0.00     0.264 S 
HETATM    2  O   UNK N   1       2.137  -0.157   1.116  0.00  0.00    -0.200 OA
HETATM    3  O   UNK N   1       2.420   0.270  -1.105  0.00  0.00    -0.200 OA
ENDROOT
BRANCH   1   4
HETATM    4  N   UNK N   1       0.596   1.512   0.362  0.00  0.00    -0.281 N 
HETATM    5  H   UNK N   1       1.202   2.081   0.888  0.00  0.00     0.179 HD
BRANCH   4   6
HETATM    6  C   UNK N   1      -0.685   2.058   0.121  0.00  0.00     0.042 A 
HETATM    7  C   UNK N   1      -1.711   1.337  -0.505  0.00  0.00     0.032 A 
HETATM    8  C   UNK N   1      -2.968   1.938  -0.686  0.00  0.00     0.026 A 
HETATM    9  C   UNK N   1      -3.194   3.251  -0.247  0.00  0.00     0.034 A 
HETATM   10  C   UNK N   1      -2.168   3.965   0.369  0.00  0.00     0.026 A 
HETATM   11 Cl   UNK N   1      -4.759   4.007  -0.458  0.00  0.00    -0.084 Cl
HETATM   12  C   UNK N   1      -0.922   3.368   0.553  0.00  0.00     0.032 A 
ENDBRANCH   4   6
ENDBRANCH   1   4
BRANCH   1  13
HETATM   13  C   UNK N   1       0.690  -1.749  -0.175  0.00  0.00     0.104 A 
HETATM   14  C   UNK N   1       1.532  -2.882  -0.032  0.00  0.00     0.101 A 
HETATM   15  S   UNK N   1       0.547  -4.206  -0.122  0.00  0.00    -0.094 SA
HETATM   16  C   UNK N   1      -0.926  -3.475  -0.349  0.00  0.00     0.052 A 
HETATM   17  C   UNK N   1      -0.680  -2.093  -0.357  0.00  0.00     0.034 A 
BRANCH  14  18
HETATM   18  C   UNK N   1       3.004  -2.954   0.152  0.00  0.00     0.184 C 
HETATM   19  O   UNK N   1       3.537  -4.054   0.300  0.00  0.00    -0.646 OA
BRANCH  18  20
HETATM   20  O   UNK N   1       3.778  -1.862   0.141  0.00  0.00    -0.772 OA
HETATM   21  H   UNK N   1       4.711  -1.949   0.134  0.00  0.00     0.167 HD
ENDBRANCH  18  20
ENDBRANCH  14  18
ENDBRANCH   1  13
TORSDOF 5
