REMARK  4 active torsions:
REMARK  status: ('A' for Active; 'I' for Inactive)
REMARK    1  A    between atoms: C_3  and  C_4 
REMARK    2  A    between atoms: C_4  and  S_18 
REMARK    3  A    between atoms: B_10  and  O_14 
REMARK    4  A    between atoms: N_13  and  S_18 
ROOT
HETATM    1  C   UNK N   1      -4.892   0.118  -0.065  0.00  0.00     0.056 C 
HETATM    2  C   UNK N   1      -2.472   1.002   0.134  0.00  0.00     0.015 A 
HETATM    3  C   UNK N   1       0.219  -1.603  -0.090  0.00  0.00     0.125 A 
HETATM    4  C   UNK N   1      -3.414  -0.030  -0.030  0.00  0.00    -0.021 A 
HETATM    5  C   UNK N   1      -1.137   0.503   0.124  0.00  0.00    -0.018 A 
HETATM    6  C   UNK N   1      -1.052  -0.870  -0.046  0.00  0.00     0.022 A 
HETATM    7  B   UNK N   1       0.209   1.268   0.266  0.00  0.00     0.521 B 
HETATM    8  N   UNK N   1       1.349  -0.982   0.021  0.00  0.00    -0.310 N 
ATOM      9  HN  UNK N   1       2.205  -1.534  -0.018  1.00  0.00     0.185 HD
HETATM   10  N   UNK N   1       1.465   0.401   0.191  0.00  0.00    -0.232 N 
HETATM   11  S   UNK N   1      -2.586  -1.460  -0.178  0.00  0.00    -0.094 SA
ENDROOT
BRANCH  10  12
HETATM   12  S   UNK N   1       3.088   1.078   0.163  0.00  0.00     0.235 S 
HETATM   13  O   UNK N   1       2.915   1.381  -1.327  0.00  0.00    -0.205 OA
HETATM   14  O   UNK N   1       4.033  -0.088  -0.165  0.00  0.00    -0.205 OA
BRANCH  12  15
HETATM   15  C   UNK N   1       3.929   2.687   0.295  0.00  0.00     0.163 C 
BRANCH  15  16
HETATM   16  C   UNK N   1       5.424   2.412   0.430  0.00  0.00     0.012 C 
HETATM   17  C   UNK N   1       6.255   3.540  -0.144  0.00  0.00     0.006 C 
ENDBRANCH  15  16
ENDBRANCH  12  15
ENDBRANCH  10  12
BRANCH   7  18
HETATM   18  O   UNK N   1       0.272   2.721   0.421  0.00  0.00    -0.438 OA
HETATM   19  H   UNK N   1       1.127   3.166   0.524  0.00  0.00     0.184 HD
ENDBRANCH   7  18
TORSDOF 4
