REMARK  5 active torsions:
REMARK  status: ('A' for Active; 'I' for Inactive)
REMARK    1  A    between atoms: C_8  and  N_9 
REMARK       I    between atoms: C_10  and  N_9 
REMARK    2  A    between atoms: C_10  and  C_12 
REMARK    3  A    between atoms: C_12  and  C_13 
REMARK    4  A    between atoms: C_14  and  C_13 
REMARK    5  A    between atoms: C_14  and  O_15 
ROOT
HETATM    1  N   UNK N   1       0.907  -0.277  -0.000  0.00  0.00    -0.313 N 
HETATM    2  C   UNK N   1       1.935   0.621  -0.000  0.00  0.00     0.223 C 
HETATM    3  O   UNK N   1       1.716   1.823  -0.000  0.00  0.00    -0.273 OA
HETATM    4  H   UNK N   1       1.140  -1.233  -0.000  0.00  0.00     0.170 HD
ENDROOT
BRANCH   1   5
HETATM    5  C   UNK N   1      -0.484   0.061  -0.000  0.00  0.00     0.107 A 
HETATM    6  N   UNK N   1      -1.414  -0.935   0.000  0.00  0.00    -0.351 N 
HETATM    7  C   UNK N   1      -2.752  -0.669   0.000  0.00  0.00     0.108 A 
ATOM      8  HN  UNK N   1      -1.101  -1.905   0.000  1.00  0.00     0.166 HD
HETATM    9  C   UNK N   1      -3.205   0.653   0.000  0.00  0.00     0.026 A 
HETATM   10 Br   UNK N   1      -5.071   1.042   0.000  0.00  0.00    -0.050 Br
HETATM   11  C   UNK N   1      -2.279   1.691  -0.000  0.00  0.00     0.024 A 
HETATM   12  C   UNK N   1      -0.917   1.399  -0.000  0.00  0.00     0.050 A 
ENDBRANCH   1   5
BRANCH   2  13
HETATM   13  C   UNK N   1       3.368   0.176  -0.000  0.00  0.00     0.113 C 
BRANCH  13  14
HETATM   14  C   UNK N   1       3.598  -1.329  -0.000  0.00  0.00     0.119 C 
BRANCH  14  15
HETATM   15  C   UNK N   1       5.070  -1.638   0.000  0.00  0.00     0.139 C 
HETATM   16  O   UNK N   1       5.442  -2.799   0.000  0.00  0.00    -0.650 OA
BRANCH  15  17
HETATM   17  O   UNK N   1       5.987  -0.648   0.000  0.00  0.00    -0.776 OA
HETATM   18  H   UNK N   1       6.901  -0.855   0.000  0.00  0.00     0.167 HD
ENDBRANCH  15  17
ENDBRANCH  14  15
ENDBRANCH  13  14
ENDBRANCH   2  13
TORSDOF 5
