REMARK  6 active torsions:
REMARK  status: ('A' for Active; 'I' for Inactive)
REMARK    1  A    between atoms: C_2  and  O_3 
REMARK    2  A    between atoms: C_2  and  C_4 
REMARK    3  A    between atoms: C_5  and  C_4 
REMARK    4  A    between atoms: C_6  and  C_5 
REMARK       I    between atoms: N_8  and  C_6 
REMARK    5  A    between atoms: C_9  and  N_8 
REMARK    6  A    between atoms: C_15  and  C_16 
REMARK       I    between atoms: C_16  and  N_18 
ROOT
HETATM    1  C   UNK N   1      -1.248  -2.451   0.166  0.00  0.00     0.050 A 
HETATM    2  C   UNK N   1      -1.151  -3.854   0.161  0.00  0.00     0.032 A 
HETATM    3  C   UNK N   1       0.092  -4.484   0.196  0.00  0.00     0.021 A 
HETATM    4  C   UNK N   1       1.254  -3.720   0.238  0.00  0.00     0.012 A 
HETATM    5 Br   UNK N   1       2.957  -4.576   0.204  0.00  0.00    -0.051 Br
HETATM    6  C   UNK N   1       1.174  -2.328   0.260  0.00  0.00     0.038 A 
HETATM    7  C   UNK N   1      -0.064  -1.663   0.230  0.00  0.00     0.060 A 
ENDROOT
BRANCH   1   8
HETATM    8  N   UNK N   1      -2.521  -1.814   0.073  0.00  0.00    -0.326 N 
HETATM    9  C   UNK N   1      -3.619  -2.334  -0.533  0.00  0.00     0.222 C 
HETATM   10  O   UNK N   1      -3.570  -3.413  -1.103  0.00  0.00    -0.273 OA
HETATM   11  H   UNK N   1      -2.611  -0.922   0.481  0.00  0.00     0.169 HD
BRANCH   9  12
HETATM   12  C   UNK N   1      -4.853  -1.506  -0.655  0.00  0.00     0.113 C 
BRANCH  12  13
HETATM   13  C   UNK N   1      -5.680  -1.533   0.614  0.00  0.00     0.119 C 
BRANCH  13  14
HETATM   14  C   UNK N   1      -6.972  -0.832   0.355  0.00  0.00     0.139 C 
HETATM   15  O   UNK N   1      -8.016  -1.463   0.348  0.00  0.00    -0.650 OA
BRANCH  14  16
HETATM   16  O   UNK N   1      -6.989   0.493   0.113  0.00  0.00    -0.776 OA
HETATM   17  H   UNK N   1      -6.196   0.964  -0.056  0.00  0.00     0.167 HD
ENDBRANCH  14  16
ENDBRANCH  13  14
ENDBRANCH  12  13
ENDBRANCH   9  12
ENDBRANCH   1   8
BRANCH   7  18
HETATM   18  C   UNK N   1      -0.136  -0.149   0.162  0.00  0.00     0.256 C 
HETATM   19  N   UNK N   1       0.953   0.676   0.305  0.00  0.00    -0.347 N 
HETATM   20  C   UNK N   1       0.772   2.111   0.105  0.00  0.00     0.130 C 
HETATM   21  C   UNK N   1       2.275   0.188   0.646  0.00  0.00     0.130 C 
HETATM   22  C   UNK N   1       2.103   2.862   0.052  0.00  0.00    -0.000 C 
HETATM   23  C   UNK N   1       3.064   2.094  -0.858  0.00  0.00     0.011 C 
HETATM   24  C   UNK N   1       1.868   4.247  -0.512  0.00  0.00     0.011 C 
HETATM   25  C   UNK N   1       3.309   0.651  -0.382  0.00  0.00    -0.000 C 
HETATM   26  C   UNK N   1       4.684   0.549   0.243  0.00  0.00     0.011 C 
HETATM   27  O   UNK N   1      -1.221   0.367  -0.063  0.00  0.00    -0.267 OA
ENDBRANCH   7  18
TORSDOF 6
