REMARK  5 active torsions:
REMARK  status: ('A' for Active; 'I' for Inactive)
REMARK    1  A    between atoms: C_2  and  C_9 
REMARK       I    between atoms: N_3  and  C_2 
REMARK    2  A    between atoms: C_9  and  C_10 
REMARK    3  A    between atoms: C_10  and  C_11 
REMARK       I    between atoms: N_13  and  C_11 
REMARK    4  A    between atoms: N_13  and  C_14 
REMARK    5  A    between atoms: C_21  and  C_20 
REMARK       I    between atoms: C_21  and  N_23 
ROOT
HETATM    1  C   UNK N   1       0.562  -2.260   0.288  0.00  0.00     0.050 A 
HETATM    2  C   UNK N   1       0.650  -3.661   0.345  0.00  0.00     0.032 A 
HETATM    3  C   UNK N   1       1.886  -4.284   0.498  0.00  0.00     0.021 A 
HETATM    4  C   UNK N   1       3.044  -3.516   0.590  0.00  0.00     0.012 A 
HETATM    5 Br   UNK N   1       4.742  -4.371   0.704  0.00  0.00    -0.051 Br
HETATM    6  C   UNK N   1       2.965  -2.121   0.548  0.00  0.00     0.038 A 
HETATM    7  C   UNK N   1       1.731  -1.464   0.403  0.00  0.00     0.060 A 
ENDROOT
BRANCH   1   8
HETATM    8  N   UNK N   1      -0.673  -1.613   0.029  0.00  0.00    -0.326 N 
HETATM    9  C   UNK N   1      -1.776  -2.138  -0.539  0.00  0.00     0.222 C 
HETATM   10  O   UNK N   1      -1.830  -3.314  -0.863  0.00  0.00    -0.273 OA
HETATM   11  H   UNK N   1      -0.731  -0.667   0.295  0.00  0.00     0.169 HD
BRANCH   9  12
HETATM   12  C   UNK N   1      -2.880  -1.218  -0.904  0.00  0.00     0.112 C 
BRANCH  12  13
HETATM   13  C   UNK N   1      -3.499  -0.580   0.324  0.00  0.00     0.112 C 
BRANCH  13  14
HETATM   14  C   UNK N   1      -4.883  -0.131  -0.029  0.00  0.00     0.220 C 
HETATM   15  O   UNK N   1      -5.166   1.053   0.079  0.00  0.00    -0.273 OA
HETATM   16  N   UNK N   1      -5.814  -1.026  -0.472  0.00  0.00    -0.348 N 
HETATM   17  C   UNK N   1      -5.511  -2.444  -0.557  0.00  0.00     0.152 C 
HETATM   18  C   UNK N   1      -7.166  -0.606  -0.769  0.00  0.00     0.152 C 
HETATM   19  C   UNK N   1      -6.605  -3.244   0.162  0.00  0.00     0.187 C 
HETATM   20  O   UNK N   1      -7.499  -2.387   0.839  0.00  0.00    -0.388 OA
HETATM   21  C   UNK N   1      -8.146  -1.614  -0.147  0.00  0.00     0.187 C 
ENDBRANCH  13  14
ENDBRANCH  12  13
ENDBRANCH   9  12
ENDBRANCH   1   8
BRANCH   7  22
HETATM   22  C   UNK N   1       1.637   0.050   0.271  0.00  0.00     0.256 C 
HETATM   23  N   UNK N   1       2.713   0.895   0.293  0.00  0.00    -0.347 N 
HETATM   24  C   UNK N   1       2.486   2.308   0.006  0.00  0.00     0.130 C 
HETATM   25  C   UNK N   1       4.069   0.432   0.504  0.00  0.00     0.130 C 
HETATM   26  C   UNK N   1       3.772   3.128  -0.052  0.00  0.00    -0.000 C 
HETATM   27  C   UNK N   1       4.870   2.411  -0.857  0.00  0.00     0.011 C 
HETATM   28  C   UNK N   1       4.252   3.412   1.360  0.00  0.00     0.011 C 
HETATM   29  C   UNK N   1       4.925   0.884  -0.667  0.00  0.00    -0.000 C 
HETATM   30  C   UNK N   1       6.355   0.440  -0.454  0.00  0.00     0.011 C 
HETATM   31  O   UNK N   1       0.532   0.550   0.099  0.00  0.00    -0.267 OA
ENDBRANCH   7  22
TORSDOF 5
