REMARK  3 active torsions:
REMARK  status: ('A' for Active; 'I' for Inactive)
REMARK    1  A    between atoms: C_21  and  N_1 
REMARK       I    between atoms: C_5  and  N_19 
REMARK    2  A    between atoms: C_9  and  C_17 
REMARK    3  A    between atoms: C_17  and  N_18 
ROOT
HETATM    1  C   UNK N   1      -0.626   3.071   1.040  0.00  0.00    -0.018 C 
HETATM    2  C   UNK N   1       0.427   3.937   1.364  0.00  0.00     0.010 C 
HETATM    3  C   UNK N   1       0.570   5.126   0.649  0.00  0.00     0.001 C 
HETATM    4  C   UNK N   1      -1.491   4.666  -0.532  0.00  0.00     0.023 C 
HETATM    5  C   UNK N   1      -2.902   2.828   0.243  0.00  0.00     0.100 C 
HETATM    6  N   UNK N   1      -3.905   2.265   0.298  0.00  0.00    -0.191 NA
HETATM    7  C   UNK N   1      -1.643   3.499   0.204  0.00  0.00     0.052 C 
HETATM    8  C   UNK N   1      -0.341   5.440  -0.367  0.00  0.00     0.002 C 
ENDROOT
BRANCH   1   9
HETATM    9  C   UNK N   1      -0.582   1.630   1.387  0.00  0.00     0.191 C 
BRANCH   9  10
HETATM   10  N   UNK N   1       0.548   0.904   0.721  0.00  0.00    -0.142 N 
HETATM   11  C   UNK N   1       0.467  -0.448   0.615  0.00  0.00     0.686 C 
HETATM   12  N   UNK N   1       1.592  -1.194   0.564  0.00  0.00    -0.191 N 
HETATM   13  N   UNK N   1      -0.575  -0.942  -0.188  0.00  0.00    -0.215 N 
HETATM   14  C   UNK N   1       2.765  -0.622   0.301  0.00  0.00     0.065 A 
ATOM     15  HN  UNK N   1       1.542  -2.199   0.727  1.00  0.00     0.184 HD
HETATM   16  C   UNK N   1       2.795   0.724  -0.053  0.00  0.00     0.060 A 
HETATM   17  C   UNK N   1       3.919  -1.381   0.283  0.00  0.00     0.031 A 
HETATM   18  C   UNK N   1       3.982   1.325  -0.444  0.00  0.00     0.019 A 
HETATM   19  C   UNK N   1       1.659   1.474   0.112  0.00  0.00     0.274 C 
HETATM   20  C   UNK N   1       5.156   0.586  -0.407  0.00  0.00     0.001 A 
HETATM   21  C   UNK N   1       5.126  -0.763  -0.035  0.00  0.00     0.002 A 
HETATM   22  O   UNK N   1       1.675   2.623  -0.270  0.00  0.00    -0.266 OA
HETATM   23  C   UNK N   1      -0.485  -2.283  -0.702  0.00  0.00     0.141 C 
HETATM   24  C   UNK N   1      -1.592  -0.088  -0.759  0.00  0.00     0.165 C 
HETATM   25  C   UNK N   1      -1.747  -2.987  -0.301  0.00  0.00     0.022 C 
HETATM   26  C   UNK N   1      -2.935  -2.149  -0.748  0.00  0.00     0.028 C 
HETATM   27  C   UNK N   1      -2.856  -0.704  -0.249  0.00  0.00     0.092 C 
BRANCH  27  28
HETATM   28  N   UNK N   1      -4.061  -0.049  -0.691  0.00  0.00    -0.424 N 
HETATM   29  H   UNK N   1      -4.086   0.921  -1.004  0.00  0.00     0.150 HD
HETATM   30  H   UNK N   1      -4.931  -0.582  -0.691  0.00  0.00     0.150 HD
ENDBRANCH  27  28
ENDBRANCH   9  10
ENDBRANCH   1   9
TORSDOF 3
