REMARK  9 active torsions:
REMARK  status: ('A' for Active; 'I' for Inactive)
REMARK    1  A    between atoms: N_2  and  C_4 
REMARK    2  A    between atoms: C_9  and  C_10 
REMARK       I    between atoms: C_10  and  N_12 
REMARK       I    between atoms: N_12  and  C_13 
REMARK    3  A    between atoms: C_18  and  O_19 
REMARK    4  A    between atoms: O_19  and  C_20 
REMARK    5  A    between atoms: C_20  and  C_22 
REMARK    6  A    between atoms: N_29  and  C_30 
REMARK    7  A    between atoms: C_30  and  C_31 
REMARK    8  A    between atoms: C_31  and  C_32 
REMARK    9  A    between atoms: C_32  and  O_33 
ROOT
HETATM    1  C   UNK N   1      -2.681   2.982  -0.116  0.00  0.00     0.270 C 
HETATM    2  O   UNK N   1      -2.144   2.044  -0.680  0.00  0.00    -0.267 OA
HETATM    3  N   UNK N   1      -1.943   4.002   0.395  0.00  0.00    -0.155 N 
HETATM    4  C   UNK N   1      -0.529   4.016   0.321  0.00  0.00     0.688 A 
HETATM    5  N   UNK N   1       0.163   5.141   0.007  0.00  0.00    -0.189 N 
ATOM      6  HN  UNK N   1      -0.192   6.092  -0.093  1.00  0.00     0.184 HD
HETATM    7  C   UNK N   1       1.425   4.707  -0.140  0.00  0.00     0.079 A 
HETATM    8  C   UNK N   1       2.560   5.447  -0.442  0.00  0.00     0.069 A 
HETATM    9  C   UNK N   1       3.783   4.747  -0.507  0.00  0.00     0.081 A 
HETATM   10  C   UNK N   1       3.804   3.337  -0.349  0.00  0.00     0.040 A 
HETATM   11  C   UNK N   1       1.483   3.364   0.085  0.00  0.00     0.079 A 
HETATM   12  C   UNK N   1       2.648   2.633  -0.040  0.00  0.00     0.035 A 
HETATM   13  N   UNK N   1       0.273   2.918   0.411  0.00  0.00    -0.181 N 
HETATM   14  H   UNK N   1      -2.405   4.755   0.828  0.00  0.00     0.187 HD
ENDROOT
BRANCH  13  15
HETATM   15  C   UNK N   1      -0.041   1.543   0.806  0.00  0.00     0.150 C 
BRANCH  15  16
HETATM   16  C   UNK N   1       0.273   0.564  -0.315  0.00  0.00     0.047 C 
BRANCH  16  17
HETATM   17  C   UNK N   1       0.996  -0.647   0.237  0.00  0.00     0.165 C 
BRANCH  17  18
HETATM   18  O   UNK N   1       2.340  -0.340   0.447  0.00  0.00    -0.401 OA
HETATM   19  H   UNK N   1       2.993  -1.042   0.593  0.00  0.00     0.209 HD
ENDBRANCH  17  18
ENDBRANCH  16  17
ENDBRANCH  15  16
ENDBRANCH  13  15
BRANCH   1  20
HETATM   20  C   UNK N   1      -4.136   3.050  -0.138  0.00  0.00     0.035 A 
HETATM   21  C   UNK N   1      -4.871   1.909  -0.479  0.00  0.00     0.017 A 
HETATM   22  C   UNK N   1      -6.256   1.975  -0.590  0.00  0.00     0.003 A 
HETATM   23  C   UNK N   1      -6.907   3.196  -0.412  0.00  0.00     0.036 A 
HETATM   24  C   UNK N   1      -6.176   4.353  -0.097  0.00  0.00     0.103 A 
HETATM   25  C   UNK N   1      -4.787   4.268   0.056  0.00  0.00     0.053 A 
BRANCH  24  26
HETATM   26  N   UNK N   1      -6.833   5.606   0.004  0.00  0.00    -0.116 N 
HETATM   27  O   UNK N   1      -8.132   5.687  -0.183  0.00  0.00    -0.532 OA
HETATM   28  O   UNK N   1      -6.200   6.605   0.179  0.00  0.00    -0.532 OA
ENDBRANCH  24  26
ENDBRANCH   1  20
BRANCH   9  29
HETATM   29  O   UNK N   1       4.934   5.454  -0.544  0.00  0.00    -0.278 OA
BRANCH  29  30
HETATM   30  C   UNK N   1       6.053   5.064   0.136  0.00  0.00     0.271 C 
HETATM   31  O   UNK N   1       6.196   3.904   0.507  0.00  0.00    -0.264 OA
BRANCH  30  32
HETATM   32  C   UNK N   1       7.039   6.104   0.571  0.00  0.00     0.037 C 
HETATM   33  C   UNK N   1       8.089   5.519   1.505  0.00  0.00     0.025 C 
HETATM   34  C   UNK N   1       6.297   7.195   1.321  0.00  0.00     0.025 C 
HETATM   35  C   UNK N   1       7.724   6.697  -0.639  0.00  0.00     0.025 C 
ENDBRANCH  30  32
ENDBRANCH  29  30
ENDBRANCH   9  29
TORSDOF 9
