REMARK  3 active torsions:
REMARK  status: ('A' for Active; 'I' for Inactive)
REMARK    1  A    between atoms: N_2  and  N_3 
REMARK       I    between atoms: N_3  and  C_4 
REMARK    2  A    between atoms: C_4  and  O_6 
REMARK    3  A    between atoms: O_6  and  C_7 
ROOT
HETATM    1  C   UNK N   1       3.054  -0.687   0.043  0.00  0.00     0.191 C 
HETATM    2  N   UNK N   1       2.777   0.731   0.017  0.00  0.00    -0.228 N 
HETATM    3  C   UNK N   1       3.828   1.624  -0.005  0.00  0.00     0.200 C 
HETATM    4  N   UNK N   1       4.688   2.396  -0.023  0.00  0.00    -0.170 NA
ENDROOT
BRANCH   2   5
HETATM    5  N   UNK N   1       1.499   1.245   0.038  0.00  0.00    -0.234 N 
HETATM    6  C   UNK N   1       0.371   0.515   0.182  0.00  0.00     0.380 C 
HETATM    7  O   UNK N   1       0.419  -0.696   0.346  0.00  0.00    -0.237 OA
HETATM    8  H   UNK N   1       1.400   2.219  -0.060  0.00  0.00     0.193 HD
BRANCH   6   9
HETATM    9  O   UNK N   1      -0.820   1.145   0.056  0.00  0.00    -0.293 OA
BRANCH   9  10
HETATM   10  C   UNK N   1      -2.035   0.507  -0.100  0.00  0.00     0.061 C 
HETATM   11  C   UNK N   1      -2.465  -0.204   1.166  0.00  0.00     0.046 C 
HETATM   12  C   UNK N   1      -1.959  -0.520  -1.223  0.00  0.00     0.046 C 
HETATM   13  C   UNK N   1      -3.065   1.563  -0.446  0.00  0.00     0.046 C 
ENDBRANCH   9  10
ENDBRANCH   6   9
ENDBRANCH   2   5
TORSDOF 3
