REMARK  6 active torsions:
REMARK  status: ('A' for Active; 'I' for Inactive)
REMARK    1  A    between atoms: N_6  and  C_7 
REMARK    2  A    between atoms: C_7  and  C_8 
REMARK    3  A    between atoms: C_8  and  O_9 
REMARK    4  A    between atoms: O_9  and  C_10 
REMARK    5  A    between atoms: C_15  and  C_16 
REMARK    6  A    between atoms: C_26  and  C_27 
ROOT
HETATM    1  C   UNK N   1      -2.477  -0.589  -0.161  0.00  0.00     0.007 A 
HETATM    2  C   UNK N   1      -3.766  -1.141  -0.281  0.00  0.00     0.132 A 
HETATM    3  C   UNK N   1      -2.357   0.813  -0.015  0.00  0.00     0.103 A 
HETATM    4  N   UNK N   1      -3.464   1.608  -0.019  0.00  0.00    -0.349 N 
ATOM      5  HN  UNK N   1      -3.377   2.621   0.059  1.00  0.00     0.167 HD
HETATM    6  C   UNK N   1      -4.681   1.024  -0.129  0.00  0.00     0.139 A 
HETATM    7  N   UNK N   1      -4.820  -0.295  -0.244  0.00  0.00    -0.250 N 
HETATM    8  N   UNK N   1      -6.103  -0.609  -0.316  0.00  0.00    -0.303 N 
ATOM      9  HN  UNK N   1      -6.487  -1.550  -0.403  1.00  0.00     0.186 HD
HETATM   10  C   UNK N   1      -6.817   0.546  -0.255  0.00  0.00     0.123 A 
HETATM   11  C   UNK N   1      -5.920   1.612  -0.144  0.00  0.00     0.037 A 
ENDROOT
BRANCH   1  12
HETATM   12  C   UNK N   1      -1.282  -1.452  -0.117  0.00  0.00    -0.023 A 
HETATM   13  C   UNK N   1      -1.353  -2.807  -0.477  0.00  0.00     0.015 A 
HETATM   14  C   UNK N   1      -0.228  -3.629  -0.359  0.00  0.00     0.037 A 
HETATM   15  C   UNK N   1       0.964  -3.116   0.161  0.00  0.00     0.068 A 
HETATM   16  C   UNK N   1       1.036  -1.758   0.507  0.00  0.00     0.037 A 
HETATM   17  C   UNK N   1      -0.071  -0.930   0.353  0.00  0.00     0.015 A 
BRANCH  15  18
HETATM   18  O   UNK N   1       2.020  -3.942   0.349  0.00  0.00    -0.349 OA
BRANCH  18  19
HETATM   19  C   UNK N   1       3.028  -3.651   1.247  0.00  0.00     0.206 C 
BRANCH  19  20
HETATM   20  C   UNK N   1       4.278  -3.158   0.536  0.00  0.00     0.299 C 
BRANCH  20  21
HETATM   21  N   UNK N   1       4.047  -1.855  -0.073  0.00  0.00     0.090 N 
HETATM   22  C   UNK N   1       4.049  -0.827   0.984  0.00  0.00     0.272 C 
HETATM   23  C   UNK N   1       4.275   0.563   0.396  0.00  0.00     0.030 C 
HETATM   24  C   UNK N   1       5.650   0.644  -0.275  0.00  0.00     0.003 C 
HETATM   25  C   UNK N   1       6.211  -0.729  -0.655  0.00  0.00     0.030 C 
HETATM   26  C   UNK N   1       5.081  -1.659  -1.104  0.00  0.00     0.272 C 
ENDBRANCH  20  21
ENDBRANCH  19  20
ENDBRANCH  18  19
ENDBRANCH  15  18
ENDBRANCH   1  12
BRANCH  11  27
HETATM   27  C   UNK N   1      -6.237   3.052  -0.096  0.00  0.00    -0.018 A 
HETATM   28  C   UNK N   1      -7.566   3.485  -0.094  0.00  0.00     0.029 A 
HETATM   29  C   UNK N   1      -7.843   4.855  -0.094  0.00  0.00     0.088 A 
HETATM   30  N   UNK N   1      -6.826   5.758  -0.105  0.00  0.00    -0.375 N 
HETATM   31  C   UNK N   1      -5.525   5.361  -0.108  0.00  0.00     0.088 A 
ATOM     32  HN  UNK N   1      -7.043   6.755  -0.111  1.00  0.00     0.164 HD
HETATM   33  C   UNK N   1      -5.209   4.003  -0.102  0.00  0.00     0.029 A 
ENDBRANCH  11  27
TORSDOF 6
