REMARK  10 active torsions:
REMARK  status: ('A' for Active; 'I' for Inactive)
REMARK    1  A    between atoms: S_1  and  C_4 
REMARK    2  A    between atoms: N_11  and  S_1 
REMARK    3  A    between atoms: C_12  and  N_11 
REMARK    4  A    between atoms: C_12  and  C_13 
REMARK    5  A    between atoms: C_12  and  C_15 
REMARK    6  A    between atoms: C_13  and  C_20 
REMARK    7  A    between atoms: C_15  and  C_16 
REMARK    8  A    between atoms: C_16  and  C_17 
REMARK    9  A    between atoms: C_17  and  C_18 
REMARK   10  A    between atoms: C_18  and  N_19 
ROOT
HETATM    1  N   UNK N   1       0.292   1.191   0.612  0.00  0.00    -0.303 N 
HETATM    2  H   UNK N   1       0.666   1.354   1.547  0.00  0.00     0.173 HD
ENDROOT
BRANCH   1   3
HETATM    3  C   UNK N   1       0.752   0.116  -0.275  0.00  0.00     0.163 C 
BRANCH   3   4
HETATM    4  C   UNK N   1       0.206  -1.220   0.194  0.00  0.00     0.163 C 
HETATM    5  O   UNK N   1      -1.000  -1.394   0.212  0.00  0.00    -0.294 OA
BRANCH   4   6
HETATM    6  C   UNK N   1       1.096  -2.341   0.636  0.00  0.00     0.195 C 
HETATM    7 Cl   UNK N   1       0.911  -3.752  -0.432  0.00  0.00    -0.122 Cl
ENDBRANCH   4   6
ENDBRANCH   3   4
BRANCH   3   8
HETATM    8  C   UNK N   1       2.279   0.175  -0.416  0.00  0.00     0.034 C 
BRANCH   8   9
HETATM    9  C   UNK N   1       3.076  -0.172   0.837  0.00  0.00     0.004 C 
BRANCH   9  10
HETATM   10  C   UNK N   1       4.413  -0.772   0.417  0.00  0.00     0.019 C 
BRANCH  10  11
HETATM   11  C   UNK N   1       4.204  -2.082  -0.332  0.00  0.00     0.111 C 
BRANCH  11  12
HETATM   12  N   UNK N   1       5.388  -2.402  -1.108  0.00  0.00    -0.430 N 
HETATM   13  H   UNK N   1       5.609  -3.234  -1.654  0.00  0.00     0.149 HD
HETATM   14  H   UNK N   1       6.110  -1.682  -1.108  0.00  0.00     0.149 HD
ENDBRANCH  11  12
ENDBRANCH  10  11
ENDBRANCH   9  10
ENDBRANCH   8   9
ENDBRANCH   3   8
ENDBRANCH   1   3
BRANCH   1  15
HETATM   15  S   UNK N   1      -0.997   2.182  -0.126  0.00  0.00     0.259 S 
HETATM   16  O   UNK N   1      -0.809   3.561   0.523  0.00  0.00    -0.201 OA
HETATM   17  O   UNK N   1      -0.553   2.482  -1.567  0.00  0.00    -0.201 OA
BRANCH  15  18
HETATM   18  C   UNK N   1      -2.717   1.682  -0.008  0.00  0.00     0.079 A 
HETATM   19  C   UNK N   1      -3.073   0.512   0.667  0.00  0.00     0.026 A 
HETATM   20  C   UNK N   1      -4.416   0.130   0.754  0.00  0.00     0.008 A 
HETATM   21  C   UNK N   1      -5.407   0.925   0.171  0.00  0.00    -0.062 A 
HETATM   22  C   UNK N   1      -5.055   2.101  -0.498  0.00  0.00     0.008 A 
HETATM   23  C   UNK N   1      -6.835   0.520   0.264  0.00  0.00     0.048 C 
HETATM   24  C   UNK N   1      -3.712   2.479  -0.588  0.00  0.00     0.026 A 
ENDBRANCH  15  18
ENDBRANCH   1  15
TORSDOF 10
