REMARK  6 active torsions:
REMARK  status: ('A' for Active; 'I' for Inactive)
REMARK    1  A    between atoms: C_6  and  O_7 
REMARK    2  A    between atoms: C_14  and  C_16 
REMARK    3  A    between atoms: C_16  and  O_17 
REMARK    4  A    between atoms: O_17  and  C_18 
REMARK    5  A    between atoms: C_23  and  C_24 
REMARK    6  A    between atoms: C_25  and  C_24 
ROOT
HETATM    1  C   UNK N   1      -0.350  -1.374  -1.453  0.00  0.00     0.213 C 
ENDROOT
BRANCH   1   2
HETATM    2  C   UNK N   1       0.428  -0.297  -0.692  0.00  0.00     0.086 C 
HETATM    3  C   UNK N   1       0.302   1.045  -1.416  0.00  0.00     0.045 C 
HETATM    4  C   UNK N   1       1.176   2.109  -0.731  0.00  0.00     0.045 C 
HETATM    5  C   UNK N   1       2.540   1.567  -0.363  0.00  0.00    -0.015 A 
HETATM    6  C   UNK N   1       3.590   2.436  -0.018  0.00  0.00    -0.019 A 
HETATM    7  C   UNK N   1       2.764   0.174  -0.380  0.00  0.00     0.083 A 
HETATM    8  C   UNK N   1       3.369   3.916   0.028  0.00  0.00     0.052 C 
HETATM    9  C   UNK N   1       4.861   1.913   0.277  0.00  0.00     0.078 A 
HETATM   10  C   UNK N   1       5.086   0.527   0.224  0.00  0.00    -0.020 A 
HETATM   11  C   UNK N   1       4.034  -0.342  -0.104  0.00  0.00    -0.019 A 
HETATM   12  C   UNK N   1       6.447  -0.016   0.524  0.00  0.00     0.052 C 
HETATM   13  C   UNK N   1       4.252  -1.822  -0.158  0.00  0.00     0.052 C 
HETATM   14  O   UNK N   1       1.752  -0.679  -0.671  0.00  0.00    -0.337 OA
HETATM   15  C   UNK N   1      -0.097  -0.123   0.738  0.00  0.00     0.049 C 
BRANCH   9  16
HETATM   16  O   UNK N   1       5.870   2.744   0.604  0.00  0.00    -0.360 OA
HETATM   17  H   UNK N   1       6.721   2.425   0.831  0.00  0.00     0.217 HD
ENDBRANCH   9  16
ENDBRANCH   1   2
BRANCH   1  18
HETATM   18  O   UNK N   1      -0.893  -2.321  -0.599  0.00  0.00    -0.348 OA
BRANCH  18  19
HETATM   19  C   UNK N   1      -2.214  -2.277  -0.309  0.00  0.00     0.068 A 
HETATM   20  C   UNK N   1      -2.738  -2.976   0.794  0.00  0.00     0.037 A 
HETATM   21  C   UNK N   1      -4.086  -2.796   1.165  0.00  0.00     0.010 A 
HETATM   22  C   UNK N   1      -4.905  -1.930   0.422  0.00  0.00    -0.056 A 
HETATM   23  C   UNK N   1      -4.371  -1.301  -0.710  0.00  0.00     0.010 A 
HETATM   24  C   UNK N   1      -3.056  -1.463  -1.066  0.00  0.00     0.037 A 
BRANCH  22  25
HETATM   25  C   UNK N   1      -6.315  -1.580   0.867  0.00  0.00     0.063 C 
BRANCH  25  26
HETATM   26  C   UNK N   1      -6.784  -0.279   0.174  0.00  0.00     0.153 C 
HETATM   27  S   UNK N   1      -8.542   0.210   0.242  0.00  0.00    -0.054 SA
HETATM   28  C   UNK N   1      -7.929   1.887  -0.065  0.00  0.00     0.287 C 
HETATM   29  O   UNK N   1      -8.623   2.773  -0.531  0.00  0.00    -0.260 OA
HETATM   30  N   UNK N   1      -6.657   2.102   0.284  0.00  0.00    -0.287 N 
HETATM   31  C   UNK N   1      -6.032   0.964   0.583  0.00  0.00     0.239 C 
HETATM   32  H   UNK N   1      -6.235   2.991   0.317  0.00  0.00     0.172 HD
HETATM   33  O   UNK N   1      -4.944   0.956   1.134  0.00  0.00    -0.272 OA
ENDBRANCH  25  26
ENDBRANCH  22  25
ENDBRANCH  18  19
ENDBRANCH   1  18
TORSDOF 6
