REMARK  10 active torsions:
REMARK  status: ('A' for Active; 'I' for Inactive)
REMARK    1  A    between atoms: C_1  and  C_2 
REMARK    2  A    between atoms: C_2  and  C_3 
REMARK    3  A    between atoms: C_3  and  C_4 
REMARK    4  A    between atoms: C_3  and  N_21 
REMARK    5  A    between atoms: C_7  and  C_8 
REMARK       I    between atoms: C_7  and  N_21 
REMARK    6  A    between atoms: C_8  and  N_22 
REMARK    7  A    between atoms: C_10  and  N_23 
REMARK    8  A    between atoms: C_13  and  C_14 
REMARK    9  A    between atoms: N_23  and  S_33 
REMARK   10  A    between atoms: N_24  and  S_33 
ROOT
HETATM    1  C   UNK N   1       0.752   1.731   0.798  0.00  0.00     0.276 A 
HETATM    2  C   UNK N   1       0.843   2.998   0.202  0.00  0.00     0.112 A 
HETATM    3  C   UNK N   1       2.030   3.392  -0.386  0.00  0.00     0.038 A 
HETATM    4  C   UNK N   1       3.103   2.520  -0.419  0.00  0.00     0.033 A 
HETATM    5  C   UNK N   1       3.005   1.229   0.124  0.00  0.00     0.048 A 
HETATM    6  N   UNK N   1       1.822   0.842   0.739  0.00  0.00    -0.303 N 
HETATM    7  O   UNK N   1      -0.273   1.428   1.383  0.00  0.00    -0.265 OA
ENDROOT
BRANCH   6   8
HETATM    8  C   UNK N   1       1.695  -0.465   1.412  0.00  0.00     0.235 C 
BRANCH   8   9
HETATM    9  C   UNK N   1       0.711  -1.427   0.786  0.00  0.00     0.236 C 
HETATM   10  N   UNK N   1      -0.567  -1.030   0.552  0.00  0.00    -0.348 N 
HETATM   11  H   UNK N   1      -0.750  -0.073   0.692  0.00  0.00     0.163 HD
HETATM   12  O   UNK N   1       1.047  -2.589   0.621  0.00  0.00    -0.272 OA
BRANCH  10  13
HETATM   13  C   UNK N   1      -1.706  -1.837   0.121  0.00  0.00     0.167 C 
BRANCH  13  14
HETATM   14  C   UNK N   1      -2.955  -0.968   0.355  0.00  0.00     0.255 C 
HETATM   15  O   UNK N   1      -2.815   0.153   0.826  0.00  0.00    -0.286 OA
BRANCH  14  16
HETATM   16  C   UNK N   1      -4.367  -1.435   0.087  0.00  0.00     0.453 C 
HETATM   17  F   UNK N   1      -4.585  -1.606  -1.266  0.00  0.00    -0.163 F 
HETATM   18  F   UNK N   1      -5.270  -0.483   0.530  0.00  0.00    -0.163 F 
HETATM   19  F   UNK N   1      -4.608  -2.617   0.760  0.00  0.00    -0.163 F 
ENDBRANCH  14  16
ENDBRANCH  13  14
BRANCH  13  20
HETATM   20  C   UNK N   1      -1.592  -2.304  -1.361  0.00  0.00     0.008 C 
HETATM   21  C   UNK N   1      -0.266  -2.940  -1.727  0.00  0.00     0.012 C 
HETATM   22  C   UNK N   1      -2.638  -3.358  -1.686  0.00  0.00     0.012 C 
ENDBRANCH  13  20
ENDBRANCH  10  13
ENDBRANCH   8   9
ENDBRANCH   6   8
BRANCH   5  23
HETATM   23  C   UNK N   1       4.215   0.349  -0.011  0.00  0.00    -0.009 A 
HETATM   24  C   UNK N   1       5.422   0.906  -0.482  0.00  0.00     0.014 A 
HETATM   25  C   UNK N   1       6.561   0.118  -0.651  0.00  0.00     0.001 A 
HETATM   26  C   UNK N   1       6.510  -1.247  -0.369  0.00  0.00     0.000 A 
HETATM   27  C   UNK N   1       5.322  -1.820   0.088  0.00  0.00     0.001 A 
HETATM   28  C   UNK N   1       4.185  -1.026   0.268  0.00  0.00     0.014 A 
ENDBRANCH   5  23
BRANCH   2  29
HETATM   29  N   UNK N   1      -0.267   3.873   0.151  0.00  0.00    -0.263 N 
HETATM   30  H   UNK N   1      -0.226   4.745   0.607  0.00  0.00     0.180 HD
BRANCH  29  31
HETATM   31  S   UNK N   1      -1.719   3.406  -0.723  0.00  0.00     0.319 S 
HETATM   32  O   UNK N   1      -1.716   4.125  -2.083  0.00  0.00    -0.183 OA
HETATM   33  O   UNK N   1      -1.655   1.912  -1.073  0.00  0.00    -0.183 OA
BRANCH  31  34
HETATM   34  N   UNK N   1      -3.220   3.739   0.156  0.00  0.00    -0.307 N 
HETATM   35  C   UNK N   1      -3.876   4.876  -0.467  0.00  0.00     0.161 C 
HETATM   36  H   UNK N   1      -3.565   3.221   0.964  0.00  0.00     0.173 HD
ENDBRANCH  31  34
ENDBRANCH  29  31
ENDBRANCH   2  29
TORSDOF 10
