REMARK  3 active torsions:
REMARK  status: ('A' for Active; 'I' for Inactive)
REMARK    1  A    between atoms: C_1  and  N_17 
REMARK    2  A    between atoms: C_4  and  C_7 
REMARK    3  A    between atoms: C_13  and  O_16 
ROOT
HETATM    1  C   UNK N   1      -1.048   0.364  -0.000  0.00  0.00     0.087 A 
HETATM    2  N   UNK N   1      -0.144  -0.671  -0.000  0.00  0.00    -0.344 N 
HETATM    3  C   UNK N   1       1.163  -0.215  -0.000  0.00  0.00     0.052 A 
HETATM    4  S   UNK N   1      -0.212   1.807  -0.000  0.00  0.00    -0.069 SA
HETATM    5  C   UNK N   1       1.300   1.174  -0.000  0.00  0.00     0.036 A 
HETATM    6  C   UNK N   1       2.530   1.813  -0.000  0.00  0.00     0.057 A 
HETATM    7  C   UNK N   1       3.680   1.013   0.000  0.00  0.00     0.067 A 
HETATM    8  C   UNK N   1       3.570  -0.395   0.000  0.00  0.00     0.039 A 
HETATM    9  C   UNK N   1       2.307  -1.019   0.000  0.00  0.00     0.034 A 
HETATM   10  C   UNK N   1      -0.491  -2.087   0.000  0.00  0.00     0.157 C 
ENDROOT
BRANCH   1  11
HETATM   11  C   UNK N   1      -2.528   0.280  -0.000  0.00  0.00    -0.002 A 
HETATM   12  C   UNK N   1      -3.261   1.473   0.000  0.00  0.00     0.016 A 
HETATM   13  C   UNK N   1      -4.651   1.458   0.000  0.00  0.00     0.030 A 
HETATM   14  C   UNK N   1      -5.349   0.245   0.000  0.00  0.00     0.029 A 
HETATM   15  C   UNK N   1      -4.619  -0.959  -0.000  0.00  0.00     0.030 A 
HETATM   16  C   UNK N   1      -3.218  -0.941  -0.000  0.00  0.00     0.016 A 
BRANCH  14  17
HETATM   17  N   UNK N   1      -6.777   0.240   0.000  0.00  0.00    -0.390 N 
HETATM   18  C   UNK N   1      -7.515  -0.997  -0.000  0.00  0.00     0.149 C 
HETATM   19  C   UNK N   1      -7.517   1.479   0.000  0.00  0.00     0.149 C 
ENDBRANCH  14  17
ENDBRANCH   1  11
BRANCH   7  20
HETATM   20  O   UNK N   1       4.892   1.592   0.000  0.00  0.00    -0.361 OA
HETATM   21  H   UNK N   1       5.664   1.062   0.000  0.00  0.00     0.217 HD
ENDBRANCH   7  20
TORSDOF 3
