REMARK  6 active torsions:
REMARK  status: ('A' for Active; 'I' for Inactive)
REMARK    1  A    between atoms: C_1  and  C_20 
REMARK    2  A    between atoms: C_9  and  O_10 
REMARK    3  A    between atoms: P_11  and  O_10 
REMARK    4  A    between atoms: P_11  and  O_13 
REMARK    5  A    between atoms: P_11  and  C_14 
REMARK    6  A    between atoms: C_20  and  O_22 
ROOT
HETATM    1  C   UNK N   1       0.694   2.191  -0.111  0.00  0.00     0.148 C 
HETATM    2  C   UNK N   1      -0.794   2.428  -0.565  0.00  0.00     0.239 C 
HETATM    3  N   UNK N   1      -1.647   2.228   0.612  0.00  0.00     0.094 N 
HETATM    4  C   UNK N   1      -3.003   2.728   0.363  0.00  0.00     0.310 C 
HETATM    5  C   UNK N   1      -1.261   1.384  -1.588  0.00  0.00     0.039 C 
HETATM    6  C   UNK N   1      -1.849   0.265  -0.720  0.00  0.00     0.038 C 
HETATM    7  C   UNK N   1      -1.658   0.774   0.715  0.00  0.00     0.225 C 
HETATM    8  C   UNK N   1      -0.291   0.359   1.304  0.00  0.00     0.069 C 
HETATM    9  C   UNK N   1       0.889   0.707   0.363  0.00  0.00     0.149 C 
ENDROOT
BRANCH   9  10
HETATM   10  O   UNK N   1       0.856  -0.154  -0.764  0.00  0.00    -0.309 OA
BRANCH  10  11
HETATM   11  P   UNK N   1       1.574  -1.776  -0.636  0.00  0.00     0.273 P 
HETATM   12  O   UNK N   1       0.459  -2.006  -1.693  0.00  0.00    -0.650 OA
BRANCH  11  13
HETATM   13  O   UNK N   1       1.155  -1.805   1.053  0.00  0.00    -0.325 OA
HETATM   14  H   UNK N   1       1.024  -1.611   1.995  0.00  0.00     0.220 HD
ENDBRANCH  11  13
BRANCH  11  15
HETATM   15  C   UNK N   1       0.330  -3.130  -0.143  0.00  0.00     0.050 A 
HETATM   16  C   UNK N   1       0.759  -4.467  -0.146  0.00  0.00     0.019 A 
HETATM   17  C   UNK N   1      -0.122  -5.499   0.197  0.00  0.00     0.001 A 
HETATM   18  C   UNK N   1      -1.444  -5.213   0.552  0.00  0.00     0.000 A 
HETATM   19  C   UNK N   1      -1.897  -3.895   0.564  0.00  0.00     0.001 A 
HETATM   20  C   UNK N   1      -1.031  -2.858   0.217  0.00  0.00     0.019 A 
ENDBRANCH  11  15
ENDBRANCH  10  11
ENDBRANCH   9  10
BRANCH   1  21
HETATM   21  C   UNK N   1       1.707   2.630  -1.168  0.00  0.00     0.267 C 
HETATM   22  O   UNK N   1       2.487   1.814  -1.638  0.00  0.00    -0.265 OA
BRANCH  21  23
HETATM   23  O   UNK N   1       1.803   3.922  -1.581  0.00  0.00    -0.326 OA
HETATM   24  C   UNK N   1       1.115   4.968  -1.010  0.00  0.00     0.213 C 
ENDBRANCH  21  23
ENDBRANCH   1  21
TORSDOF 6
