REMARK  6 active torsions:
REMARK  status: ('A' for Active; 'I' for Inactive)
REMARK    1  A    between atoms: C_18  and  O_19 
REMARK    2  A    between atoms: O_19  and  C_21 
REMARK    3  A    between atoms: C_21  and  C_24 
REMARK    4  A    between atoms: C_23  and  C_24 
REMARK    5  A    between atoms: C_23  and  C_25 
REMARK    6  A    between atoms: C_25  and  O_27 
ROOT
HETATM    1  C   UNK N   1      -0.247   3.825   0.311  0.00  0.00     0.022 C 
HETATM    2  C   UNK N   1      -0.738   4.566  -0.917  0.00  0.00     0.084 C 
HETATM    3  C   UNK N   1      -2.136   5.006  -0.641  0.00  0.00     0.149 C 
HETATM    4  O   UNK N   1      -2.476   6.161  -0.832  0.00  0.00    -0.293 OA
HETATM    5  C   UNK N   1      -3.096   4.008  -0.150  0.00  0.00     0.053 C 
HETATM    6  C   UNK N   1      -2.651   2.890   0.446  0.00  0.00    -0.068 C 
HETATM    7  C   UNK N   1      -3.626   1.809   0.821  0.00  0.00     0.035 C 
HETATM    8  C   UNK N   1      -3.192   0.472   0.190  0.00  0.00     0.010 C 
HETATM    9  C   UNK N   1      -1.727   0.165   0.538  0.00  0.00    -0.004 C 
HETATM   10  C   UNK N   1      -0.762   1.308   0.071  0.00  0.00     0.002 C 
HETATM   11  C   UNK N   1      -1.168   2.654   0.737  0.00  0.00    -0.016 C 
HETATM   12  C   UNK N   1       0.714   0.997   0.445  0.00  0.00     0.007 C 
HETATM   13  C   UNK N   1       1.108  -0.488   0.456  0.00  0.00     0.012 C 
HETATM   14  C   UNK N   1       0.167  -1.329  -0.391  0.00  0.00    -0.013 C 
HETATM   15  C   UNK N   1      -1.241  -1.277   0.184  0.00  0.00     0.001 C 
HETATM   16  C   UNK N   1      -1.982  -2.265  -0.716  0.00  0.00     0.008 C 
HETATM   17  C   UNK N   1      -0.904  -3.354  -1.019  0.00  0.00     0.034 C 
HETATM   18  C   UNK N   1       0.399  -2.839  -0.368  0.00  0.00     0.140 C 
HETATM   19  C   UNK N   1       0.241  -0.825  -1.853  0.00  0.00     0.018 C 
HETATM   20  C   UNK N   1      -0.996   2.564   2.254  0.00  0.00     0.020 C 
ENDROOT
BRANCH  18  21
HETATM   21  O   UNK N   1       1.560  -3.189  -1.040  0.00  0.00    -0.315 OA
BRANCH  21  22
HETATM   22  C   UNK N   1       2.794  -2.866  -0.552  0.00  0.00     0.259 C 
HETATM   23  O   UNK N   1       2.951  -2.632   0.638  0.00  0.00    -0.265 OA
BRANCH  22  24
HETATM   24  C   UNK N   1       3.936  -2.670  -1.500  0.00  0.00     0.121 C 
BRANCH  24  25
HETATM   25  C   UNK N   1       5.191  -3.428  -1.085  0.00  0.00     0.119 C 
BRANCH  25  26
HETATM   26  C   UNK N   1       5.857  -2.797   0.101  0.00  0.00     0.139 C 
HETATM   27  O   UNK N   1       6.241  -1.638   0.052  0.00  0.00    -0.650 OA
BRANCH  26  28
HETATM   28  O   UNK N   1       6.039  -3.515   1.224  0.00  0.00    -0.776 OA
HETATM   29  H   UNK N   1       5.669  -3.875   2.006  0.00  0.00     0.167 HD
ENDBRANCH  26  28
ENDBRANCH  25  26
ENDBRANCH  24  25
ENDBRANCH  22  24
ENDBRANCH  21  22
ENDBRANCH  18  21
TORSDOF 6
