REMARK  8 active torsions:
REMARK  status: ('A' for Active; 'I' for Inactive)
REMARK    1  A    between atoms: C_5  and  C_6 
REMARK    2  A    between atoms: C_6  and  O_7 
REMARK    3  A    between atoms: C_11  and  C_12 
REMARK    4  A    between atoms: C_12  and  C_13 
REMARK    5  A    between atoms: C_12  and  N_16 
REMARK    6  A    between atoms: C_13  and  O_15 
REMARK       I    between atoms: N_16  and  C_17 
REMARK    7  A    between atoms: C_17  and  C_19 
REMARK    8  A    between atoms: C_19  and  C_20 
ROOT
HETATM    1  C   UNK N   1      -1.024  -0.910  -0.199  0.00  0.00     0.239 C 
ENDROOT
BRANCH   1   2
HETATM    2  C   UNK N   1      -1.551   0.506  -0.347  0.00  0.00     0.077 C 
HETATM    3  S   UNK N   1      -3.239   0.787  -0.928  0.00  0.00    -0.110 SA
HETATM    4  C   UNK N   1      -3.484   2.030   0.381  0.00  0.00     0.116 C 
HETATM    5  C   UNK N   1      -2.590   3.180   0.054  0.00  0.00    -0.047 C 
HETATM    6  C   UNK N   1      -3.127   4.384  -0.148  0.00  0.00     0.017 C 
HETATM    7  C   UNK N   1      -1.139   2.905  -0.314  0.00  0.00     0.210 C 
HETATM    8  N   UNK N   1      -0.777   1.513  -0.085  0.00  0.00    -0.368 N 
ATOM      9  HN  UNK N   1       0.144   1.317   0.307  1.00  0.00     0.161 HD
BRANCH   7  10
HETATM   10  C   UNK N   1      -0.139   3.779   0.402  0.00  0.00     0.168 C 
HETATM   11  O   UNK N   1      -0.496   4.589   1.243  0.00  0.00    -0.648 OA
BRANCH  10  12
HETATM   12  O   UNK N   1       1.170   3.667   0.103  0.00  0.00    -0.775 OA
HETATM   13  H   UNK N   1       1.558   2.840  -0.105  0.00  0.00     0.167 HD
ENDBRANCH  10  12
ENDBRANCH   7  10
ENDBRANCH   1   2
BRANCH   1  14
HETATM   14  C   UNK N   1      -1.877  -1.793   0.680  0.00  0.00     0.170 C 
HETATM   15  O   UNK N   1      -1.576  -2.968   0.821  0.00  0.00    -0.648 OA
BRANCH  14  16
HETATM   16  O   UNK N   1      -2.965  -1.310   1.310  0.00  0.00    -0.775 OA
HETATM   17  H   UNK N   1      -3.053  -0.486   1.749  0.00  0.00     0.167 HD
ENDBRANCH  14  16
ENDBRANCH   1  14
BRANCH   1  18
HETATM   18  N   UNK N   1       0.316  -0.875   0.363  0.00  0.00    -0.341 N 
HETATM   19  C   UNK N   1       1.451  -1.167  -0.318  0.00  0.00     0.223 C 
HETATM   20  O   UNK N   1       1.416  -1.452  -1.507  0.00  0.00    -0.273 OA
HETATM   21  H   UNK N   1       0.406  -0.620   1.309  0.00  0.00     0.163 HD
BRANCH  19  22
HETATM   22  C   UNK N   1       2.761  -1.073   0.398  0.00  0.00     0.148 C 
BRANCH  22  23
HETATM   23  C   UNK N   1       3.593  -2.303   0.253  0.00  0.00    -0.009 A 
HETATM   24  C   UNK N   1       4.934  -2.329  -0.120  0.00  0.00     0.015 A 
HETATM   25  C   UNK N   1       5.472  -3.647  -0.151  0.00  0.00     0.008 A 
HETATM   26  C   UNK N   1       4.553  -4.649   0.197  0.00  0.00     0.050 A 
HETATM   27  S   UNK N   1       3.129  -3.865   0.532  0.00  0.00    -0.106 SA
ENDBRANCH  22  23
ENDBRANCH  19  22
ENDBRANCH   1  18
TORSDOF 8
