REMARK  3 active torsions:
REMARK  status: ('A' for Active; 'I' for Inactive)
REMARK    1  A    between atoms: C_6  and  C_10 
REMARK    2  A    between atoms: C_7  and  O_8 
REMARK    3  A    between atoms: C_11  and  C_13 
ROOT
HETATM    1  O   UNK N   1       1.946  -4.409   1.117  0.00  0.00    -0.280 OA
HETATM    2  C   UNK N   1       1.387  -3.430   0.646  0.00  0.00     0.218 A 
HETATM    3  C   UNK N   1       0.085  -3.491   0.024  0.00  0.00     0.026 A 
HETATM    4  C   UNK N   1      -0.759  -4.723  -0.024  0.00  0.00     0.056 C 
HETATM    5  S   UNK N   1       2.123  -1.801   0.638  0.00  0.00    -0.067 SA
HETATM    6  C   UNK N   1       0.734  -1.221  -0.439  0.00  0.00     0.079 A 
HETATM    7  C   UNK N   1      -0.265  -2.345  -0.537  0.00  0.00     0.076 A 
HETATM    8  C   UNK N   1       1.258  -0.953  -1.841  0.00  0.00     0.039 C 
ENDROOT
BRANCH   6   9
HETATM    9  C   UNK N   1       0.015  -0.002   0.091  0.00  0.00     0.007 C 
HETATM   10  C   UNK N   1       0.519   1.238   0.196  0.00  0.00    -0.064 C 
HETATM   11  C   UNK N   1       1.931   1.553  -0.204  0.00  0.00     0.048 C 
BRANCH  10  12
HETATM   12  C   UNK N   1      -0.424   2.322   0.530  0.00  0.00     0.002 C 
HETATM   13  C   UNK N   1      -0.117   3.607   0.362  0.00  0.00    -0.030 C 
HETATM   14  C   UNK N   1      -1.138   4.656   0.637  0.00  0.00     0.036 C 
ENDBRANCH  10  12
ENDBRANCH   6   9
BRANCH   7  15
HETATM   15  O   UNK N   1      -1.435  -2.202  -1.196  0.00  0.00    -0.362 OA
HETATM   16  H   UNK N   1      -1.755  -1.450  -1.654  0.00  0.00     0.217 HD
ENDBRANCH   7  15
TORSDOF 3
