REMARK  3 active torsions:
REMARK  status: ('A' for Active; 'I' for Inactive)
REMARK    1  A    between atoms: C_4  and  C_10 
REMARK    2  A    between atoms: C_6  and  O_7 
REMARK    3  A    between atoms: C_11  and  C_12 
ROOT
HETATM    1  O   UNK N   1      -2.567  -3.072   0.000  0.00  0.00    -0.280 OA
HETATM    2  C   UNK N   1      -2.012  -1.985  -0.000  0.00  0.00     0.218 A 
HETATM    3  S   UNK N   1      -2.878  -0.469  -0.001  0.00  0.00    -0.067 SA
HETATM    4  C   UNK N   1      -1.324   0.567   0.001  0.00  0.00     0.079 A 
HETATM    5  C   UNK N   1      -2.588   1.402   0.001  0.00  0.00     0.039 A 
HETATM    6  C   UNK N   1      -0.225  -0.543   0.000  0.00  0.00     0.076 A 
HETATM    7  C   UNK N   1      -0.606  -1.816   0.000  0.00  0.00     0.026 A 
HETATM    8  C   UNK N   1       0.350  -2.968  -0.000  0.00  0.00     0.056 C 
ENDROOT
BRANCH   4   9
HETATM    9  C   UNK N   1      -0.778   1.997  -0.001  0.00  0.00     0.001 C 
HETATM   10  C   UNK N   1       0.374   2.697  -0.001  0.00  0.00    -0.003 C 
BRANCH  10  11
HETATM   11  C   UNK N   1       1.743   2.190   0.001  0.00  0.00    -0.011 C 
HETATM   12  C   UNK N   1       2.766   3.035   0.000  0.00  0.00     0.011 C 
ENDBRANCH  10  11
ENDBRANCH   4   9
BRANCH   6  13
HETATM   13  O   UNK N   1       1.089  -0.277   0.000  0.00  0.00    -0.362 OA
HETATM   14  H   UNK N   1       1.709  -0.979  -0.000  0.00  0.00     0.217 HD
ENDBRANCH   6  13
TORSDOF 3
