REMARK  3 active torsions:
REMARK  status: ('A' for Active; 'I' for Inactive)
REMARK    1  A    between atoms: C_2  and  N_13 
REMARK    2  A    between atoms: N_13  and  S_14 
REMARK    3  A    between atoms: S_14  and  C_17 
ROOT
HETATM    1  S   UNK N   1      -1.206   2.694  -0.381  0.00  0.00     0.263 S 
HETATM    2  O   UNK N   1      -1.640   2.715  -1.855  0.00  0.00    -0.200 OA
HETATM    3  O   UNK N   1      -0.721   4.141  -0.204  0.00  0.00    -0.200 OA
ENDROOT
BRANCH   1   4
HETATM    4  N   UNK N   1      -2.705   2.650   0.535  0.00  0.00    -0.281 N 
HETATM    5  H   UNK N   1      -2.869   3.357   1.200  0.00  0.00     0.179 HD
BRANCH   4   6
HETATM    6  C   UNK N   1      -3.692   1.642   0.362  0.00  0.00     0.042 A 
HETATM    7  C   UNK N   1      -3.402   0.455  -0.321  0.00  0.00     0.032 A 
HETATM    8  C   UNK N   1      -4.396  -0.517  -0.489  0.00  0.00     0.026 A 
HETATM    9  C   UNK N   1      -5.681  -0.295   0.013  0.00  0.00     0.034 A 
HETATM   10 Cl   UNK N   1      -6.929  -1.504  -0.209  0.00  0.00    -0.084 Cl
HETATM   11  C   UNK N   1      -5.973   0.891   0.690  0.00  0.00     0.026 A 
HETATM   12  C   UNK N   1      -4.976   1.857   0.869  0.00  0.00     0.032 A 
ENDBRANCH   4   6
ENDBRANCH   1   4
BRANCH   1  13
HETATM   13  C   UNK N   1       0.126   1.534  -0.084  0.00  0.00     0.080 A 
HETATM   14  C   UNK N   1      -0.143   0.184   0.166  0.00  0.00     0.026 A 
HETATM   15  C   UNK N   1       0.912  -0.723   0.319  0.00  0.00     0.009 A 
HETATM   16  C   UNK N   1       2.237  -0.287   0.215  0.00  0.00    -0.049 A 
HETATM   17  C   UNK N   1       3.356  -1.280   0.342  0.00  0.00     0.058 C 
HETATM   18  C   UNK N   1       2.507   1.076  -0.021  0.00  0.00    -0.033 A 
HETATM   19  C   UNK N   1       4.689  -0.684  -0.115  0.00  0.00     0.118 C 
HETATM   20  N   UNK N   1       4.875   0.638   0.475  0.00  0.00    -0.417 N 
HETATM   21  C   UNK N   1       3.922   1.573  -0.128  0.00  0.00     0.153 C 
HETATM   22  H   UNK N   1       5.559   0.873   1.193  0.00  0.00     0.153 HD
HETATM   23  C   UNK N   1       1.450   1.975  -0.178  0.00  0.00     0.034 A 
ENDBRANCH   1  13
TORSDOF 3
