REMARK  10 active torsions:
REMARK  status: ('A' for Active; 'I' for Inactive)
REMARK    1  A    between atoms: C_2  and  O_3 
REMARK    2  A    between atoms: C_2  and  C_4 
REMARK    3  A    between atoms: C_4  and  C_5 
REMARK    4  A    between atoms: C_5  and  C_6 
REMARK    5  A    between atoms: C_6  and  C_7 
REMARK    6  A    between atoms: C_7  and  N_8 
REMARK    7  A    between atoms: N_8  and  C_10 
REMARK    8  A    between atoms: C_15  and  C_16 
REMARK    9  A    between atoms: C_17  and  C_18 
REMARK   10  A    between atoms: C_22  and  N_24 
ROOT
HETATM    1  C   UNK N   1      -0.543   4.461   0.000  0.00  0.00     0.029 A 
HETATM    2  C   UNK N   1       0.730   5.054  -0.000  0.00  0.00     0.030 A 
HETATM    3  C   UNK N   1       1.878   4.242   0.000  0.00  0.00     0.013 A 
HETATM    4  C   UNK N   1      -0.639   3.058  -0.000  0.00  0.00     0.030 A 
HETATM    5  C   UNK N   1       0.489   2.261   0.000  0.00  0.00     0.013 A 
HETATM    6  C   UNK N   1       1.755   2.843  -0.000  0.00  0.00    -0.036 A 
ENDROOT
BRANCH   6   7
HETATM    7  C   UNK N   1       2.950   1.989   0.000  0.00  0.00     0.012 C 
HETATM    8  C   UNK N   1       2.847   0.652  -0.000  0.00  0.00     0.012 C 
BRANCH   8   9
HETATM    9  C   UNK N   1       4.021  -0.226   0.000  0.00  0.00    -0.036 A 
HETATM   10  C   UNK N   1       5.316   0.307   0.000  0.00  0.00     0.014 A 
HETATM   11  C   UNK N   1       6.423  -0.540   0.000  0.00  0.00     0.037 A 
HETATM   12  C   UNK N   1       6.250  -1.932   0.000  0.00  0.00     0.102 A 
HETATM   13  C   UNK N   1       4.951  -2.464  -0.000  0.00  0.00     0.037 A 
HETATM   14  C   UNK N   1       3.841  -1.613   0.000  0.00  0.00     0.014 A 
BRANCH  12  15
HETATM   15  N   UNK N   1       7.381  -2.793  -0.000  0.00  0.00    -0.116 N 
HETATM   16  O   UNK N   1       8.485  -2.338   0.000  0.00  0.00    -0.532 OA
HETATM   17  O   UNK N   1       7.219  -4.100   0.000  0.00  0.00    -0.532 OA
ENDBRANCH  12  15
ENDBRANCH   8   9
ENDBRANCH   6   7
BRANCH   1  18
HETATM   18  N   UNK N   1      -1.746   5.229  -0.000  0.00  0.00    -0.385 N 
HETATM   19  C   UNK N   1      -1.732   6.674   0.000  0.00  0.00     0.149 C 
BRANCH  18  20
HETATM   20  C   UNK N   1      -2.980   4.478   0.000  0.00  0.00     0.122 C 
BRANCH  20  21
HETATM   21  C   UNK N   1      -4.316   5.165   0.000  0.00  0.00     0.020 C 
BRANCH  21  22
HETATM   22  C   UNK N   1      -5.166   3.917  -0.000  0.00  0.00     0.012 C 
BRANCH  22  23
HETATM   23  C   UNK N   1      -6.666   4.054   0.000  0.00  0.00     0.110 C 
BRANCH  23  24
HETATM   24  C   UNK N   1      -7.257   2.667   0.000  0.00  0.00     0.139 C 
HETATM   25  O   UNK N   1      -8.467   2.527  -0.000  0.00  0.00    -0.650 OA
BRANCH  24  26
HETATM   26  O   UNK N   1      -6.464   1.571  -0.000  0.00  0.00    -0.776 OA
HETATM   27  H   UNK N   1      -6.846   0.716  -0.000  0.00  0.00     0.167 HD
ENDBRANCH  24  26
ENDBRANCH  23  24
ENDBRANCH  22  23
ENDBRANCH  21  22
ENDBRANCH  20  21
ENDBRANCH  18  20
ENDBRANCH   1  18
TORSDOF 10
