REMARK  9 active torsions:
REMARK  status: ('A' for Active; 'I' for Inactive)
REMARK    1  A    between atoms: C_1  and  C_2 
REMARK    2  A    between atoms: C_2  and  C_3 
REMARK    3  A    between atoms: C_2  and  C_5 
REMARK    4  A    between atoms: C_3  and  C_4 
REMARK    5  A    between atoms: C_3  and  C_10 
REMARK    6  A    between atoms: C_4  and  O_8 
REMARK    7  A    between atoms: C_10  and  N_11 
REMARK    8  A    between atoms: N_11  and  S_14 
REMARK    9  A    between atoms: S_14  and  C_15 
ROOT
HETATM    1  N   UNK N   1       0.141  -0.167  -0.964  0.00  0.00    -0.315 N 
HETATM    2  H   UNK N   1       0.339   0.744  -1.378  0.00  0.00     0.172 HD
ENDROOT
BRANCH   1   3
HETATM    3  C   UNK N   1       0.810  -1.407  -1.339  0.00  0.00     0.148 C 
BRANCH   3   4
HETATM    4  C   UNK N   1       2.285  -1.488  -0.879  0.00  0.00     0.112 C 
BRANCH   4   5
HETATM    5  C   UNK N   1       2.954  -0.082  -0.730  0.00  0.00     0.062 C 
BRANCH   5   6
HETATM    6  C   UNK N   1       2.486   0.639   0.511  0.00  0.00     0.236 C 
HETATM    7  O   UNK N   1       2.836   1.786   0.740  0.00  0.00    -0.306 OA
ENDBRANCH   5   6
BRANCH   5   8
HETATM    8  C   UNK N   1       4.490  -0.105  -0.818  0.00  0.00     0.008 C 
HETATM    9  C   UNK N   1       5.213  -0.615   0.417  0.00  0.00     0.006 C 
ENDBRANCH   5   8
ENDBRANCH   4   5
BRANCH   4  10
HETATM   10  C   UNK N   1       2.411  -2.379   0.345  0.00  0.00     0.146 C 
HETATM   11  O   UNK N   1       3.508  -2.747   0.729  0.00  0.00    -0.650 OA
BRANCH  10  12
HETATM   12  O   UNK N   1       1.313  -2.819   0.991  0.00  0.00    -0.776 OA
HETATM   13  H   UNK N   1       0.667  -2.310   1.440  0.00  0.00     0.167 HD
ENDBRANCH  10  12
ENDBRANCH   4  10
ENDBRANCH   3   4
ENDBRANCH   1   3
BRANCH   1  14
HETATM   14  S   UNK N   1      -1.061  -0.452   0.305  0.00  0.00     0.258 S 
HETATM   15  O   UNK N   1      -0.304  -0.270   1.628  0.00  0.00    -0.201 OA
HETATM   16  O   UNK N   1      -1.378  -1.957   0.296  0.00  0.00    -0.201 OA
BRANCH  14  17
HETATM   17  C   UNK N   1      -2.525   0.564   0.213  0.00  0.00     0.079 A 
HETATM   18  C   UNK N   1      -3.788  -0.028   0.121  0.00  0.00     0.026 A 
HETATM   19  C   UNK N   1      -4.931   0.772   0.040  0.00  0.00     0.008 A 
HETATM   20  C   UNK N   1      -4.811   2.166   0.049  0.00  0.00    -0.062 A 
HETATM   21  C   UNK N   1      -3.548   2.758   0.138  0.00  0.00     0.008 A 
HETATM   22  C   UNK N   1      -6.026   3.016  -0.036  0.00  0.00     0.048 C 
HETATM   23  C   UNK N   1      -2.405   1.958   0.219  0.00  0.00     0.026 A 
ENDBRANCH  14  17
ENDBRANCH   1  14
TORSDOF 9
