REMARK  10 active torsions:
REMARK  status: ('A' for Active; 'I' for Inactive)
REMARK    1  A    between atoms: C_2  and  C_3 
REMARK    2  A    between atoms: C_3  and  C_4 
REMARK    3  A    between atoms: C_6  and  C_3 
REMARK       I    between atoms: N_7  and  C_16 
REMARK    4  A    between atoms: C_10  and  N_11 
REMARK    5  A    between atoms: N_11  and  S_12 
REMARK    6  A    between atoms: C_16  and  C_18 
REMARK    7  A    between atoms: C_18  and  C_19 
REMARK    8  A    between atoms: C_18  and  N_22 
REMARK       I    between atoms: N_22  and  C_23 
REMARK    9  A    between atoms: C_23  and  O_25 
REMARK   10  A    between atoms: O_25  and  C_26 
ROOT
HETATM    1  C   UNK N   1      -1.916  -1.020  -0.323  0.00  0.00     0.121 C 
HETATM    2  N   UNK N   1      -0.843  -0.120   0.104  0.00  0.00    -0.343 N 
HETATM    3  C   UNK N   1       0.304  -0.836   0.589  0.00  0.00     0.128 C 
HETATM    4  C   UNK N   1       0.170  -2.191  -0.055  0.00  0.00     0.048 C 
HETATM    5  C   UNK N   1      -1.328  -2.421  -0.009  0.00  0.00     0.118 C 
HETATM    6  C   UNK N   1      -0.829   1.244  -0.124  0.00  0.00     0.243 C 
HETATM    7  O   UNK N   1      -1.800   1.766  -0.647  0.00  0.00    -0.271 OA
ENDROOT
BRANCH   1   8
HETATM    8  C   UNK N   1      -3.296  -0.809   0.396  0.00  0.00     0.072 C 
BRANCH   8   9
HETATM    9  C   UNK N   1      -4.032   0.412  -0.080  0.00  0.00     0.237 C 
HETATM   10  O   UNK N   1      -4.329   1.309   0.692  0.00  0.00    -0.306 OA
ENDBRANCH   8   9
BRANCH   8  11
HETATM   11  C   UNK N   1      -4.248  -2.004   0.227  0.00  0.00     0.009 C 
HETATM   12  C   UNK N   1      -4.647  -2.276  -1.216  0.00  0.00     0.006 C 
ENDBRANCH   8  11
ENDBRANCH   1   8
BRANCH   6  13
HETATM   13  C   UNK N   1       0.375   2.170   0.165  0.00  0.00     0.182 C 
BRANCH  13  14
HETATM   14  C   UNK N   1       0.029   3.271   1.192  0.00  0.00     0.009 C 
HETATM   15  C   UNK N   1      -1.127   4.153   0.748  0.00  0.00     0.012 C 
HETATM   16  C   UNK N   1       1.225   4.175   1.452  0.00  0.00     0.012 C 
ENDBRANCH  13  14
BRANCH  13  17
HETATM   17  N   UNK N   1       1.546   1.456   0.648  0.00  0.00    -0.323 N 
HETATM   18  C   UNK N   1       2.701   1.316  -0.055  0.00  0.00     0.362 C 
HETATM   19  O   UNK N   1       2.802   1.786  -1.177  0.00  0.00    -0.238 OA
HETATM   20  H   UNK N   1       1.500   1.048   1.543  0.00  0.00     0.165 HD
BRANCH  18  21
HETATM   21  O   UNK N   1       3.732   0.627   0.518  0.00  0.00    -0.294 OA
BRANCH  21  22
HETATM   22  C   UNK N   1       4.984   0.304   0.000  0.00  0.00     0.061 C 
HETATM   23  C   UNK N   1       5.234   0.752  -1.434  0.00  0.00     0.046 C 
HETATM   24  C   UNK N   1       5.152  -1.200   0.054  0.00  0.00     0.046 C 
HETATM   25  C   UNK N   1       6.044   0.931   0.881  0.00  0.00     0.046 C 
ENDBRANCH  21  22
ENDBRANCH  18  21
ENDBRANCH  13  17
ENDBRANCH   6  13
BRANCH   5  26
HETATM   26  N   UNK N   1      -1.793  -3.418  -1.002  0.00  0.00    -0.313 N 
HETATM   27  H   UNK N   1      -2.329  -3.115  -1.816  0.00  0.00     0.172 HD
BRANCH  26  28
HETATM   28  S   UNK N   1      -1.414  -5.169  -0.776  0.00  0.00     0.223 S 
HETATM   29  O   UNK N   1      -1.000  -5.189   0.704  0.00  0.00    -0.206 OA
HETATM   30  O   UNK N   1       0.062  -4.753  -0.815  0.00  0.00    -0.206 OA
HETATM   31  C   UNK N   1      -2.741  -4.985   0.451  0.00  0.00     0.185 C 
ENDBRANCH  26  28
ENDBRANCH   5  26
TORSDOF 10
