REMARK  6 active torsions:
REMARK  status: ('A' for Active; 'I' for Inactive)
REMARK    1  A    between atoms: C_6  and  C_22 
REMARK    2  A    between atoms: C_9  and  C_10 
REMARK    3  A    between atoms: C_17  and  C_18 
REMARK    4  A    between atoms: C_17  and  C_22 
REMARK    5  A    between atoms: C_18  and  C_19 
REMARK    6  A    between atoms: C_19  and  O_21 
ROOT
HETATM    1  C   UNK N   1      -1.542   1.000  -0.078  0.00  0.00    -0.048 A 
HETATM    2  C   UNK N   1      -0.338   1.712  -0.144  0.00  0.00     0.016 A 
HETATM    3  C   UNK N   1       0.872   1.020  -0.149  0.00  0.00    -0.043 A 
HETATM    4  C   UNK N   1       0.905  -0.353  -0.108  0.00  0.00    -0.045 A 
HETATM    5  C   UNK N   1      -0.280  -1.090  -0.065  0.00  0.00     0.023 A 
HETATM    6  C   UNK N   1      -1.524  -0.430  -0.040  0.00  0.00     0.016 A 
HETATM    7  C   UNK N   1       2.219   1.607  -0.376  0.00  0.00    -0.016 C 
HETATM    8  C   UNK N   1       3.111   0.392  -0.006  0.00  0.00     0.003 C 
HETATM    9  C   UNK N   1       2.288  -0.885  -0.331  0.00  0.00     0.027 C 
HETATM   10  C   UNK N   1       4.520   0.428  -0.588  0.00  0.00     0.011 C 
HETATM   11  C   UNK N   1       2.324   2.014  -1.842  0.00  0.00     0.020 C 
HETATM   12  C   UNK N   1       2.516   2.804   0.517  0.00  0.00     0.020 C 
HETATM   13  C   UNK N   1      -2.799   1.799  -0.054  0.00  0.00     0.049 C 
ENDROOT
BRANCH   6  14
HETATM   14  C   UNK N   1      -2.756  -1.276  -0.025  0.00  0.00     0.160 C 
HETATM   15  O   UNK N   1      -2.659  -2.476   0.190  0.00  0.00    -0.292 OA
BRANCH  14  16
HETATM   16  C   UNK N   1      -4.093  -0.736  -0.425  0.00  0.00     0.094 C 
BRANCH  16  17
HETATM   17  C   UNK N   1      -4.951  -0.358   0.766  0.00  0.00     0.117 C 
BRANCH  17  18
HETATM   18  C   UNK N   1      -6.216   0.255   0.262  0.00  0.00     0.139 C 
HETATM   19  O   UNK N   1      -7.026  -0.424  -0.349  0.00  0.00    -0.650 OA
BRANCH  18  20
HETATM   20  O   UNK N   1      -6.456   1.564   0.463  0.00  0.00    -0.776 OA
HETATM   21  H   UNK N   1      -5.750   2.164   0.603  0.00  0.00     0.167 HD
ENDBRANCH  18  20
ENDBRANCH  17  18
ENDBRANCH  16  17
ENDBRANCH  14  16
ENDBRANCH   6  14
BRANCH   9  22
HETATM   22  C   UNK N   1       2.682  -2.079   0.566  0.00  0.00    -0.014 C 
HETATM   23  C   UNK N   1       4.120  -2.505   0.323  0.00  0.00     0.010 C 
HETATM   24  C   UNK N   1       1.797  -3.289   0.316  0.00  0.00     0.010 C 
ENDBRANCH   9  22
TORSDOF 6
