REMARK  5 active torsions:
REMARK  status: ('A' for Active; 'I' for Inactive)
REMARK    1  A    between atoms: C_1  and  C_11 
REMARK    2  A    between atoms: C_4  and  O_5 
REMARK    3  A    between atoms: C_9  and  C_14 
REMARK    4  A    between atoms: C_11  and  O_13 
REMARK    5  A    between atoms: C_14  and  O_16 
ROOT
HETATM    1  C   UNK N   1       0.571   1.007  -0.768  0.00  0.00     0.068 C 
HETATM    2  C   UNK N   1       0.685  -0.489  -1.024  0.00  0.00    -0.008 C 
HETATM    3  C   UNK N   1       0.911  -1.369  -0.033  0.00  0.00     0.004 C 
HETATM    4  C   UNK N   1       0.979  -0.931   1.410  0.00  0.00     0.169 C 
HETATM    5  C   UNK N   1       0.394   0.480   1.619  0.00  0.00     0.156 C 
HETATM    6  C   UNK N   1       1.062   1.406   0.614  0.00  0.00     0.059 C 
HETATM    7  O   UNK N   1      -1.039   0.512   1.588  0.00  0.00    -0.367 OA
HETATM    8  C   UNK N   1      -1.705   0.719   0.334  0.00  0.00     0.221 C 
HETATM    9  C   UNK N   1      -0.889   1.420  -0.770  0.00  0.00     0.067 C 
ENDROOT
BRANCH   1  10
HETATM   10  C   UNK N   1       1.384   1.745  -1.800  0.00  0.00     0.152 C 
HETATM   11  O   UNK N   1       0.861   2.558  -2.547  0.00  0.00    -0.649 OA
BRANCH  10  12
HETATM   12  O   UNK N   1       2.707   1.509  -1.902  0.00  0.00    -0.776 OA
HETATM   13  H   UNK N   1       3.025   0.630  -1.973  0.00  0.00     0.167 HD
ENDBRANCH  10  12
ENDBRANCH   1  10
BRANCH   8  14
HETATM   14  C   UNK N   1      -2.331  -0.551  -0.184  0.00  0.00     0.170 C 
HETATM   15  O   UNK N   1      -2.171  -1.610   0.400  0.00  0.00    -0.648 OA
BRANCH  14  16
HETATM   16  O   UNK N   1      -3.104  -0.511  -1.288  0.00  0.00    -0.774 OA
HETATM   17  H   UNK N   1      -3.348  -0.032  -2.055  0.00  0.00     0.167 HD
ENDBRANCH  14  16
ENDBRANCH   8  14
BRANCH   4  18
HETATM   18  O   UNK N   1       0.328  -1.852   2.231  0.00  0.00    -0.389 OA
HETATM   19  H   UNK N   1      -0.453  -1.779   2.802  0.00  0.00     0.210 HD
ENDBRANCH   4  18
TORSDOF 5
