REMARK  4 active torsions:
REMARK  status: ('A' for Active; 'I' for Inactive)
REMARK    1  A    between atoms: O_1  and  C_2 
REMARK    2  A    between atoms: C_2  and  N_3 
REMARK    3  A    between atoms: C_2  and  C_4 
REMARK    4  A    between atoms: C_4  and  C_5 
ROOT
HETATM    1  C   UNK N   1      -0.467   0.106  -0.012  0.00  0.00    -0.026 A 
HETATM    2  C   UNK N   1      -1.153  -1.009   0.476  0.00  0.00     0.096 A 
HETATM    3  N   UNK N   1      -0.267  -1.994   0.778  0.00  0.00    -0.365 N 
HETATM    4  C   UNK N   1       0.951  -1.501   0.484  0.00  0.00     0.042 A 
HETATM    5  C   UNK N   1       0.858  -0.228   0.004  0.00  0.00    -0.002 A 
HETATM    6  C   UNK N   1       2.177  -2.144   0.627  0.00  0.00     0.030 A 
HETATM    7  C   UNK N   1       3.336  -1.433   0.256  0.00  0.00     0.002 A 
HETATM    8  C   UNK N   1       3.238  -0.112  -0.240  0.00  0.00     0.001 A 
HETATM    9  C   UNK N   1       1.983   0.505  -0.370  0.00  0.00     0.014 A 
HETATM   10  H   UNK N   1      -0.473  -2.886   1.139  0.00  0.00     0.165 HD
ENDROOT
BRANCH   1  11
HETATM   11  C   UNK N   1      -0.983   1.443  -0.475  0.00  0.00     0.093 C 
BRANCH  11  12
HETATM   12  C   UNK N   1      -2.470   1.804  -0.384  0.00  0.00     0.215 C 
BRANCH  12  13
HETATM   13  O   UNK N   1      -2.586   2.988   0.341  0.00  0.00    -0.377 OA
HETATM   14  H   UNK N   1      -1.912   3.470   0.846  0.00  0.00     0.212 HD
ENDBRANCH  12  13
BRANCH  12  15
HETATM   15  N   UNK N   1      -3.283   0.780   0.247  0.00  0.00    -0.406 N 
HETATM   16  H   UNK N   1      -4.192   0.915   0.691  0.00  0.00     0.152 HD
HETATM   17  H   UNK N   1      -2.909  -0.169   0.247  0.00  0.00     0.152 HD
ENDBRANCH  12  15
ENDBRANCH  11  12
ENDBRANCH   1  11
TORSDOF 4
