REMARK  7 active torsions:
REMARK  status: ('A' for Active; 'I' for Inactive)
REMARK    1  A    between atoms: P_1  and  O_3 
REMARK    2  A    between atoms: P_1  and  O_4 
REMARK    3  A    between atoms: P_1  and  O_5 
REMARK    4  A    between atoms: O_5  and  C_6 
REMARK    5  A    between atoms: C_7  and  C_6 
REMARK    6  A    between atoms: C_9  and  S_10 
REMARK    7  A    between atoms: C_12  and  N_13 
ROOT
HETATM    1  C   UNK N   1      -0.862   1.439   0.327  0.00  0.00     0.162 C 
HETATM    2  O   UNK N   1       0.243   0.586   0.491  0.00  0.00    -0.358 OA
HETATM    3  C   UNK N   1      -2.039   0.479   0.187  0.00  0.00     0.079 C 
HETATM    4  C   UNK N   1      -1.462  -0.660  -0.613  0.00  0.00     0.072 C 
HETATM    5  C   UNK N   1       0.046  -0.416  -0.492  0.00  0.00     0.233 C 
ENDROOT
BRANCH   5   6
HETATM    6  N   UNK N   1       0.861  -1.612  -0.204  0.00  0.00    -0.282 N 
HETATM    7  C   UNK N   1       2.238  -1.489  -0.114  0.00  0.00     0.331 A 
HETATM    8  O   UNK N   1       2.772  -0.400  -0.229  0.00  0.00    -0.246 OA
HETATM    9  N   UNK N   1       3.015  -2.597   0.090  0.00  0.00    -0.275 N 
HETATM   10  C   UNK N   1       2.456  -3.838   0.205  0.00  0.00     0.256 A 
HETATM   11  H   UNK N   1       3.992  -2.498   0.156  0.00  0.00     0.173 HD
HETATM   12  O   UNK N   1       3.173  -4.809   0.371  0.00  0.00    -0.267 OA
HETATM   13  C   UNK N   1       1.068  -3.980   0.124  0.00  0.00     0.022 A 
HETATM   14  C   UNK N   1       0.418  -5.317   0.237  0.00  0.00     0.056 C 
HETATM   15  C   UNK N   1       0.285  -2.844  -0.082  0.00  0.00     0.110 A 
ENDBRANCH   5   6
BRANCH   1  16
HETATM   16  C   UNK N   1      -0.572   2.373  -0.876  0.00  0.00     0.213 C 
BRANCH  16  17
HETATM   17  O   UNK N   1      -1.605   3.278  -1.142  0.00  0.00    -0.294 OA
BRANCH  17  18
HETATM   18  P   UNK N   1      -1.410   4.605  -0.030  0.00  0.00     0.390 P 
HETATM   19  O   UNK N   1      -1.818   5.899  -0.781  0.00  0.00    -0.632 OA
BRANCH  18  20
HETATM   20  O   UNK N   1      -2.488   4.434   1.319  0.00  0.00    -0.307 OA
HETATM   21  H   UNK N   1      -2.873   4.909   2.072  0.00  0.00     0.222 HD
ENDBRANCH  18  20
BRANCH  18  22
HETATM   22  O   UNK N   1       0.235   4.816   0.491  0.00  0.00    -0.307 OA
HETATM   23  H   UNK N   1       0.796   4.080   0.781  0.00  0.00     0.222 HD
ENDBRANCH  18  22
ENDBRANCH  17  18
ENDBRANCH  16  17
ENDBRANCH   1  16
BRANCH   3  24
HETATM   24  S   UNK N   1      -3.569   1.162  -0.528  0.00  0.00    -0.175 SA
HETATM   25  H   UNK N   1      -3.699   2.406  -1.061  0.00  0.00     0.102 HD
ENDBRANCH   3  24
TORSDOF 7
