REMARK  2 active torsions:
REMARK  status: ('A' for Active; 'I' for Inactive)
REMARK    1  A    between atoms: C_2  and  O_1 
REMARK    2  A    between atoms: C_11  and  N_12 
ROOT
HETATM    1  C   UNK N   1      -0.574   1.302  -0.166  0.00  0.00     0.173 C 
HETATM    2  C   UNK N   1       0.658   0.442   0.001  0.00  0.00    -0.021 A 
HETATM    3  C   UNK N   1       1.908   1.061   0.128  0.00  0.00     0.010 A 
HETATM    4  C   UNK N   1       3.063   0.293   0.294  0.00  0.00     0.001 A 
HETATM    5  C   UNK N   1       2.979  -1.100   0.324  0.00  0.00     0.001 A 
HETATM    6  C   UNK N   1       1.742  -1.730   0.176  0.00  0.00     0.007 A 
HETATM    7  C   UNK N   1       0.576  -0.972   0.009  0.00  0.00    -0.049 A 
HETATM    8  C   UNK N   1      -0.728  -1.698  -0.189  0.00  0.00     0.041 C 
HETATM    9  C   UNK N   1      -1.863  -0.792  -0.676  0.00  0.00     0.032 C 
HETATM   10  C   UNK N   1      -1.863   0.511   0.105  0.00  0.00     0.107 C 
ENDROOT
BRANCH  10  11
HETATM   11  N   UNK N   1      -3.031   1.303  -0.249  0.00  0.00    -0.423 N 
HETATM   12  H   UNK N   1      -2.959   2.290  -0.497  0.00  0.00     0.150 HD
HETATM   13  H   UNK N   1      -3.948   0.858  -0.249  0.00  0.00     0.150 HD
ENDBRANCH  10  11
BRANCH   1  14
HETATM   14  O   UNK N   1      -0.575   1.840  -1.456  0.00  0.00    -0.389 OA
HETATM   15  H   UNK N   1      -0.253   2.028  -2.351  0.00  0.00     0.210 HD
ENDBRANCH   1  14
TORSDOF 2
