REMARK  0 active torsions:
REMARK  status: ('A' for Active; 'I' for Inactive)
REMARK       I    between atoms: N_7  and  C_8 
ROOT
HETATM    1  C   UNK N   1       3.319   0.411   0.000  0.00  0.00     0.086 A 
HETATM    2  C   UNK N   1       2.794   1.857  -0.000  0.00  0.00     0.012 A 
HETATM    3  C   UNK N   1       1.284   2.110   0.000  0.00  0.00     0.042 A 
HETATM    4  C   UNK N   1       0.435   0.887   0.000  0.00  0.00    -0.015 A 
HETATM    5  C   UNK N   1       0.864  -0.429  -0.000  0.00  0.00     0.095 A 
HETATM    6  C   UNK N   1      -0.928   0.864   0.000  0.00  0.00    -0.000 A 
HETATM    7  N   UNK N   1      -0.231  -1.276  -0.000  0.00  0.00    -0.278 N 
HETATM    8  C   UNK N   1      -0.324  -2.669  -0.000  0.00  0.00     0.225 C 
HETATM    9  O   UNK N   1      -1.422  -3.206  -0.000  0.00  0.00    -0.273 OA
HETATM   10  C   UNK N   1       0.857  -3.571  -0.000  0.00  0.00     0.118 C 
HETATM   11  C   UNK N   1      -1.316  -0.448  -0.000  0.00  0.00     0.053 A 
HETATM   12  C   UNK N   1      -1.838   1.917   0.000  0.00  0.00     0.014 A 
HETATM   13  C   UNK N   1      -2.675  -0.787  -0.000  0.00  0.00     0.031 A 
HETATM   14  C   UNK N   1      -3.205   1.601   0.000  0.00  0.00     0.001 A 
HETATM   15  C   UNK N   1      -3.623   0.254  -0.000  0.00  0.00     0.002 A 
HETATM   16  C   UNK N   1       2.322  -0.716   0.000  0.00  0.00     0.177 A 
HETATM   17  O   UNK N   1       2.758  -1.850   0.000  0.00  0.00    -0.291 OA
ENDROOT
TORSDOF 0
