REMARK  4 active torsions:
REMARK  status: ('A' for Active; 'I' for Inactive)
REMARK    1  A    between atoms: C_1  and  C_2 
REMARK       I    between atoms: C_1  and  N_18 
REMARK    2  A    between atoms: C_11  and  N_17 
REMARK    3  A    between atoms: N_18  and  C_19 
REMARK    4  A    between atoms: C_19  and  C_21 
ROOT
HETATM    1  C   UNK N   1      -0.294  -2.060  -0.054  0.00  0.00     0.252 C 
HETATM    2  O   UNK N   1       0.627  -2.866  -0.055  0.00  0.00    -0.268 OA
HETATM    3  N   UNK N   1      -0.047  -0.731  -0.077  0.00  0.00    -0.349 N 
HETATM    4  H   UNK N   1      -0.835  -0.142  -0.055  0.00  0.00     0.163 HD
ENDROOT
BRANCH   3   5
HETATM    5  C   UNK N   1       1.239  -0.072  -0.131  0.00  0.00     0.114 C 
HETATM    6  C   UNK N   1       1.934  -0.417  -1.442  0.00  0.00     0.037 C 
BRANCH   5   7
HETATM    7  C   UNK N   1       1.008   1.431  -0.033  0.00  0.00    -0.025 A 
HETATM    8  C   UNK N   1       2.073   2.363  -0.001  0.00  0.00    -0.018 A 
HETATM    9  C   UNK N   1       1.788   3.750   0.097  0.00  0.00    -0.025 A 
HETATM   10  C   UNK N   1       3.411   1.946  -0.058  0.00  0.00     0.013 A 
HETATM   11  C   UNK N   1       0.468   4.197   0.162  0.00  0.00     0.012 A 
HETATM   12  C   UNK N   1       2.829   4.680   0.130  0.00  0.00     0.012 A 
HETATM   13  C   UNK N   1      -0.581   3.283   0.135  0.00  0.00     0.002 A 
HETATM   14  C   UNK N   1      -0.314   1.920   0.040  0.00  0.00     0.010 A 
HETATM   15  C   UNK N   1       4.155   4.248   0.069  0.00  0.00     0.001 A 
HETATM   16  C   UNK N   1       4.446   2.885  -0.024  0.00  0.00     0.001 A 
ENDBRANCH   5   7
ENDBRANCH   3   5
BRANCH   1  17
HETATM   17  C   UNK N   1      -1.716  -2.496  -0.032  0.00  0.00     0.040 A 
HETATM   18  C   UNK N   1      -2.138  -3.847  -0.007  0.00  0.00    -0.046 A 
HETATM   19  C   UNK N   1      -1.174  -4.984   0.008  0.00  0.00     0.049 C 
HETATM   20  C   UNK N   1      -3.508  -4.143   0.003  0.00  0.00     0.010 A 
HETATM   21  C   UNK N   1      -4.460  -3.119  -0.012  0.00  0.00     0.029 A 
HETATM   22  C   UNK N   1      -4.048  -1.788  -0.035  0.00  0.00     0.026 A 
HETATM   23  C   UNK N   1      -2.692  -1.484  -0.045  0.00  0.00     0.046 A 
BRANCH  22  24
HETATM   24  N   UNK N   1      -4.999  -0.749  -0.051  0.00  0.00    -0.399 N 
HETATM   25  H   UNK N   1      -4.702   0.190  -0.063  0.00  0.00     0.156 HD
HETATM   26  H   UNK N   1      -5.960  -0.962  -0.051  0.00  0.00     0.156 HD
ENDBRANCH  22  24
ENDBRANCH   1  17
TORSDOF 4
