REMARK  6 active torsions:
REMARK  status: ('A' for Active; 'I' for Inactive)
REMARK    1  A    between atoms: C_2  and  O_3 
REMARK    2  A    between atoms: O_3  and  P_4 
REMARK    3  A    between atoms: P_4  and  N_6 
REMARK    4  A    between atoms: P_4  and  O_11 
REMARK    5  A    between atoms: N_6  and  C_7 
REMARK    6  A    between atoms: N_6  and  C_9 
ROOT
HETATM    1  P   UNK N   1      -1.001  -1.132   0.517  0.00  0.00     0.323 P 
HETATM    2  O   UNK N   1      -0.860  -2.524  -0.165  0.00  0.00    -0.641 OA
ENDROOT
BRANCH   1   3
HETATM    3  O   UNK N   1      -2.440  -1.185  -0.459  0.00  0.00    -0.307 OA
BRANCH   3   4
HETATM    4  C   UNK N   1      -3.499  -1.005   0.437  0.00  0.00     0.175 C 
HETATM    5  C   UNK N   1      -4.199   0.304   0.134  0.00  0.00     0.034 C 
ENDBRANCH   3   4
ENDBRANCH   1   3
BRANCH   1   6
HETATM    6  N   UNK N   1       0.720  -0.866  -0.046  0.00  0.00    -0.223 NA
BRANCH   6   7
HETATM    7  C   UNK N   1       1.589  -1.825   0.637  0.00  0.00     0.097 C 
HETATM    8  C   UNK N   1       2.014  -2.925  -0.319  0.00  0.00     0.021 C 
ENDBRANCH   6   7
BRANCH   6   9
HETATM    9  C   UNK N   1       1.169   0.442   0.442  0.00  0.00     0.097 C 
HETATM   10  C   UNK N   1       2.362   0.927  -0.365  0.00  0.00     0.021 C 
ENDBRANCH   6   9
ENDBRANCH   1   6
BRANCH   1  11
HETATM   11  O   UNK N   1      -1.078  -0.005  -0.813  0.00  0.00    -0.317 OA
HETATM   12  H   UNK N   1      -0.558   0.345  -1.552  0.00  0.00     0.221 HD
ENDBRANCH   1  11
TORSDOF 6
