REMARK  5 active torsions:
REMARK  status: ('A' for Active; 'I' for Inactive)
REMARK    1  A    between atoms: C_1  and  C_12 
REMARK    2  A    between atoms: C_5  and  O_22 
REMARK    3  A    between atoms: C_6  and  C_12 
REMARK    4  A    between atoms: C_12  and  C_13 
REMARK    5  A    between atoms: C_16  and  O_23 
ROOT
HETATM    1  C   UNK N   1      -0.326   0.044   0.246  0.00  0.00     0.060 A 
HETATM    2  C   UNK N   1      -0.194  -1.352  -0.024  0.00  0.00     0.298 A 
HETATM    3  C   UNK N   1       2.135  -1.228  -0.168  0.00  0.00     0.095 A 
HETATM    4  C   UNK N   1       2.118   0.150   0.079  0.00  0.00     0.032 A 
HETATM    5  C   UNK N   1       0.895   0.790   0.294  0.00  0.00     0.091 A 
HETATM    6  C   UNK N   1       3.355  -1.895  -0.330  0.00  0.00     0.075 A 
HETATM    7  C   UNK N   1       4.564  -1.194  -0.246  0.00  0.00     0.070 A 
HETATM    8  C   UNK N   1       4.542   0.193  -0.020  0.00  0.00     0.038 A 
HETATM    9  C   UNK N   1       3.326   0.860   0.141  0.00  0.00     0.020 A 
HETATM   10  O   UNK N   1      -1.167  -2.077  -0.063  0.00  0.00    -0.259 OA
HETATM   11  O   UNK N   1       0.999  -1.909  -0.217  0.00  0.00    -0.274 OA
ENDROOT
BRANCH   1  12
HETATM   12  C   UNK N   1      -1.694   0.732   0.595  0.00  0.00     0.060 C 
BRANCH  12  13
HETATM   13  C   UNK N   1      -3.040   0.140   0.126  0.00  0.00    -0.049 A 
HETATM   14  C   UNK N   1      -3.489  -1.104   0.600  0.00  0.00     0.008 A 
HETATM   15  C   UNK N   1      -4.751  -1.596   0.249  0.00  0.00     0.001 A 
HETATM   16  C   UNK N   1      -5.604  -0.832  -0.549  0.00  0.00     0.000 A 
HETATM   17  C   UNK N   1      -5.194   0.421  -1.001  0.00  0.00     0.001 A 
HETATM   18  C   UNK N   1      -3.928   0.903  -0.662  0.00  0.00     0.008 A 
ENDBRANCH  12  13
BRANCH  12  19
HETATM   19  C   UNK N   1      -1.691   2.260   0.368  0.00  0.00     0.010 C 
HETATM   20  C   UNK N   1      -1.527   2.651  -1.094  0.00  0.00     0.006 C 
ENDBRANCH  12  19
ENDBRANCH   1  12
BRANCH   5  21
HETATM   21  O   UNK N   1       0.906   2.106   0.574  0.00  0.00    -0.359 OA
HETATM   22  H   UNK N   1       1.704   2.558   0.769  0.00  0.00     0.217 HD
ENDBRANCH   5  21
BRANCH   7  23
HETATM   23  O   UNK N   1       5.730  -1.873  -0.368  0.00  0.00    -0.356 OA
HETATM   24  C   UNK N   1       6.966  -1.279  -0.233  0.00  0.00     0.210 C 
ENDBRANCH   7  23
TORSDOF 5
