REMARK  9 active torsions:
REMARK  status: ('A' for Active; 'I' for Inactive)
REMARK    1  A    between atoms: C_1  and  C_10 
REMARK    2  A    between atoms: C_9  and  O_30 
REMARK    3  A    between atoms: C_10  and  C_11 
REMARK    4  A    between atoms: C_10  and  C_17 
REMARK    5  A    between atoms: C_15  and  N_26 
REMARK    6  A    between atoms: C_19  and  C_20 
REMARK       I    between atoms: C_19  and  N_26 
REMARK    7  A    between atoms: C_20  and  N_27 
REMARK       I    between atoms: C_21  and  N_27 
REMARK    8  A    between atoms: C_21  and  O_33 
REMARK    9  A    between atoms: C_22  and  O_33 
ROOT
HETATM    1  C   UNK N   1       1.606  -0.123   0.102  0.00  0.00    -0.047 A 
HETATM    2  C   UNK N   1       2.835  -0.676  -0.297  0.00  0.00     0.008 A 
HETATM    3  C   UNK N   1       2.898  -1.878  -0.996  0.00  0.00     0.003 A 
HETATM    4  C   UNK N   1       1.724  -2.533  -1.352  0.00  0.00     0.029 A 
HETATM    5  C   UNK N   1       0.484  -2.019  -0.973  0.00  0.00     0.035 A 
HETATM    6  C   UNK N   1       0.428  -0.816  -0.247  0.00  0.00     0.037 A 
ENDROOT
BRANCH   1   7
HETATM    7  C   UNK N   1       1.545   1.263   0.784  0.00  0.00     0.060 C 
BRANCH   7   8
HETATM    8  C   UNK N   1       2.780   2.150   0.456  0.00  0.00     0.060 A 
HETATM    9  C   UNK N   1       2.716   3.377  -0.270  0.00  0.00     0.298 A 
HETATM   10  O   UNK N   1       1.654   3.840  -0.635  0.00  0.00    -0.259 OA
HETATM   11  O   UNK N   1       3.825   4.044  -0.579  0.00  0.00    -0.274 OA
HETATM   12  C   UNK N   1       5.036   3.629  -0.236  0.00  0.00     0.092 A 
HETATM   13  C   UNK N   1       6.158   4.361  -0.636  0.00  0.00     0.038 A 
HETATM   14  C   UNK N   1       5.196   2.460   0.524  0.00  0.00     0.032 A 
HETATM   15  C   UNK N   1       7.440   3.928  -0.284  0.00  0.00     0.003 A 
HETATM   16  C   UNK N   1       7.602   2.768   0.478  0.00  0.00     0.001 A 
HETATM   17  C   UNK N   1       6.483   2.036   0.886  0.00  0.00     0.017 A 
HETATM   18  C   UNK N   1       4.063   1.730   0.889  0.00  0.00     0.091 A 
BRANCH  18  19
HETATM   19  O   UNK N   1       4.206   0.624   1.648  0.00  0.00    -0.359 OA
HETATM   20  H   UNK N   1       3.590   0.154   2.175  0.00  0.00     0.217 HD
ENDBRANCH  18  19
ENDBRANCH   7   8
BRANCH   7  21
HETATM   21  C   UNK N   1       0.160   1.924   0.570  0.00  0.00     0.010 C 
HETATM   22  C   UNK N   1      -0.296   1.989  -0.889  0.00  0.00     0.006 C 
ENDBRANCH   7  21
ENDBRANCH   1   7
BRANCH   5  23
HETATM   23  N   UNK N   1      -0.682  -2.634  -1.501  0.00  0.00    -0.326 N 
HETATM   24  C   UNK N   1      -1.967  -2.455  -1.103  0.00  0.00     0.239 C 
HETATM   25  O   UNK N   1      -2.863  -2.912  -1.795  0.00  0.00    -0.271 OA
HETATM   26  H   UNK N   1      -0.542  -3.264  -2.244  0.00  0.00     0.169 HD
BRANCH  24  27
HETATM   27  C   UNK N   1      -2.332  -1.765   0.178  0.00  0.00     0.227 C 
BRANCH  27  28
HETATM   28  N   UNK N   1      -3.222  -2.633   0.914  0.00  0.00    -0.328 N 
HETATM   29  C   UNK N   1      -4.561  -2.447   0.867  0.00  0.00     0.361 C 
HETATM   30  O   UNK N   1      -5.298  -3.255   1.412  0.00  0.00    -0.238 OA
HETATM   31  H   UNK N   1      -2.850  -3.367   1.454  0.00  0.00     0.165 HD
BRANCH  29  32
HETATM   32  O   UNK N   1      -5.072  -1.374   0.197  0.00  0.00    -0.294 OA
BRANCH  32  33
HETATM   33  C   UNK N   1      -6.410  -1.140  -0.071  0.00  0.00     0.061 C 
HETATM   34  C   UNK N   1      -7.237  -1.105   1.204  0.00  0.00     0.046 C 
HETATM   35  C   UNK N   1      -6.530   0.209  -0.748  0.00  0.00     0.046 C 
HETATM   36  C   UNK N   1      -6.957  -2.198  -1.014  0.00  0.00     0.046 C 
ENDBRANCH  32  33
ENDBRANCH  29  32
ENDBRANCH  27  28
ENDBRANCH  24  27
ENDBRANCH   5  23
TORSDOF 9
