REMARK  2 active torsions:
REMARK  status: ('A' for Active; 'I' for Inactive)
REMARK    1  A    between atoms: C_14  and  N_15 
REMARK    2  A    between atoms: N_20  and  C_21 
ROOT
HETATM    1  N   UNK N   1      -2.781  -1.195  -0.216  0.00  0.00    -0.351 N 
ATOM      2  HN  UNK N   1      -2.594  -2.193  -0.316  1.00  0.00     0.166 HD
HETATM    3  C   UNK N   1      -4.074  -0.807  -0.176  0.00  0.00     0.090 A 
HETATM    4  C   UNK N   1      -4.374   0.525  -0.051  0.00  0.00     0.018 A 
HETATM    5  C   UNK N   1      -3.330   1.424   0.019  0.00  0.00     0.022 A 
HETATM    6  C   UNK N   1      -1.963   1.041  -0.017  0.00  0.00     0.076 A 
HETATM    7  C   UNK N   1      -1.065   2.124   0.056  0.00  0.00     0.261 A 
HETATM    8  O   UNK N   1      -1.577   3.240   0.124  0.00  0.00    -0.267 OA
HETATM    9  N   UNK N   1       0.312   2.071   0.060  0.00  0.00    -0.316 N 
HETATM   10  C   UNK N   1       0.951   3.403   0.137  0.00  0.00     0.159 C 
HETATM   11  C   UNK N   1       1.169   0.992   0.014  0.00  0.00     0.064 A 
HETATM   12  C   UNK N   1       2.558   1.306   0.071  0.00  0.00     0.034 A 
HETATM   13  C   UNK N   1       3.569   0.366   0.051  0.00  0.00     0.038 A 
HETATM   14  C   UNK N   1       3.249  -0.969  -0.032  0.00  0.00     0.105 A 
HETATM   15  C   UNK N   1       1.907  -1.329  -0.107  0.00  0.00     0.068 A 
HETATM   16  C   UNK N   1       0.819  -0.402  -0.088  0.00  0.00     0.065 A 
HETATM   17  N   UNK N   1      -0.450  -0.953  -0.167  0.00  0.00    -0.331 N 
HETATM   18  C   UNK N   1      -1.693  -0.355  -0.132  0.00  0.00     0.123 A 
ENDROOT
BRANCH  14  19
HETATM   19  N   UNK N   1       4.276  -1.953  -0.032  0.00  0.00    -0.116 N 
HETATM   20  O   UNK N   1       5.540  -1.593   0.029  0.00  0.00    -0.532 OA
HETATM   21  O   UNK N   1       3.998  -3.115  -0.071  0.00  0.00    -0.532 OA
ENDBRANCH  14  19
BRANCH  17  22
HETATM   22  C   UNK N   1      -0.485  -2.431  -0.348  0.00  0.00     0.126 C 
HETATM   23  C   UNK N   1      -1.027  -3.159   0.876  0.00  0.00     0.027 C 
ENDBRANCH  17  22
TORSDOF 2
