REMARK  4 active torsions:
REMARK  status: ('A' for Active; 'I' for Inactive)
REMARK    1  A    between atoms: C_2  and  C_5 
REMARK    2  A    between atoms: C_10  and  N_11 
REMARK    3  A    between atoms: N_13  and  C_15 
REMARK    4  A    between atoms: C_23  and  N_24 
ROOT
HETATM    1  N   UNK N   1      -0.023  -0.655  -0.860  0.00  0.00    -0.300 N 
ATOM      2  HN  UNK N   1      -0.858  -1.063  -1.279  1.00  0.00     0.187 HD
HETATM    3  N   UNK N   1       0.954  -1.384  -0.614  0.00  0.00    -0.293 N 
ATOM      4  HN  UNK N   1       1.891  -0.984  -0.557  1.00  0.00     0.187 HD
ENDROOT
BRANCH   3   5
HETATM    5  C   UNK N   1       0.762  -2.773  -0.412  0.00  0.00     0.138 A 
HETATM    6  C   UNK N   1       1.763  -3.772  -0.115  0.00  0.00     0.146 A 
HETATM    7  N   UNK N   1       3.020  -3.588   0.045  0.00  0.00    -0.382 N 
HETATM    8  N   UNK N   1       1.079  -4.965   0.189  0.00  0.00    -0.282 N 
HETATM    9  H   UNK N   1       3.626  -4.354   0.168  0.00  0.00     0.157 HD
ATOM     10  HN  UNK N   1       3.397  -2.640   0.045  1.00  0.00     0.157 HD
HETATM   11  N   UNK N   1      -0.148  -4.773   0.078  0.00  0.00    -0.282 N 
ATOM     12  HN  UNK N   1       1.517  -5.846   0.458  1.00  0.00     0.188 HD
HETATM   13  C   UNK N   1      -0.398  -3.425  -0.290  0.00  0.00     0.146 A 
ATOM     14  HN  UNK N   1      -0.867  -5.481   0.230  1.00  0.00     0.188 HD
BRANCH  13  15
HETATM   15  N   UNK N   1      -1.690  -2.860  -0.399  0.00  0.00    -0.382 N 
HETATM   16  H   UNK N   1      -1.799  -1.884  -0.474  0.00  0.00     0.157 HD
HETATM   17  H   UNK N   1      -2.482  -3.444  -0.399  0.00  0.00     0.157 HD
ENDBRANCH  13  15
ENDBRANCH   3   5
BRANCH   1  18
HETATM   18  C   UNK N   1       0.003   0.723  -0.570  0.00  0.00     0.048 A 
HETATM   19  C   UNK N   1       1.139   1.322  -0.004  0.00  0.00     0.031 A 
HETATM   20  C   UNK N   1       1.058   2.612   0.524  0.00  0.00     0.003 A 
HETATM   21  C   UNK N   1      -0.168   3.284   0.536  0.00  0.00     0.016 A 
HETATM   22  C   UNK N   1      -1.304   2.689  -0.029  0.00  0.00     0.050 A 
HETATM   23  C   UNK N   1      -1.207   1.411  -0.583  0.00  0.00     0.047 A 
BRANCH  22  24
HETATM   24  C   UNK N   1      -2.633   3.378   0.042  0.00  0.00     0.417 C 
HETATM   25  F   UNK N   1      -3.016   3.482   1.367  0.00  0.00    -0.166 F 
HETATM   26  F   UNK N   1      -3.602   2.662  -0.643  0.00  0.00    -0.166 F 
HETATM   27  F   UNK N   1      -2.538   4.641  -0.508  0.00  0.00    -0.166 F 
ENDBRANCH  22  24
ENDBRANCH   1  18
TORSDOF 4
