REMARK  12 active torsions:
REMARK  status: ('A' for Active; 'I' for Inactive)
REMARK    1  A    between atoms: C_2  and  O_3 
REMARK    2  A    between atoms: C_2  and  C_5 
REMARK    3  A    between atoms: C_5  and  C_6 
REMARK    4  A    between atoms: C_5  and  N_10 
REMARK    5  A    between atoms: C_6  and  C_7 
REMARK       I    between atoms: N_10  and  C_11 
REMARK    6  A    between atoms: C_11  and  C_13 
REMARK    7  A    between atoms: C_13  and  N_15 
REMARK       I    between atoms: N_15  and  C_16 
REMARK    8  A    between atoms: C_16  and  C_18 
REMARK    9  A    between atoms: C_18  and  O_19 
REMARK   10  A    between atoms: C_18  and  C_20 
REMARK   11  A    between atoms: C_20  and  N_21 
REMARK   12  A    between atoms: C_20  and  C_22 
ROOT
HETATM    1  N   UNK N   1      -0.096   1.082  -0.502  0.00  0.00    -0.346 N 
HETATM    2  C   UNK N   1       0.918   0.797   0.354  0.00  0.00     0.249 C 
HETATM    3  O   UNK N   1       1.063   1.441   1.386  0.00  0.00    -0.271 OA
HETATM    4  H   UNK N   1      -0.110   0.612  -1.367  0.00  0.00     0.163 HD
ENDROOT
BRANCH   1   5
HETATM    5  C   UNK N   1      -1.162   2.030  -0.231  0.00  0.00     0.172 C 
HETATM    6  C   UNK N   1      -0.620   3.423   0.062  0.00  0.00     0.042 C 
BRANCH   5   7
HETATM    7  C   UNK N   1      -2.025   1.523   0.922  0.00  0.00     0.240 C 
HETATM    8  N   UNK N   1      -3.290   1.049   0.746  0.00  0.00    -0.345 N 
HETATM    9  H   UNK N   1      -3.805   0.840   1.559  0.00  0.00     0.163 HD
HETATM   10  O   UNK N   1      -1.564   1.534   2.052  0.00  0.00    -0.271 OA
BRANCH   8  11
HETATM   11  C   UNK N   1      -3.948   0.823  -0.526  0.00  0.00     0.184 C 
BRANCH  11  12
HETATM   12  C   UNK N   1      -4.855   1.992  -0.833  0.00  0.00     0.281 C 
HETATM   13  O   UNK N   1      -4.642   2.654  -1.835  0.00  0.00    -0.263 OA
BRANCH  12  14
HETATM   14  O   UNK N   1      -5.888   2.345  -0.022  0.00  0.00    -0.325 OA
HETATM   15  C   UNK N   1      -6.225   1.671   1.129  0.00  0.00     0.213 C 
ENDBRANCH  12  14
ENDBRANCH  11  12
BRANCH  11  16
HETATM   16  C   UNK N   1      -4.748  -0.482  -0.482  0.00  0.00     0.039 C 
BRANCH  16  17
HETATM   17  C   UNK N   1      -3.900  -1.704  -0.131  0.00  0.00    -0.020 C 
HETATM   18  C   UNK N   1      -2.866  -1.992  -1.204  0.00  0.00     0.009 C 
HETATM   19  C   UNK N   1      -4.806  -2.909   0.012  0.00  0.00     0.009 C 
ENDBRANCH  16  17
ENDBRANCH  11  16
ENDBRANCH   8  11
ENDBRANCH   5   7
ENDBRANCH   1   5
BRANCH   2  20
HETATM   20  C   UNK N   1       1.830  -0.364   0.077  0.00  0.00     0.236 C 
BRANCH  20  21
HETATM   21  O   UNK N   1       1.663  -1.274   1.124  0.00  0.00    -0.384 OA
HETATM   22  H   UNK N   1       1.057  -1.490   1.851  0.00  0.00     0.210 HD
ENDBRANCH  20  21
BRANCH  20  23
HETATM   23  C   UNK N   1       3.307   0.084  -0.009  0.00  0.00     0.145 C 
BRANCH  23  24
HETATM   24  N   UNK N   1       3.486   0.958  -1.161  0.00  0.00    -0.420 N 
HETATM   25  H   UNK N   1       4.078   1.155  -1.967  0.00  0.00     0.150 HD
HETATM   26  H   UNK N   1       2.723   1.634  -1.161  0.00  0.00     0.150 HD
ENDBRANCH  23  24
BRANCH  23  27
HETATM   27  C   UNK N   1       4.309  -1.052  -0.077  0.00  0.00    -0.033 A 
HETATM   28  C   UNK N   1       5.679  -0.752  -0.047  0.00  0.00     0.010 A 
HETATM   29  C   UNK N   1       6.630  -1.777  -0.036  0.00  0.00     0.007 A 
HETATM   30  C   UNK N   1       6.219  -3.112  -0.054  0.00  0.00    -0.062 A 
HETATM   31  C   UNK N   1       7.229  -4.201  -0.019  0.00  0.00     0.048 C 
HETATM   32  C   UNK N   1       4.859  -3.424  -0.097  0.00  0.00     0.007 A 
HETATM   33  C   UNK N   1       3.908  -2.400  -0.108  0.00  0.00     0.010 A 
ENDBRANCH  23  27
ENDBRANCH  20  23
ENDBRANCH   2  20
TORSDOF 12
