REMARK  8 active torsions:
REMARK  status: ('A' for Active; 'I' for Inactive)
REMARK    1  A    between atoms: C_1  and  C_22 
REMARK    2  A    between atoms: C_4  and  C_7 
REMARK    3  A    between atoms: C_7  and  C_8 
REMARK    4  A    between atoms: C_8  and  C_9 
REMARK    5  A    between atoms: C_9  and  N_11 
REMARK    6  A    between atoms: N_11  and  C_12 
REMARK    7  A    between atoms: C_12  and  C_13 
REMARK    8  A    between atoms: C_13  and  C_15 
REMARK       I    between atoms: C_22  and  N_23 
ROOT
HETATM    1  C   UNK N   1      -1.879   0.543   0.131  0.00  0.00     0.073 C 
HETATM    2  C   UNK N   1      -1.237  -0.681   0.763  0.00  0.00     0.031 C 
ENDROOT
BRANCH   1   3
HETATM    3  C   UNK N   1      -2.915   0.095  -0.898  0.00  0.00     0.029 C 
BRANCH   3   4
HETATM    4  C   UNK N   1      -4.228  -0.281  -0.213  0.00  0.00     0.040 C 
BRANCH   4   5
HETATM    5  C   UNK N   1      -5.164   0.891  -0.143  0.00  0.00    -0.058 A 
HETATM    6  C   UNK N   1      -6.535   0.693  -0.332  0.00  0.00     0.008 A 
HETATM    7  C   UNK N   1      -7.419   1.776  -0.256  0.00  0.00     0.017 A 
HETATM    8  C   UNK N   1      -6.935   3.069   0.003  0.00  0.00     0.031 A 
HETATM    9  C   UNK N   1      -5.562   3.263   0.192  0.00  0.00     0.017 A 
HETATM   10  C   UNK N   1      -4.685   2.181   0.127  0.00  0.00     0.008 A 
BRANCH   8  11
HETATM   11  C   UNK N   1      -7.860   4.219   0.076  0.00  0.00     0.249 C 
HETATM   12  O   UNK N   1      -7.424   5.344   0.275  0.00  0.00    -0.268 OA
HETATM   13  N   UNK N   1      -9.187   4.040  -0.074  0.00  0.00    -0.366 N 
HETATM   14  H   UNK N   1      -9.785   4.814  -0.183  0.00  0.00     0.159 HD
HETATM   15  H   UNK N   1      -9.561   3.129  -0.074  0.00  0.00     0.159 HD
ENDBRANCH   8  11
ENDBRANCH   4   5
ENDBRANCH   3   4
ENDBRANCH   1   3
BRANCH   1  16
HETATM   16  N   UNK N   1      -0.864   1.356  -0.536  0.00  0.00    -0.411 N 
HETATM   17  H   UNK N   1      -0.623   1.308  -1.526  0.00  0.00     0.154 HD
BRANCH  16  18
HETATM   18  C   UNK N   1      -0.250   2.250   0.444  0.00  0.00     0.198 C 
BRANCH  18  19
HETATM   19  C   UNK N   1       1.162   2.568   0.064  0.00  0.00     0.176 C 
HETATM   20  O   UNK N   1       1.461   3.728  -0.174  0.00  0.00    -0.291 OA
BRANCH  19  21
HETATM   21  C   UNK N   1       2.195   1.509   0.009  0.00  0.00     0.011 A 
HETATM   22  C   UNK N   1       3.522   1.831  -0.309  0.00  0.00     0.018 A 
HETATM   23  C   UNK N   1       4.498   0.830  -0.357  0.00  0.00     0.043 A 
HETATM   24  C   UNK N   1       4.152  -0.498  -0.090  0.00  0.00     0.116 A 
HETATM   25  C   UNK N   1       2.833  -0.825   0.228  0.00  0.00     0.043 A 
HETATM   26  F   UNK N   1       5.096  -1.467  -0.138  0.00  0.00    -0.206 F 
HETATM   27  C   UNK N   1       1.860   0.174   0.280  0.00  0.00     0.018 A 
ENDBRANCH  19  21
ENDBRANCH  18  19
ENDBRANCH  16  18
ENDBRANCH   1  16
TORSDOF 8
