REMARK  5 active torsions:
REMARK  status: ('A' for Active; 'I' for Inactive)
REMARK    1  A    between atoms: C_4  and  C_5 
REMARK    2  A    between atoms: C_9  and  N_15 
REMARK    3  A    between atoms: N_12  and  S_20 
REMARK    4  A    between atoms: C_14  and  S_20 
REMARK    5  A    between atoms: N_15  and  C_18 
ROOT
HETATM    1  C   UNK N   1      -3.083  -1.990   0.358  0.00  0.00     0.027 A 
HETATM    2  C   UNK N   1      -3.571  -0.776  -0.151  0.00  0.00     0.079 A 
HETATM    3  C   UNK N   1      -2.679   0.195  -0.607  0.00  0.00     0.027 A 
HETATM    4  C   UNK N   1      -1.311  -0.025  -0.521  0.00  0.00     0.031 A 
HETATM    5  C   UNK N   1      -0.809  -1.222   0.015  0.00  0.00     0.034 A 
HETATM    6  C   UNK N   1      -1.701  -2.216   0.434  0.00  0.00     0.031 A 
ENDROOT
BRANCH   5   7
HETATM    7  N   UNK N   1       0.595  -1.428   0.106  0.00  0.00    -0.337 N 
HETATM    8  H   UNK N   1       0.949  -2.344   0.164  0.00  0.00     0.168 HD
BRANCH   7   9
HETATM    9  C   UNK N   1       1.490  -0.328   0.115  0.00  0.00     0.149 A 
HETATM   10  S   UNK N   1       3.030  -0.323  -0.472  0.00  0.00    -0.057 SA
HETATM   11  C   UNK N   1       3.327   1.293  -0.233  0.00  0.00     0.005 A 
HETATM   12  C   UNK N   1       2.165   1.831   0.347  0.00  0.00     0.105 A 
HETATM   13  N   UNK N   1       1.151   0.920   0.531  0.00  0.00    -0.345 N 
ATOM     14  HN  UNK N   1       0.244   1.156   0.935  1.00  0.00     0.167 HD
BRANCH  11  15
HETATM   15  C   UNK N   1       4.563   2.042  -0.632  0.00  0.00     0.019 C 
HETATM   16  C   UNK N   1       4.444   3.531  -0.350  0.00  0.00     0.015 C 
HETATM   17  C   UNK N   1       5.777   1.491   0.086  0.00  0.00     0.015 C 
ENDBRANCH  11  15
ENDBRANCH   7   9
ENDBRANCH   5   7
BRANCH   2  18
HETATM   18  S   UNK N   1      -5.330  -0.451  -0.230  0.00  0.00     0.256 S 
HETATM   19  O   UNK N   1      -5.875   0.959  -0.503  0.00  0.00    -0.201 OA
HETATM   20  O   UNK N   1      -6.358  -1.199   0.629  0.00  0.00    -0.201 OA
BRANCH  18  21
HETATM   21  N   UNK N   1      -4.886   0.260   1.327  0.00  0.00    -0.324 N 
HETATM   22  H   UNK N   1      -4.403   0.244   2.225  0.00  0.00     0.169 HD
HETATM   23  H   UNK N   1      -5.366   1.160   1.327  0.00  0.00     0.169 HD
ENDBRANCH  18  21
ENDBRANCH   2  18
TORSDOF 5
