REMARK  4 active torsions:
REMARK  status: ('A' for Active; 'I' for Inactive)
REMARK       I    between atoms: C_2  and  N_3 
REMARK    1  A    between atoms: C_2  and  C_13 
REMARK    2  A    between atoms: N_3  and  C_5 
REMARK    3  A    between atoms: C_9  and  C_10 
REMARK    4  A    between atoms: C_13  and  C_14 
ROOT
HETATM    1  O   UNK N   1       1.607   3.692   0.106  0.00  0.00    -0.273 OA
HETATM    2  C   UNK N   1       1.374   2.535  -0.203  0.00  0.00     0.227 C 
HETATM    3  N   UNK N   1       2.209   1.552   0.251  0.00  0.00    -0.307 N 
ATOM      4  HN  UNK N   1       3.046   1.865   0.744  1.00  0.00     0.171 HD
ENDROOT
BRANCH   3   5
HETATM    5  C   UNK N   1       2.064   0.273   0.130  0.00  0.00     0.151 A 
HETATM    6  N   UNK N   1       2.960  -0.615   0.634  0.00  0.00    -0.345 N 
HETATM    7  C   UNK N   1       2.550  -1.926   0.483  0.00  0.00     0.105 A 
HETATM    8  H   UNK N   1       3.809  -0.353   1.059  0.00  0.00     0.167 HD
HETATM    9  C   UNK N   1       1.300  -2.076  -0.148  0.00  0.00     0.005 A 
HETATM   10  S   UNK N   1       0.780  -0.557  -0.510  0.00  0.00    -0.057 SA
BRANCH   9  11
HETATM   11  C   UNK N   1       0.529  -3.336  -0.414  0.00  0.00     0.019 C 
HETATM   12  C   UNK N   1       1.260  -4.569   0.085  0.00  0.00     0.015 C 
HETATM   13  C   UNK N   1      -0.828  -3.264   0.264  0.00  0.00     0.015 C 
ENDBRANCH   9  11
ENDBRANCH   3   5
BRANCH   2  14
HETATM   14  C   UNK N   1       0.218   2.264  -1.134  0.00  0.00     0.143 C 
BRANCH  14  15
HETATM   15  C   UNK N   1      -1.127   2.362  -0.484  0.00  0.00    -0.034 A 
HETATM   16  C   UNK N   1      -1.952   1.236  -0.447  0.00  0.00     0.010 A 
HETATM   17  C   UNK N   1      -3.223   1.319   0.120  0.00  0.00     0.018 A 
HETATM   18  C   UNK N   1      -3.658   2.539   0.638  0.00  0.00     0.087 A 
HETATM   19  N   UNK N   1      -2.846   3.631   0.589  0.00  0.00    -0.375 N 
HETATM   20  C   UNK N   1      -1.601   3.569   0.040  0.00  0.00     0.095 A 
ATOM     21  HN  UNK N   1      -3.178   4.516   0.971  1.00  0.00     0.164 HD
ENDBRANCH  14  15
ENDBRANCH   2  14
TORSDOF 4
