REMARK  4 active torsions:
REMARK  status: ('A' for Active; 'I' for Inactive)
REMARK    1  A    between atoms: S_2  and  N_5 
REMARK    2  A    between atoms: S_2  and  O_4 
REMARK    3  A    between atoms: N_5  and  C_6 
REMARK    4  A    between atoms: C_9  and  C_10 
ROOT
HETATM    1  C   UNK N   1       1.337  -0.034  -0.038  0.00  0.00     0.044 A 
HETATM    2  C   UNK N   1       0.183   0.631  -0.465  0.00  0.00     0.031 A 
HETATM    3  C   UNK N   1      -1.054  -0.020  -0.444  0.00  0.00     0.009 A 
HETATM    4  C   UNK N   1      -1.148  -1.346  -0.007  0.00  0.00    -0.058 A 
HETATM    5  C   UNK N   1       0.010  -2.011   0.428  0.00  0.00     0.009 A 
HETATM    6  C   UNK N   1       1.244  -1.358   0.415  0.00  0.00     0.031 A 
ENDROOT
BRANCH   1   7
HETATM    7  N   UNK N   1       2.591   0.629  -0.109  0.00  0.00    -0.273 N 
HETATM    8  H   UNK N   1       2.629   1.518  -0.531  0.00  0.00     0.180 HD
BRANCH   7   9
HETATM    9  S   UNK N   1       4.082  -0.067   0.522  0.00  0.00     0.199 S 
HETATM   10  O   UNK N   1       5.296   0.275  -0.354  0.00  0.00    -0.585 OA
HETATM   11  O   UNK N   1       4.225   1.458   0.653  0.00  0.00    -0.585 OA
BRANCH   9  12
HETATM   12  O   UNK N   1       3.830  -0.589  -1.096  0.00  0.00    -0.279 OA
HETATM   13  H   UNK N   1       3.503  -0.612  -2.009  0.00  0.00     0.234 HD
ENDBRANCH   9  12
ENDBRANCH   7   9
ENDBRANCH   1   7
BRANCH   4  14
HETATM   14  C   UNK N   1      -2.490  -2.020  -0.032  0.00  0.00     0.034 C 
HETATM   15  C   UNK N   1      -2.451  -3.490   0.361  0.00  0.00     0.010 C 
ENDBRANCH   4  14
TORSDOF 4
