REMARK  6 active torsions:
REMARK  status: ('A' for Active; 'I' for Inactive)
REMARK    1  A    between atoms: C_3  and  C_7 
REMARK    2  A    between atoms: C_7  and  N_9 
REMARK    3  A    between atoms: N_9  and  C_10 
REMARK    4  A    between atoms: C_12  and  C_17 
REMARK    5  A    between atoms: N_18  and  O_20 
REMARK    6  A    between atoms: O_20  and  C_21 
ROOT
HETATM    1  C   UNK N   1      -1.529   0.960  -0.104  0.00  0.00     0.034 A 
HETATM    2  C   UNK N   1      -1.142  -0.377  -0.019  0.00  0.00     0.044 A 
HETATM    3  C   UNK N   1      -2.086  -1.412  -0.091  0.00  0.00     0.005 A 
HETATM    4  C   UNK N   1      -3.446  -1.096  -0.262  0.00  0.00     0.045 A 
HETATM    5  C   UNK N   1      -3.837   0.241  -0.367  0.00  0.00     0.027 A 
HETATM    6  C   UNK N   1      -2.886   1.263  -0.288  0.00  0.00     0.031 A 
HETATM    7 Cl   UNK N   1      -4.676  -2.349  -0.345  0.00  0.00    -0.083 Cl
ENDROOT
BRANCH   1   8
HETATM    8  N   UNK N   1      -0.518   1.965  -0.007  0.00  0.00    -0.346 N 
HETATM    9  H   UNK N   1       0.410   1.638  -0.049  0.00  0.00     0.167 HD
BRANCH   8  10
HETATM   10  C   UNK N   1      -0.666   3.382   0.143  0.00  0.00     0.114 C 
HETATM   11  S   UNK N   1      -1.945   3.980   0.451  0.00  0.00    -0.059 SA
BRANCH  10  12
HETATM   12  C   UNK N   1       0.541   4.250   0.050  0.00  0.00     0.033 A 
HETATM   13  C   UNK N   1       1.851   3.858  -0.148  0.00  0.00     0.062 A 
HETATM   14  O   UNK N   1       2.622   4.916  -0.177  0.00  0.00    -0.327 OA
HETATM   15  C   UNK N   1       2.364   2.468  -0.301  0.00  0.00     0.077 C 
HETATM   16  C   UNK N   1       1.893   5.998  -0.008  0.00  0.00     0.143 A 
HETATM   17  C   UNK N   1       0.564   5.632   0.143  0.00  0.00     0.041 A 
ENDBRANCH  10  12
ENDBRANCH   8  10
ENDBRANCH   1   8
BRANCH   3  18
HETATM   18  C   UNK N   1      -1.633  -2.808   0.039  0.00  0.00     0.127 C 
HETATM   19  N   UNK N   1      -0.379  -3.064   0.124  0.00  0.00    -0.276 N 
ATOM     20  HN  UNK N   1       0.295  -2.303   0.044  1.00  0.00     0.193 HD
BRANCH  19  21
HETATM   21  O   UNK N   1       0.052  -4.294   0.312  0.00  0.00    -0.271 OA
BRANCH  21  22
HETATM   22  C   UNK N   1       1.402  -4.575   0.288  0.00  0.00     0.078 C 
HETATM   23  C   UNK N   1       1.964  -4.324  -1.101  0.00  0.00     0.048 C 
HETATM   24  C   UNK N   1       1.613  -6.030   0.645  0.00  0.00     0.048 C 
HETATM   25  C   UNK N   1       2.146  -3.714   1.296  0.00  0.00     0.048 C 
ENDBRANCH  21  22
ENDBRANCH  19  21
ENDBRANCH   3  18
TORSDOF 6
