REMARK  7 active torsions:
REMARK  status: ('A' for Active; 'I' for Inactive)
REMARK    1  A    between atoms: C_1  and  N_3 
REMARK    2  A    between atoms: C_1  and  O_17 
REMARK    3  A    between atoms: N_3  and  C_4 
REMARK    4  A    between atoms: C_6  and  C_11 
REMARK    5  A    between atoms: C_11  and  O_12 
REMARK    6  A    between atoms: O_12  and  C_14 
REMARK    7  A    between atoms: O_17  and  C_18 
ROOT
HETATM    1  C   UNK N   1      -0.958   1.713   0.462  0.00  0.00     0.035 A 
HETATM    2  C   UNK N   1      -0.913   0.516  -0.259  0.00  0.00     0.049 A 
HETATM    3  C   UNK N   1      -2.077  -0.170  -0.609  0.00  0.00     0.063 A 
HETATM    4  C   UNK N   1      -3.329   0.387  -0.252  0.00  0.00     0.050 A 
HETATM    5 Cl   UNK N   1      -4.853  -0.326  -0.755  0.00  0.00    -0.083 Cl
HETATM    6  C   UNK N   1      -3.374   1.608   0.435  0.00  0.00     0.027 A 
HETATM    7  C   UNK N   1      -2.195   2.268   0.794  0.00  0.00     0.031 A 
ENDROOT
BRANCH   1   8
HETATM    8  N   UNK N   1       0.246   2.378   0.825  0.00  0.00    -0.328 N 
HETATM    9  H   UNK N   1       0.215   3.351   0.972  0.00  0.00     0.169 HD
BRANCH   8  10
HETATM   10  C   UNK N   1       1.498   1.708   0.989  0.00  0.00     0.215 C 
HETATM   11  S   UNK N   1       1.550   0.408   1.633  0.00  0.00    -0.033 SA
BRANCH  10  12
HETATM   12  O   UNK N   1       2.635   2.341   0.578  0.00  0.00    -0.322 OA
BRANCH  12  13
HETATM   13  C   UNK N   1       3.905   1.787   0.542  0.00  0.00     0.123 C 
HETATM   14  C   UNK N   1       4.900   2.852   0.136  0.00  0.00     0.040 C 
HETATM   15  C   UNK N   1       3.972   0.658  -0.477  0.00  0.00     0.040 C 
ENDBRANCH  12  13
ENDBRANCH  10  12
ENDBRANCH   8  10
ENDBRANCH   1   8
BRANCH   3  16
HETATM   16  C   UNK N   1      -1.920  -1.436  -1.373  0.00  0.00     0.295 C 
HETATM   17  O   UNK N   1      -1.052  -1.493  -2.234  0.00  0.00    -0.259 OA
BRANCH  16  18
HETATM   18  O   UNK N   1      -2.591  -2.575  -1.066  0.00  0.00    -0.313 OA
BRANCH  18  19
HETATM   19  C   UNK N   1      -3.123  -2.829   0.180  0.00  0.00     0.124 C 
HETATM   20  C   UNK N   1      -4.522  -3.387   0.032  0.00  0.00     0.040 C 
HETATM   21  C   UNK N   1      -2.267  -3.866   0.883  0.00  0.00     0.040 C 
ENDBRANCH  18  19
ENDBRANCH  16  18
ENDBRANCH   3  16
TORSDOF 7
