REMARK  3 active torsions:
REMARK  status: ('A' for Active; 'I' for Inactive)
REMARK    1  A    between atoms: C_4  and  C_5 
REMARK    2  A    between atoms: N_12  and  C_28 
REMARK    3  A    between atoms: N_15  and  C_26 
ROOT
HETATM    1  N   UNK N   1       0.034  -4.609  -0.130  0.00  0.00    -0.289 N 
HETATM    2  C   UNK N   1       1.115  -3.774  -0.113  0.00  0.00     0.260 A 
HETATM    3  O   UNK N   1       2.267  -4.166  -0.102  0.00  0.00    -0.267 OA
HETATM    4  C   UNK N   1       0.713  -2.454  -0.092  0.00  0.00     0.062 A 
HETATM    5  C   UNK N   1       1.410  -1.230  -0.048  0.00  0.00     0.022 A 
HETATM    6  C   UNK N   1       2.741  -0.873  -0.013  0.00  0.00     0.004 A 
HETATM    7  C   UNK N   1       2.777   0.511   0.069  0.00  0.00     0.048 A 
HETATM    8  C   UNK N   1       3.984   1.206   0.123  0.00  0.00     0.030 A 
HETATM    9  C   UNK N   1       5.174   0.455   0.094  0.00  0.00     0.002 A 
HETATM   10  C   UNK N   1       5.135  -0.956   0.015  0.00  0.00     0.001 A 
HETATM   11  C   UNK N   1       3.904  -1.636  -0.037  0.00  0.00     0.014 A 
HETATM   12  N   UNK N   1       1.521   1.022   0.072  0.00  0.00    -0.316 N 
HETATM   13  C   UNK N   1       0.696  -0.041  -0.003  0.00  0.00     0.077 A 
HETATM   14  C   UNK N   1      -0.696  -0.050  -0.000  0.00  0.00     0.077 A 
HETATM   15  N   UNK N   1      -1.538   1.001   0.088  0.00  0.00    -0.316 N 
HETATM   16  C   UNK N   1      -2.786   0.468   0.076  0.00  0.00     0.048 A 
HETATM   17  C   UNK N   1      -2.727  -0.914  -0.018  0.00  0.00     0.004 A 
HETATM   18  C   UNK N   1      -3.878  -1.696  -0.049  0.00  0.00     0.014 A 
HETATM   19  C   UNK N   1      -5.119  -1.037   0.009  0.00  0.00     0.001 A 
HETATM   20  C   UNK N   1      -5.182   0.372   0.103  0.00  0.00     0.002 A 
HETATM   21  C   UNK N   1      -4.004   1.142   0.139  0.00  0.00     0.030 A 
HETATM   22  C   UNK N   1      -1.390  -1.250  -0.052  0.00  0.00     0.022 A 
HETATM   23  C   UNK N   1      -0.676  -2.464  -0.096  0.00  0.00     0.062 A 
HETATM   24  C   UNK N   1      -1.059  -3.789  -0.118  0.00  0.00     0.260 A 
HETATM   25  O   UNK N   1      -2.205  -4.198  -0.112  0.00  0.00    -0.267 OA
HETATM   26  H   UNK N   1       0.041  -5.593  -0.146  0.00  0.00     0.172 HD
ENDROOT
BRANCH  15  27
HETATM   27  C   UNK N   1      -1.154   2.418   0.208  0.00  0.00     0.231 C 
HETATM   28  O   UNK N   1      -0.006   2.555   1.025  0.00  0.00    -0.342 OA
HETATM   29  C   UNK N   1       1.100   2.427   0.149  0.00  0.00     0.231 C 
HETATM   30  C   UNK N   1       0.673   2.910  -1.222  0.00  0.00     0.058 C 
HETATM   31  C   UNK N   1      -0.820   2.988  -1.149  0.00  0.00     0.058 C 
BRANCH  29  32
ENDBRANCH  29  32
ENDBRANCH  15  27
TORSDOF 3
