REMARK  11 active torsions:
REMARK  status: ('A' for Active; 'I' for Inactive)
REMARK    1  A    between atoms: C_2  and  C_3 
REMARK    2  A    between atoms: C_3  and  C_4 
REMARK    3  A    between atoms: C_4  and  C_5 
REMARK    4  A    between atoms: C_5  and  C_6 
REMARK    5  A    between atoms: C_6  and  C_7 
REMARK    6  A    between atoms: C_7  and  C_8 
REMARK    7  A    between atoms: C_8  and  C_9 
REMARK    8  A    between atoms: C_9  and  C_10 
REMARK    9  A    between atoms: C_10  and  O_11 
REMARK   10  A    between atoms: O_11  and  C_12 
REMARK   11  A    between atoms: C_12  and  S_14 
ROOT
HETATM    1  C   UNK N   1       2.575  -0.249  -0.000  0.00  0.00     0.002 C 
ENDROOT
BRANCH   1   2
HETATM    2  C   UNK N   1       1.326   0.595   0.000  0.00  0.00     0.000 C 
BRANCH   2   3
HETATM    3  C   UNK N   1       0.126  -0.325  -0.000  0.00  0.00     0.000 C 
BRANCH   3   4
HETATM    4  C   UNK N   1      -1.125   0.517   0.000  0.00  0.00     0.000 C 
BRANCH   4   5
HETATM    5  C   UNK N   1      -2.353  -0.365  -0.000  0.00  0.00     0.000 C 
BRANCH   5   6
HETATM    6  C   UNK N   1      -3.565   0.539   0.000  0.00  0.00    -0.000 C 
BRANCH   6   7
HETATM    7  C   UNK N   1      -4.835  -0.280  -0.000  0.00  0.00    -0.005 C 
HETATM    8  C   UNK N   1      -6.019   0.663  -0.000  0.00  0.00     0.005 C 
ENDBRANCH   6   7
ENDBRANCH   5   6
ENDBRANCH   4   5
ENDBRANCH   3   4
ENDBRANCH   2   3
ENDBRANCH   1   2
BRANCH   1   9
HETATM    9  C   UNK N   1       3.810   0.622   0.000  0.00  0.00     0.027 C 
BRANCH   9  10
HETATM   10  C   UNK N   1       4.997  -0.310   0.000  0.00  0.00     0.179 C 
BRANCH  10  11
HETATM   11  O   UNK N   1       6.175   0.394   0.000  0.00  0.00    -0.313 OA
BRANCH  11  12
HETATM   12  C   UNK N   1       7.373  -0.237   0.000  0.00  0.00     0.319 C 
HETATM   13  O   UNK N   1       8.399   0.421  -0.000  0.00  0.00    -0.252 OA
BRANCH  12  14
HETATM   14  S   UNK N   1       7.487  -2.036   0.000  0.00  0.00    -0.074 SA
HETATM   15  H   UNK N   1       6.354  -2.789   0.000  0.00  0.00     0.112 HD
ENDBRANCH  12  14
ENDBRANCH  11  12
ENDBRANCH  10  11
ENDBRANCH   9  10
ENDBRANCH   1   9
TORSDOF 11
