REMARK  2 active torsions:
REMARK  status: ('A' for Active; 'I' for Inactive)
REMARK    1  A    between atoms: C_1  and  C_7 
REMARK    2  A    between atoms: C_7  and  N_6 
ROOT
HETATM    1  C   UNK N   1      -2.170   0.494   0.000  0.00  0.00    -0.039 A 
HETATM    2  C   UNK N   1      -0.942   1.160   0.000  0.00  0.00     0.040 A 
HETATM    3  C   UNK N   1       0.248  -0.949   0.000  0.00  0.00     0.056 A 
HETATM    4  C   UNK N   1      -0.992  -1.619   0.000  0.00  0.00     0.032 A 
HETATM    5  C   UNK N   1      -2.192  -0.901   0.000  0.00  0.00     0.011 A 
HETATM    6  N   UNK N   1       1.466  -1.685   0.000  0.00  0.00    -0.382 N 
HETATM    7  C   UNK N   1       1.444  -3.127  -0.000  0.00  0.00     0.150 C 
HETATM    8  C   UNK N   1       2.764  -1.042   0.000  0.00  0.00     0.142 A 
HETATM    9  C   UNK N   1       2.782   0.493  -0.000  0.00  0.00     0.142 A 
HETATM   10  N   UNK N   1       1.501   1.161   0.000  0.00  0.00    -0.382 N 
HETATM   11  C   UNK N   1       1.504   2.604   0.000  0.00  0.00     0.150 C 
HETATM   12  C   UNK N   1       0.267   0.453   0.000  0.00  0.00     0.057 A 
ENDROOT
BRANCH   1  13
HETATM   13  C   UNK N   1      -3.459   1.259  -0.000  0.00  0.00     0.150 C 
BRANCH  13  14
HETATM   14  N   UNK N   1      -3.233   2.698  -0.000  0.00  0.00    -0.426 N 
HETATM   15  H   UNK N   1      -2.281   3.065  -0.000  0.00  0.00     0.150 HD
HETATM   16  H   UNK N   1      -4.026   3.339  -0.000  0.00  0.00     0.150 HD
ENDBRANCH  13  14
ENDBRANCH   1  13
TORSDOF 2
