REMARK  4 active torsions:
REMARK  status: ('A' for Active; 'I' for Inactive)
REMARK    1  A    between atoms: C_1  and  C_15 
REMARK    2  A    between atoms: C_7  and  O_8 
REMARK    3  A    between atoms: C_9  and  C_15 
REMARK    4  A    between atoms: C_15  and  C_16 
ROOT
HETATM    1  C   UNK N   1      -0.945  -0.565  -0.272  0.00  0.00     0.060 A 
HETATM    2  C   UNK N   1      -1.091  -1.971  -0.132  0.00  0.00     0.297 A 
HETATM    3  O   UNK N   1      -2.133  -2.527  -0.417  0.00  0.00    -0.259 OA
HETATM    4  O   UNK N   1      -0.069  -2.719   0.277  0.00  0.00    -0.279 OA
HETATM    5  C   UNK N   1       1.131  -2.239   0.582  0.00  0.00     0.066 A 
HETATM    6  C   UNK N   1       1.359  -0.844   0.488  0.00  0.00     0.006 A 
HETATM    7  C   UNK N   1       0.318  -0.020   0.045  0.00  0.00     0.087 A 
HETATM    8  C   UNK N   1       2.170  -3.265   0.997  0.00  0.00     0.066 C 
HETATM    9  C   UNK N   1       3.623  -2.838   1.166  0.00  0.00     0.006 C 
HETATM   10  C   UNK N   1       4.263  -2.538  -0.182  0.00  0.00     0.000 C 
HETATM   11  C   UNK N   1       4.739  -1.092  -0.220  0.00  0.00     0.000 C 
HETATM   12  C   UNK N   1       3.573  -0.127  -0.368  0.00  0.00     0.005 C 
HETATM   13  C   UNK N   1       2.665  -0.200   0.848  0.00  0.00     0.044 C 
ENDROOT
BRANCH   1  14
HETATM   14  C   UNK N   1      -2.061   0.356  -0.825  0.00  0.00     0.060 C 
BRANCH  14  15
HETATM   15  C   UNK N   1      -2.173   1.694  -0.111  0.00  0.00    -0.049 A 
HETATM   16  C   UNK N   1      -2.567   1.786   1.234  0.00  0.00     0.008 A 
HETATM   17  C   UNK N   1      -2.641   3.035   1.861  0.00  0.00     0.001 A 
HETATM   18  C   UNK N   1      -2.309   4.197   1.157  0.00  0.00     0.000 A 
HETATM   19  C   UNK N   1      -1.911   4.113  -0.178  0.00  0.00     0.001 A 
HETATM   20  C   UNK N   1      -1.848   2.870  -0.809  0.00  0.00     0.008 A 
ENDBRANCH  14  15
BRANCH  14  21
HETATM   21  C   UNK N   1      -3.458  -0.271  -0.998  0.00  0.00     0.010 C 
HETATM   22  C   UNK N   1      -4.153  -0.617   0.315  0.00  0.00     0.006 C 
ENDBRANCH  14  21
ENDBRANCH   1  14
BRANCH   7  23
HETATM   23  O   UNK N   1       0.544   1.302  -0.076  0.00  0.00    -0.359 OA
HETATM   24  H   UNK N   1       1.419   1.626  -0.160  0.00  0.00     0.217 HD
ENDBRANCH   7  23
TORSDOF 4
