REMARK  31 active torsions:
REMARK  status: ('A' for Active; 'I' for Inactive)
REMARK    1  A    between atoms: C_2  and  C_14 
REMARK    2  A    between atoms: C_5  and  O_12 
REMARK    3  A    between atoms: C_6  and  O_10 
REMARK    4  A    between atoms: C_14  and  C_15 
REMARK    5  A    between atoms: C_16  and  C_17 
REMARK    6  A    between atoms: C_17  and  C_18 
REMARK    7  A    between atoms: C_18  and  C_19 
REMARK    8  A    between atoms: C_20  and  C_21 
REMARK    9  A    between atoms: C_21  and  C_22 
REMARK   10  A    between atoms: C_22  and  C_23 
REMARK   11  A    between atoms: C_24  and  C_25 
REMARK   12  A    between atoms: C_25  and  C_26 
REMARK   13  A    between atoms: C_26  and  C_27 
REMARK   14  A    between atoms: C_28  and  C_29 
REMARK   15  A    between atoms: C_29  and  C_30 
REMARK   16  A    between atoms: C_30  and  C_31 
REMARK   17  A    between atoms: C_32  and  C_33 
REMARK   18  A    between atoms: C_33  and  C_34 
REMARK   19  A    between atoms: C_34  and  C_35 
REMARK   20  A    between atoms: C_36  and  C_37 
REMARK   21  A    between atoms: C_37  and  C_38 
REMARK   22  A    between atoms: C_38  and  C_39 
REMARK   23  A    between atoms: C_40  and  C_41 
REMARK   24  A    between atoms: C_41  and  C_42 
REMARK   25  A    between atoms: C_42  and  C_43 
REMARK   26  A    between atoms: C_44  and  C_45 
REMARK   27  A    between atoms: C_45  and  C_46 
REMARK   28  A    between atoms: C_46  and  C_47 
REMARK   29  A    between atoms: C_48  and  C_49 
REMARK   30  A    between atoms: C_49  and  C_50 
REMARK   31  A    between atoms: C_50  and  C_51 
ROOT
HETATM    1  C   UNK N   1      -2.645  -1.128   0.674  0.00  0.00    -0.024 C 
HETATM    2  C   UNK N   1      -2.049  -0.516  -0.360  0.00  0.00    -0.087 C 
HETATM    3  C   UNK N   1      -2.069  -1.093  -1.742  0.00  0.00     0.043 C 
ENDROOT
BRANCH   2   4
HETATM    4  C   UNK N   1      -1.225   0.699  -0.078  0.00  0.00     0.037 C 
BRANCH   4   5
HETATM    5  C   UNK N   1       0.241   0.313   0.084  0.00  0.00     0.031 C 
BRANCH   5   6
HETATM    6  C   UNK N   1       0.387  -0.735   1.155  0.00  0.00    -0.024 C 
HETATM    7  C   UNK N   1       0.717  -2.000   0.863  0.00  0.00    -0.087 C 
HETATM    8  C   UNK N   1       0.841  -2.997   1.963  0.00  0.00     0.043 C 
BRANCH   7   9
HETATM    9  C   UNK N   1       1.003  -2.421  -0.550  0.00  0.00     0.037 C 
BRANCH   9  10
HETATM   10  C   UNK N   1       2.504  -2.505  -0.757  0.00  0.00     0.031 C 
BRANCH  10  11
HETATM   11  C   UNK N   1       3.095  -1.130  -0.664  0.00  0.00    -0.024 C 
HETATM   12  C   UNK N   1       3.771  -0.706   0.417  0.00  0.00    -0.087 C 
HETATM   13  C   UNK N   1       3.984  -1.596   1.601  0.00  0.00     0.043 C 
BRANCH  12  14
HETATM   14  C   UNK N   1       4.387   0.669   0.428  0.00  0.00     0.037 C 
BRANCH  14  15
HETATM   15  C   UNK N   1       5.373   0.926  -0.729  0.00  0.00     0.031 C 
BRANCH  15  16
HETATM   16  C   UNK N   1       5.957  -0.350  -1.265  0.00  0.00    -0.024 C 
HETATM   17  C   UNK N   1       6.862  -1.076  -0.608  0.00  0.00    -0.087 C 
HETATM   18  C   UNK N   1       7.271  -2.389  -1.182  0.00  0.00     0.043 C 
BRANCH  17  19
HETATM   19  C   UNK N   1       7.503  -0.602   0.673  0.00  0.00     0.037 C 
BRANCH  19  20
HETATM   20  C   UNK N   1       8.686   0.339   0.390  0.00  0.00     0.031 C 
BRANCH  20  21
HETATM   21  C   UNK N   1       9.552  -0.220  -0.707  0.00  0.00    -0.024 C 
HETATM   22  C   UNK N   1      10.253  -1.352  -0.580  0.00  0.00    -0.087 C 
HETATM   23  C   UNK N   1      10.942  -1.898  -1.785  0.00  0.00     0.043 C 
BRANCH  22  24
HETATM   24  C   UNK N   1      10.310  -2.100   0.733  0.00  0.00     0.037 C 
BRANCH  24  25
HETATM   25  C   UNK N   1      11.737  -2.376   1.219  0.00  0.00     0.031 C 
BRANCH  25  26
HETATM   26  C   UNK N   1      12.664  -1.227   0.940  0.00  0.00    -0.024 C 
HETATM   27  C   UNK N   1      13.627  -1.320   0.011  0.00  0.00    -0.087 C 
HETATM   28  C   UNK N   1      13.824  -2.573  -0.786  0.00  0.00     0.043 C 
BRANCH  27  29
HETATM   29  C   UNK N   1      14.460  -0.129  -0.320  0.00  0.00     0.037 C 
BRANCH  29  30
HETATM   30  C   UNK N   1      15.436   0.189   0.797  0.00  0.00     0.031 C 
BRANCH  30  31
HETATM   31  C   UNK N   1      16.833   0.128   0.260  0.00  0.00    -0.024 C 
HETATM   32  C   UNK N   1      17.484  -1.023   0.039  0.00  0.00    -0.091 C 
HETATM   33  C   UNK N   1      18.864  -0.980  -0.515  0.00  0.00     0.042 C 
HETATM   34  C   UNK N   1      16.868  -2.351   0.342  0.00  0.00     0.042 C 
ENDBRANCH  30  31
ENDBRANCH  29  30
ENDBRANCH  27  29
ENDBRANCH  25  26
ENDBRANCH  24  25
ENDBRANCH  22  24
ENDBRANCH  20  21
ENDBRANCH  19  20
ENDBRANCH  17  19
ENDBRANCH  15  16
ENDBRANCH  14  15
ENDBRANCH  12  14
ENDBRANCH  10  11
ENDBRANCH   9  10
ENDBRANCH   7   9
ENDBRANCH   5   6
ENDBRANCH   4   5
ENDBRANCH   2   4
BRANCH   1  35
HETATM   35  C   UNK N   1      -3.421  -2.407   0.561  0.00  0.00     0.031 C 
BRANCH  35  36
HETATM   36  C   UNK N   1      -4.672  -2.216  -0.277  0.00  0.00     0.037 C 
BRANCH  36  37
HETATM   37  C   UNK N   1      -5.613  -1.267   0.384  0.00  0.00    -0.087 C 
HETATM   38  C   UNK N   1      -5.617   0.013  -0.012  0.00  0.00    -0.024 C 
HETATM   39  C   UNK N   1      -6.558  -1.782   1.424  0.00  0.00     0.043 C 
BRANCH  38  40
HETATM   40  C   UNK N   1      -6.561   1.037   0.542  0.00  0.00     0.031 C 
BRANCH  40  41
HETATM   41  C   UNK N   1      -7.656   1.306  -0.487  0.00  0.00     0.037 C 
BRANCH  41  42
HETATM   42  C   UNK N   1      -8.491   0.076  -0.656  0.00  0.00    -0.087 C 
HETATM   43  C   UNK N   1      -9.283  -0.319   0.352  0.00  0.00    -0.024 C 
HETATM   44  C   UNK N   1      -8.312  -0.748  -1.894  0.00  0.00     0.043 C 
BRANCH  43  45
HETATM   45  C   UNK N   1     -10.042  -1.609   0.364  0.00  0.00     0.031 C 
BRANCH  45  46
HETATM   46  C   UNK N   1     -11.008  -1.743  -0.800  0.00  0.00     0.037 C 
BRANCH  46  47
HETATM   47  C   UNK N   1     -11.673  -3.083  -0.734  0.00  0.00    -0.087 C 
HETATM   48  C   UNK N   1     -12.561  -3.391   0.221  0.00  0.00    -0.020 C 
HETATM   49  C   UNK N   1     -11.325  -4.109  -1.756  0.00  0.00     0.043 C 
BRANCH  48  50
HETATM   50  C   UNK N   1     -12.991  -2.420   1.286  0.00  0.00     0.071 C 
BRANCH  50  51
HETATM   51  C   UNK N   1     -14.040  -1.458   0.778  0.00  0.00     0.008 A 
HETATM   52  C   UNK N   1     -13.705  -0.015   0.679  0.00  0.00     0.215 A 
HETATM   53  C   UNK N   1     -14.711   0.970   0.203  0.00  0.00     0.156 A 
HETATM   54  O   UNK N   1     -12.592   0.373   0.999  0.00  0.00    -0.285 OA
HETATM   55  C   UNK N   1     -15.959   0.548  -0.149  0.00  0.00     0.156 A 
HETATM   56  C   UNK N   1     -16.289  -0.916  -0.052  0.00  0.00     0.214 A 
HETATM   57  C   UNK N   1     -15.273  -1.884   0.432  0.00  0.00     0.002 A 
HETATM   58  O   UNK N   1     -17.394  -1.327  -0.366  0.00  0.00    -0.285 OA
HETATM   59  C   UNK N   1     -15.648  -3.335   0.537  0.00  0.00     0.053 C 
BRANCH  53  60
HETATM   60  O   UNK N   1     -14.314   2.280   0.149  0.00  0.00    -0.350 OA
HETATM   61  C   UNK N   1     -15.075   3.354  -0.253  0.00  0.00     0.210 C 
ENDBRANCH  53  60
BRANCH  55  62
HETATM   62  O   UNK N   1     -16.881   1.458  -0.578  0.00  0.00    -0.350 OA
HETATM   63  C   UNK N   1     -18.182   1.177  -0.925  0.00  0.00     0.210 C 
ENDBRANCH  55  62
ENDBRANCH  50  51
ENDBRANCH  48  50
ENDBRANCH  46  47
ENDBRANCH  45  46
ENDBRANCH  43  45
ENDBRANCH  41  42
ENDBRANCH  40  41
ENDBRANCH  38  40
ENDBRANCH  36  37
ENDBRANCH  35  36
ENDBRANCH   1  35
TORSDOF 31
