REMARK  8 active torsions:
REMARK  status: ('A' for Active; 'I' for Inactive)
REMARK    1  A    between atoms: C_2  and  C_3 
REMARK    2  A    between atoms: C_3  and  C_4 
REMARK    3  A    between atoms: C_4  and  C_5 
REMARK    4  A    between atoms: C_5  and  C_6 
REMARK    5  A    between atoms: C_6  and  C_7 
REMARK    6  A    between atoms: C_7  and  C_8 
REMARK    7  A    between atoms: C_8  and  C_9 
REMARK    8  A    between atoms: C_9  and  C_10 
ROOT
HETATM    1  C   UNK N   1       0.055  -0.199   0.002  0.00  0.00     0.000 C 
ENDROOT
BRANCH   1   2
HETATM    2  C   UNK N   1      -1.209   0.623   0.002  0.00  0.00     0.000 C 
BRANCH   2   3
HETATM    3  C   UNK N   1      -2.386  -0.325   0.001  0.00  0.00     0.000 C 
BRANCH   3   4
HETATM    4  C   UNK N   1      -3.669   0.470  -0.001  0.00  0.00    -0.000 C 
BRANCH   4   5
HETATM    5  C   UNK N   1      -4.844  -0.480  -0.000  0.00  0.00    -0.005 C 
HETATM    6  C   UNK N   1      -6.128   0.320  -0.000  0.00  0.00     0.005 C 
ENDBRANCH   4   5
ENDBRANCH   3   4
ENDBRANCH   2   3
ENDBRANCH   1   2
BRANCH   1   7
HETATM    7  C   UNK N   1       1.271   0.697   0.000  0.00  0.00     0.000 C 
BRANCH   7   8
HETATM    8  C   UNK N   1       2.480  -0.206  -0.009  0.00  0.00     0.007 C 
BRANCH   8   9
HETATM    9  C   UNK N   1       3.766   0.597  -0.001  0.00  0.00     0.077 C 
BRANCH   9  10
HETATM   10  C   UNK N   1       4.980  -0.290   0.001  0.00  0.00     0.123 C 
HETATM   11  O   UNK N   1       6.087   0.220   0.007  0.00  0.00    -0.298 OA
HETATM   12  C   UNK N   1       4.869  -1.783  -0.004  0.00  0.00     0.091 C 
ENDBRANCH   9  10
ENDBRANCH   8   9
ENDBRANCH   7   8
ENDBRANCH   1   7
TORSDOF 8
