REMARK  7 active torsions:
REMARK  status: ('A' for Active; 'I' for Inactive)
REMARK    1  A    between atoms: C_1  and  C_7 
REMARK    2  A    between atoms: C_7  and  C_8 
REMARK    3  A    between atoms: C_8  and  N_11 
REMARK    4  A    between atoms: C_8  and  B_16 
REMARK       I    between atoms: C_10  and  N_11 
REMARK    5  A    between atoms: O_13  and  B_16 
REMARK    6  A    between atoms: O_14  and  B_16 
REMARK    7  A    between atoms: O_15  and  B_16 
ROOT
HETATM    1  C   UNK N   1      -1.353  -0.419   0.325  0.00  0.00     0.153 C 
ENDROOT
BRANCH   1   2
HETATM    2  C   UNK N   1      -1.168   0.687  -0.732  0.00  0.00     0.062 C 
BRANCH   2   3
HETATM    3  C   UNK N   1      -0.045   1.652  -0.466  0.00  0.00    -0.057 A 
HETATM    4  C   UNK N   1      -0.340   2.971  -0.097  0.00  0.00     0.009 A 
HETATM    5  C   UNK N   1       0.694   3.884   0.138  0.00  0.00     0.024 A 
HETATM    6  C   UNK N   1       2.027   3.484  -0.003  0.00  0.00     0.034 A 
HETATM    7  C   UNK N   1       2.325   2.175  -0.386  0.00  0.00     0.024 A 
HETATM    8 Cl   UNK N   1       3.323   4.622   0.297  0.00  0.00    -0.084 Cl
HETATM    9  C   UNK N   1       1.292   1.264  -0.624  0.00  0.00     0.009 A 
ENDBRANCH   2   3
ENDBRANCH   1   2
BRANCH   1  10
HETATM   10  N   UNK N   1      -2.683  -1.003   0.154  0.00  0.00    -0.356 N 
HETATM   11  C   UNK N   1      -3.040  -2.174  -0.433  0.00  0.00     0.213 C 
HETATM   12  C   UNK N   1      -4.475  -2.563  -0.475  0.00  0.00     0.117 C 
HETATM   13  O   UNK N   1      -2.208  -2.915  -0.947  0.00  0.00    -0.274 OA
HETATM   14  H   UNK N   1      -3.426  -0.470   0.518  0.00  0.00     0.162 HD
ENDBRANCH   1  10
BRANCH   1  15
HETATM   15  B   UNK N   1      -0.100  -1.474   0.436  0.00  0.00     0.627 B 
BRANCH  15  16
HETATM   16  O   UNK N   1       0.972  -0.879   1.247  0.00  0.00    -0.408 OA
HETATM   17  H   UNK N   1       1.666  -1.295   1.783  0.00  0.00     0.188 HD
ENDBRANCH  15  16
BRANCH  15  18
HETATM   18  O   UNK N   1       0.427  -1.781  -0.904  0.00  0.00    -0.408 OA
HETATM   19  H   UNK N   1       0.426  -2.183  -1.787  0.00  0.00     0.188 HD
ENDBRANCH  15  18
BRANCH  15  20
HETATM   20  O   UNK N   1      -0.518  -2.722   1.093  0.00  0.00    -0.408 OA
HETATM   21  H   UNK N   1      -1.369  -2.894   1.527  0.00  0.00     0.188 HD
ENDBRANCH  15  20
ENDBRANCH   1  15
TORSDOF 7
