REMARK  9 active torsions:
REMARK  status: ('A' for Active; 'I' for Inactive)
REMARK    1  A    between atoms: C_2  and  C_3 
REMARK    2  A    between atoms: C_3  and  C_4 
REMARK    3  A    between atoms: C_4  and  C_5 
REMARK       I    between atoms: C_5  and  N_7 
REMARK    4  A    between atoms: C_8  and  N_7 
REMARK    5  A    between atoms: C_9  and  O_10 
REMARK    6  A    between atoms: C_13  and  C_14 
REMARK    7  A    between atoms: N_18  and  O_20 
REMARK    8  A    between atoms: O_20  and  C_21 
REMARK       I    between atoms: C_21  and  N_23 
REMARK    9  A    between atoms: N_23  and  C_24 
ROOT
HETATM    1  C   UNK N   1      -0.504   0.706   0.526  0.00  0.00     0.192 C 
HETATM    2  C   UNK N   1      -0.636   2.218   0.884  0.00  0.00     0.180 C 
HETATM    3  C   UNK N   1       0.387   3.109   0.159  0.00  0.00     0.180 C 
HETATM    4  O   UNK N   1       0.186   3.084  -1.225  0.00  0.00    -0.390 OA
HETATM    5  C   UNK N   1       1.772   2.552   0.524  0.00  0.00     0.185 C 
HETATM    6  O   UNK N   1       1.899   1.271   0.039  0.00  0.00    -0.326 OA
HETATM    7  C   UNK N   1       0.929   0.326   0.136  0.00  0.00     0.165 C 
HETATM    8  N   UNK N   1       1.256  -0.886  -0.141  0.00  0.00    -0.236 N 
ATOM      9  HN  UNK N   1       2.210  -1.069  -0.451  1.00  0.00     0.197 HD
HETATM   10  H   UNK N   1       0.102   3.196  -2.185  0.00  0.00     0.210 HD
ENDROOT
BRANCH   2  11
HETATM   11  O   UNK N   1      -1.937   2.691   0.685  0.00  0.00    -0.390 OA
HETATM   12  H   UNK N   1      -2.105   3.636   0.547  0.00  0.00     0.210 HD
ENDBRANCH   2  11
BRANCH   5  13
HETATM   13  C   UNK N   1       2.937   3.408   0.037  0.00  0.00     0.199 C 
HETATM   14  O   UNK N   1       3.051   3.364  -1.352  0.00  0.00    -0.398 OA
HETATM   15  H   UNK N   1       3.064   3.280  -2.319  0.00  0.00     0.209 HD
ENDBRANCH   5  13
BRANCH   1  16
HETATM   16  N   UNK N   1      -1.418   0.339  -0.547  0.00  0.00    -0.346 N 
HETATM   17  C   UNK N   1      -2.709  -0.023  -0.300  0.00  0.00     0.218 C 
HETATM   18  O   UNK N   1      -3.146  -0.021   0.844  0.00  0.00    -0.274 OA
HETATM   19  H   UNK N   1      -1.095   0.352  -1.476  0.00  0.00     0.163 HD
BRANCH  17  20
HETATM   20  C   UNK N   1      -3.596  -0.460  -1.425  0.00  0.00     0.103 C 
BRANCH  20  21
HETATM   21  C   UNK N   1      -4.896   0.335  -1.444  0.00  0.00     0.009 C 
BRANCH  21  22
HETATM   22  C   UNK N   1      -5.858  -0.209  -0.401  0.00  0.00    -0.004 C 
HETATM   23  C   UNK N   1      -6.773   0.899   0.075  0.00  0.00     0.005 C 
ENDBRANCH  21  22
ENDBRANCH  20  21
ENDBRANCH  17  20
ENDBRANCH   1  16
BRANCH   8  24
HETATM   24  O   UNK N   1       0.430  -1.898  -0.045  0.00  0.00    -0.179 OA
BRANCH  24  25
HETATM   25  C   UNK N   1       0.814  -3.193  -0.233  0.00  0.00     0.387 C 
HETATM   26  O   UNK N   1      -0.064  -4.033  -0.328  0.00  0.00    -0.236 OA
HETATM   27  N   UNK N   1       2.117  -3.615  -0.358  0.00  0.00    -0.301 N 
HETATM   28  H   UNK N   1       2.189  -4.564  -0.611  0.00  0.00     0.171 HD
BRANCH  27  29
HETATM   29  C   UNK N   1       3.393  -2.982  -0.205  0.00  0.00     0.036 A 
HETATM   30  C   UNK N   1       3.590  -1.792   0.513  0.00  0.00     0.029 A 
HETATM   31  C   UNK N   1       4.864  -1.231   0.644  0.00  0.00     0.002 A 
HETATM   32  C   UNK N   1       5.968  -1.875   0.086  0.00  0.00     0.000 A 
HETATM   33  C   UNK N   1       5.796  -3.083  -0.593  0.00  0.00     0.002 A 
HETATM   34  C   UNK N   1       4.517  -3.632  -0.733  0.00  0.00     0.029 A 
ENDBRANCH  27  29
ENDBRANCH  24  25
ENDBRANCH   8  24
TORSDOF 9
