REMARK  4 active torsions:
REMARK  status: ('A' for Active; 'I' for Inactive)
REMARK    1  A    between atoms: C_1  and  C_11 
REMARK    2  A    between atoms: N_22  and  C_9 
REMARK    3  A    between atoms: C_10  and  N_22 
REMARK    4  A    between atoms: C_21  and  C_20 
ROOT
HETATM    1  N   UNK N   1      -2.026  -2.934  -0.044  0.00  0.00    -0.282 N 
ATOM      2  HN  UNK N   1      -2.496  -3.839  -0.020  1.00  0.00     0.188 HD
HETATM    3  C   UNK N   1      -0.703  -2.718  -0.150  0.00  0.00     0.143 A 
HETATM    4  C   UNK N   1       0.301  -3.662  -0.291  0.00  0.00     0.056 A 
HETATM    5  C   UNK N   1       1.852  -1.788  -0.382  0.00  0.00     0.116 A 
HETATM    6  C   UNK N   1       1.609  -3.175  -0.425  0.00  0.00     0.053 A 
HETATM    7  N   UNK N   1      -2.604  -1.735   0.023  0.00  0.00    -0.282 N 
ATOM      8  HN  UNK N   1      -3.604  -1.550   0.106  1.00  0.00     0.188 HD
HETATM    9  C   UNK N   1      -1.619  -0.806  -0.040  0.00  0.00     0.154 A 
HETATM   10  N   UNK N   1       0.807  -0.918  -0.235  0.00  0.00    -0.276 N 
ATOM     11  HN  UNK N   1       0.968   0.088  -0.199  1.00  0.00     0.189 HD
HETATM   12  N   UNK N   1      -0.426  -1.415  -0.138  0.00  0.00    -0.219 N 
ENDROOT
BRANCH   9  13
HETATM   13  C   UNK N   1      -1.848   0.652  -0.049  0.00  0.00     0.012 A 
HETATM   14  C   UNK N   1      -3.155   1.163  -0.003  0.00  0.00     0.031 A 
HETATM   15  C   UNK N   1      -3.377   2.550  -0.040  0.00  0.00     0.048 A 
HETATM   16  C   UNK N   1      -2.284   3.421  -0.123  0.00  0.00     0.016 A 
HETATM   17  C   UNK N   1      -0.983   2.917  -0.171  0.00  0.00     0.002 A 
HETATM   18  C   UNK N   1      -0.767   1.539  -0.136  0.00  0.00     0.015 A 
BRANCH  15  19
HETATM   19  C   UNK N   1      -4.768   3.114   0.005  0.00  0.00     0.417 C 
HETATM   20  F   UNK N   1      -4.897   3.929   1.115  0.00  0.00    -0.166 F 
HETATM   21  F   UNK N   1      -5.717   2.109   0.076  0.00  0.00    -0.166 F 
HETATM   22  F   UNK N   1      -4.998   3.864  -1.134  0.00  0.00    -0.166 F 
ENDBRANCH  15  19
ENDBRANCH   9  13
BRANCH   5  23
HETATM   23  N   UNK N   1       3.176  -1.320  -0.502  0.00  0.00    -0.371 N 
HETATM   24  H   UNK N   1       3.715  -1.598  -1.277  0.00  0.00     0.161 HD
BRANCH  23  25
HETATM   25  C   UNK N   1       3.761  -0.447   0.483  0.00  0.00     0.083 C 
HETATM   26  C   UNK N   1       4.832   0.440  -0.167  0.00  0.00     0.025 C 
HETATM   27  C   UNK N   1       6.176  -0.271  -0.416  0.00  0.00     0.002 C 
HETATM   28  C   UNK N   1       6.059  -1.793  -0.355  0.00  0.00     0.000 C 
HETATM   29  C   UNK N   1       5.502  -2.248   1.001  0.00  0.00     0.002 C 
HETATM   30  C   UNK N   1       4.412  -1.314   1.567  0.00  0.00     0.025 C 
ENDBRANCH  23  25
ENDBRANCH   5  23
TORSDOF 4
