REMARK  6 active torsions:
REMARK  status: ('A' for Active; 'I' for Inactive)
REMARK    1  A    between atoms: C_7  and  C_8 
REMARK    2  A    between atoms: C_8  and  C_9 
REMARK    3  A    between atoms: C_9  and  C_10 
REMARK    4  A    between atoms: C_10  and  O_11 
REMARK    5  A    between atoms: O_11  and  C_12 
REMARK    6  A    between atoms: C_16  and  C_20 
ROOT
HETATM    1  C   UNK N   1       0.932   0.764   0.157  0.00  0.00     0.080 A 
HETATM    2  C   UNK N   1       2.189   1.369  -0.053  0.00  0.00    -0.027 A 
HETATM    3  C   UNK N   1       2.304   2.848  -0.211  0.00  0.00     0.051 C 
HETATM    4  C   UNK N   1       3.353   0.594  -0.109  0.00  0.00     0.023 A 
HETATM    5  C   UNK N   1       3.282  -0.795   0.036  0.00  0.00    -0.006 A 
HETATM    6  C   UNK N   1       2.047  -1.401   0.243  0.00  0.00     0.023 A 
HETATM    7  C   UNK N   1       0.877  -0.654   0.312  0.00  0.00    -0.027 A 
HETATM    8  C   UNK N   1      -0.376  -1.418   0.564  0.00  0.00     0.051 C 
ENDROOT
BRANCH   1   9
HETATM    9  O   UNK N   1      -0.167   1.574   0.208  0.00  0.00    -0.350 OA
BRANCH   9  10
HETATM   10  C   UNK N   1      -1.470   1.179   0.415  0.00  0.00     0.176 C 
BRANCH  10  11
HETATM   11  C   UNK N   1      -2.065   0.610  -0.865  0.00  0.00     0.033 C 
BRANCH  11  12
HETATM   12  C   UNK N   1      -3.308  -0.211  -0.541  0.00  0.00     0.069 C 
BRANCH  12  13
HETATM   13  C   UNK N   1      -4.505   0.637  -0.247  0.00  0.00     0.078 A 
HETATM   14  O   UNK N   1      -5.693   0.155   0.036  0.00  0.00    -0.242 OA
HETATM   15  N   UNK N   1      -6.546   1.114   0.231  0.00  0.00    -0.266 N 
HETATM   16  C   UNK N   1      -5.883   2.273   0.068  0.00  0.00     0.031 A 
ATOM     17  HN  UNK N   1      -7.534   1.008   0.464  1.00  0.00     0.194 HD
HETATM   18  C   UNK N   1      -6.500   3.618   0.199  0.00  0.00     0.070 C 
HETATM   19  C   UNK N   1      -4.567   2.020  -0.241  0.00  0.00     0.061 A 
ENDBRANCH  12  13
ENDBRANCH  11  12
ENDBRANCH  10  11
ENDBRANCH   9  10
ENDBRANCH   1   9
BRANCH   5  20
HETATM   20  C   UNK N   1       4.484  -1.638  -0.014  0.00  0.00     0.066 A 
HETATM   21  C   UNK N   1       5.793  -1.220  -0.159  0.00  0.00     0.174 A 
HETATM   22  O   UNK N   1       6.535  -2.305  -0.148  0.00  0.00    -0.308 OA
HETATM   23  C   UNK N   1       5.742  -3.342  -0.007  0.00  0.00     0.119 A 
HETATM   24  N   UNK N   1       4.453  -2.980   0.082  0.00  0.00    -0.338 N 
HETATM   25  C   UNK N   1       6.205  -4.754   0.044  0.00  0.00     0.098 C 
ATOM     26  HN  UNK N   1       3.638  -3.582   0.197  1.00  0.00     0.168 HD
ENDBRANCH   5  20
TORSDOF 6
