REMARK  3 active torsions:
REMARK  status: ('A' for Active; 'I' for Inactive)
REMARK    1  A    between atoms: C_3  and  C_4 
REMARK    2  A    between atoms: C_4  and  C_5 
REMARK    3  A    between atoms: C_5  and  O_6 
ROOT
HETATM    1  O   UNK N   1       2.417   0.310   0.658  0.00  0.00    -0.271 OA
HETATM    2  C   UNK N   1       1.298   0.282   0.173  0.00  0.00     0.243 C 
HETATM    3  C   UNK N   1       0.682  -1.116  -0.041  0.00  0.00     0.184 C 
HETATM    4  N   UNK N   1       0.673   1.480  -0.100  0.00  0.00    -0.350 N 
HETATM    5  C   UNK N   1       1.398   2.705   0.160  0.00  0.00     0.153 C 
HETATM    6  C   UNK N   1      -0.613   1.636  -0.739  0.00  0.00     0.166 C 
HETATM    7  C   UNK N   1      -1.773   0.870  -0.184  0.00  0.00    -0.014 A 
HETATM    8  C   UNK N   1      -1.761  -0.519  -0.260  0.00  0.00     0.036 A 
HETATM    9  N   UNK N   1      -0.604  -1.190  -0.695  0.00  0.00    -0.376 N 
HETATM   10  C   UNK N   1      -2.953   1.535   0.180  0.00  0.00     0.011 A 
HETATM   11  C   UNK N   1      -4.116   0.803   0.458  0.00  0.00     0.001 A 
HETATM   12  C   UNK N   1      -4.110  -0.589   0.334  0.00  0.00     0.002 A 
HETATM   13  C   UNK N   1      -2.932  -1.248  -0.024  0.00  0.00     0.030 A 
HETATM   14  H   UNK N   1      -0.676  -1.750  -1.501  0.00  0.00     0.160 HD
ENDROOT
BRANCH   3  15
HETATM   15  C   UNK N   1       1.600  -2.028  -0.868  0.00  0.00     0.144 C 
BRANCH  15  16
HETATM   16  C   UNK N   1       2.857  -2.475  -0.185  0.00  0.00     0.141 C 
HETATM   17  O   UNK N   1       3.884  -1.831  -0.317  0.00  0.00    -0.650 OA
BRANCH  16  18
HETATM   18  O   UNK N   1       2.887  -3.653   0.468  0.00  0.00    -0.776 OA
HETATM   19  H   UNK N   1       2.188  -4.080   0.922  0.00  0.00     0.167 HD
ENDBRANCH  16  18
ENDBRANCH  15  16
ENDBRANCH   3  15
TORSDOF 3
