REMARK  4 active torsions:
REMARK  status: ('A' for Active; 'I' for Inactive)
REMARK    1  A    between atoms: C_2  and  O_1 
REMARK    2  A    between atoms: O_4  and  C_3 
REMARK    3  A    between atoms: C_9  and  C_8 
REMARK    4  A    between atoms: C_13  and  C_14 
ROOT
HETATM    1  C   UNK N   1      -0.577   2.615   0.014  0.00  0.00     0.098 A 
HETATM    2  C   UNK N   1      -1.746   1.845   0.004  0.00  0.00     0.099 A 
HETATM    3  C   UNK N   1      -1.657   0.449  -0.010  0.00  0.00     0.052 A 
HETATM    4  C   UNK N   1       0.666   1.987   0.006  0.00  0.00     0.040 A 
HETATM    5  C   UNK N   1       0.742   0.595  -0.008  0.00  0.00     0.016 A 
HETATM    6  C   UNK N   1      -0.406  -0.195  -0.014  0.00  0.00    -0.016 A 
ENDROOT
BRANCH   6   7
HETATM    7  C   UNK N   1      -0.351  -1.685  -0.014  0.00  0.00     0.021 A 
HETATM    8  C   UNK N   1       0.724  -2.628  -0.004  0.00  0.00    -0.040 A 
HETATM    9  C   UNK N   1       0.263  -3.977   0.003  0.00  0.00     0.015 A 
HETATM   10  C   UNK N   1      -1.124  -4.127  -0.002  0.00  0.00     0.051 A 
HETATM   11  S   UNK N   1      -1.743  -2.598  -0.014  0.00  0.00    -0.101 SA
BRANCH   8  12
HETATM   12  C   UNK N   1       2.229  -2.455   0.003  0.00  0.00     0.035 C 
HETATM   13  C   UNK N   1       2.882  -1.093  -0.009  0.00  0.00     0.010 C 
ENDBRANCH   8  12
ENDBRANCH   6   7
BRANCH   2  14
HETATM   14  O   UNK N   1      -2.951   2.437   0.011  0.00  0.00    -0.358 OA
HETATM   15  H   UNK N   1      -3.014   3.372   0.016  0.00  0.00     0.217 HD
ENDBRANCH   2  14
BRANCH   1  16
HETATM   16  O   UNK N   1      -0.645   3.957   0.032  0.00  0.00    -0.358 OA
HETATM   17  H   UNK N   1       0.142   4.465   0.045  0.00  0.00     0.217 HD
ENDBRANCH   1  16
TORSDOF 4
