REMARK  8 active torsions:
REMARK  status: ('A' for Active; 'I' for Inactive)
REMARK    1  A    between atoms: C_7  and  C_8 
REMARK    2  A    between atoms: C_8  and  C_9 
REMARK    3  A    between atoms: C_9  and  C_10 
REMARK    4  A    between atoms: C_10  and  C_11 
REMARK    5  A    between atoms: C_11  and  C_12 
REMARK    6  A    between atoms: C_12  and  O_13 
REMARK    7  A    between atoms: O_13  and  C_14 
REMARK    8  A    between atoms: C_17  and  C_21 
ROOT
HETATM    1  C   UNK N   1       1.668   0.730   0.272  0.00  0.00     0.090 A 
HETATM    2  C   UNK N   1       2.934   1.223  -0.063  0.00  0.00     0.039 A 
HETATM    3  C   UNK N   1       4.036   0.375  -0.155  0.00  0.00     0.018 A 
HETATM    4  C   UNK N   1       3.890  -0.994   0.084  0.00  0.00     0.016 A 
HETATM    5  C   UNK N   1       2.639  -1.501   0.435  0.00  0.00     0.042 A 
HETATM    6  C   UNK N   1       1.525  -0.664   0.541  0.00  0.00     0.068 A 
HETATM    7 Cl   UNK N   1       0.026  -1.433   1.039  0.00  0.00    -0.081 Cl
ENDROOT
BRANCH   1   8
HETATM    8  O   UNK N   1       0.651   1.631   0.306  0.00  0.00    -0.349 OA
BRANCH   8   9
HETATM    9  C   UNK N   1      -0.691   1.350   0.397  0.00  0.00     0.175 C 
BRANCH   9  10
HETATM   10  C   UNK N   1      -1.306   1.374  -0.995  0.00  0.00     0.027 C 
BRANCH  10  11
HETATM   11  C   UNK N   1      -1.214  -0.014  -1.620  0.00  0.00     0.002 C 
BRANCH  11  12
HETATM   12  C   UNK N   1      -2.487  -0.847  -1.443  0.00  0.00     0.007 C 
BRANCH  12  13
HETATM   13  C   UNK N   1      -3.021  -0.829  -0.014  0.00  0.00     0.067 C 
BRANCH  13  14
HETATM   14  C   UNK N   1      -4.114   0.175   0.071  0.00  0.00     0.078 A 
HETATM   15  O   UNK N   1      -5.281   0.056  -0.517  0.00  0.00    -0.242 OA
HETATM   16  N   UNK N   1      -6.006   1.113  -0.321  0.00  0.00    -0.266 N 
HETATM   17  C   UNK N   1      -5.274   1.961   0.426  0.00  0.00     0.031 A 
ATOM     18  HN  UNK N   1      -6.952   1.272  -0.667  1.00  0.00     0.194 HD
HETATM   19  C   UNK N   1      -5.729   3.313   0.841  0.00  0.00     0.070 C 
HETATM   20  C   UNK N   1      -4.048   1.399   0.706  0.00  0.00     0.061 A 
ENDBRANCH  13  14
ENDBRANCH  12  13
ENDBRANCH  11  12
ENDBRANCH  10  11
ENDBRANCH   9  10
ENDBRANCH   8   9
ENDBRANCH   1   8
BRANCH   4  21
HETATM   21  C   UNK N   1       5.042  -1.904  -0.023  0.00  0.00     0.148 A 
HETATM   22  N   UNK N   1       6.217  -1.510  -0.294  0.00  0.00    -0.368 N 
HETATM   23  C   UNK N   1       7.118  -2.627  -0.323  0.00  0.00     0.148 A 
ATOM     24  HN  UNK N   1       6.483  -0.541  -0.466  1.00  0.00     0.161 HD
HETATM   25  C   UNK N   1       6.184  -3.815  -0.005  0.00  0.00     0.197 A 
HETATM   26  O   UNK N   1       4.950  -3.223   0.157  0.00  0.00    -0.334 OA
ENDBRANCH   4  21
TORSDOF 8
