REMARK  8 active torsions:
REMARK  status: ('A' for Active; 'I' for Inactive)
REMARK    1  A    between atoms: C_7  and  C_8 
REMARK    2  A    between atoms: C_8  and  C_9 
REMARK    3  A    between atoms: C_9  and  C_10 
REMARK    4  A    between atoms: C_10  and  C_11 
REMARK    5  A    between atoms: C_11  and  C_12 
REMARK    6  A    between atoms: C_12  and  O_13 
REMARK    7  A    between atoms: O_13  and  C_14 
REMARK    8  A    between atoms: C_17  and  C_20 
ROOT
HETATM    1  O   UNK N   1       0.799   2.100   0.044  0.00  0.00    -0.351 OA
ENDROOT
BRANCH   1   2
HETATM    2  C   UNK N   1      -0.524   1.876   0.387  0.00  0.00     0.175 C 
BRANCH   2   3
HETATM    3  C   UNK N   1      -1.229   0.914  -0.562  0.00  0.00     0.027 C 
BRANCH   3   4
HETATM    4  C   UNK N   1      -1.446  -0.404   0.164  0.00  0.00     0.002 C 
BRANCH   4   5
HETATM    5  C   UNK N   1      -2.460  -1.270  -0.553  0.00  0.00     0.007 C 
BRANCH   5   6
HETATM    6  C   UNK N   1      -3.711  -1.388   0.303  0.00  0.00     0.067 C 
BRANCH   6   7
HETATM    7  C   UNK N   1      -4.572  -0.178   0.152  0.00  0.00     0.078 A 
HETATM    8  O   UNK N   1      -5.802  -0.201  -0.301  0.00  0.00    -0.242 OA
HETATM    9  N   UNK N   1      -6.297   1.002  -0.346  0.00  0.00    -0.266 N 
HETATM   10  C   UNK N   1      -5.344   1.838   0.099  0.00  0.00     0.031 A 
ATOM     11  HN  UNK N   1      -7.232   1.261  -0.660  1.00  0.00     0.194 HD
HETATM   12  C   UNK N   1      -5.498   3.314   0.185  0.00  0.00     0.070 C 
HETATM   13  C   UNK N   1      -4.215   1.126   0.437  0.00  0.00     0.061 A 
ENDBRANCH   6   7
ENDBRANCH   5   6
ENDBRANCH   4   5
ENDBRANCH   3   4
ENDBRANCH   2   3
ENDBRANCH   1   2
BRANCH   1  14
HETATM   14  C   UNK N   1       1.772   1.153   0.034  0.00  0.00     0.068 A 
HETATM   15  C   UNK N   1       3.106   1.542  -0.133  0.00  0.00     0.038 A 
HETATM   16  C   UNK N   1       4.125   0.582  -0.144  0.00  0.00     0.018 A 
HETATM   17  C   UNK N   1       3.812  -0.780  -0.004  0.00  0.00     0.015 A 
HETATM   18  C   UNK N   1       2.482  -1.167   0.156  0.00  0.00     0.018 A 
HETATM   19  C   UNK N   1       1.475  -0.210   0.184  0.00  0.00     0.038 A 
BRANCH  17  20
HETATM   20  C   UNK N   1       4.863  -1.809  -0.017  0.00  0.00     0.148 A 
HETATM   21  N   UNK N   1       6.099  -1.544  -0.103  0.00  0.00    -0.368 N 
HETATM   22  C   UNK N   1       6.867  -2.757  -0.082  0.00  0.00     0.148 A 
ATOM     23  HN  UNK N   1       6.492  -0.606  -0.177  1.00  0.00     0.161 HD
HETATM   24  C   UNK N   1       5.773  -3.842   0.032  0.00  0.00     0.197 A 
HETATM   25  O   UNK N   1       4.601  -3.116   0.067  0.00  0.00    -0.334 OA
ENDBRANCH  17  20
ENDBRANCH   1  14
TORSDOF 8
