REMARK  10 active torsions:
REMARK  status: ('A' for Active; 'I' for Inactive)
REMARK    1  A    between atoms: C_7  and  C_8 
REMARK    2  A    between atoms: C_8  and  C_9 
REMARK    3  A    between atoms: C_9  and  C_10 
REMARK    4  A    between atoms: C_10  and  C_11 
REMARK    5  A    between atoms: C_11  and  C_12 
REMARK    6  A    between atoms: C_12  and  C_13 
REMARK    7  A    between atoms: C_13  and  C_14 
REMARK    8  A    between atoms: C_14  and  O_15 
REMARK    9  A    between atoms: O_15  and  C_16 
REMARK   10  A    between atoms: C_19  and  C_23 
ROOT
HETATM    1  O   UNK N   1       0.997   1.926  -0.110  0.00  0.00    -0.349 OA
ENDROOT
BRANCH   1   2
HETATM    2  C   UNK N   1      -0.234   1.750  -0.694  0.00  0.00     0.175 C 
BRANCH   2   3
HETATM    3  C   UNK N   1      -1.331   2.189   0.258  0.00  0.00     0.027 C 
BRANCH   3   4
HETATM    4  C   UNK N   1      -2.016   0.973   0.847  0.00  0.00     0.002 C 
BRANCH   4   5
HETATM    5  C   UNK N   1      -2.874   0.301  -0.208  0.00  0.00     0.000 C 
BRANCH   5   6
HETATM    6  C   UNK N   1      -3.214  -1.103   0.242  0.00  0.00     0.000 C 
BRANCH   6   7
HETATM    7  C   UNK N   1      -4.459  -1.594  -0.471  0.00  0.00     0.007 C 
BRANCH   7   8
HETATM    8  C   UNK N   1      -5.672  -1.401   0.427  0.00  0.00     0.067 C 
BRANCH   8   9
HETATM    9  C   UNK N   1      -6.340  -0.087   0.191  0.00  0.00     0.078 A 
HETATM   10  O   UNK N   1      -7.593   0.046  -0.174  0.00  0.00    -0.242 OA
HETATM   11  N   UNK N   1      -7.911   1.300  -0.291  0.00  0.00    -0.266 N 
HETATM   12  C   UNK N   1      -6.813   2.016   0.015  0.00  0.00     0.031 A 
ATOM     13  HN  UNK N   1      -8.821   1.672  -0.563  1.00  0.00     0.194 HD
HETATM   14  C   UNK N   1      -6.751   3.500  -0.002  0.00  0.00     0.070 C 
HETATM   15  C   UNK N   1      -5.777   1.167   0.338  0.00  0.00     0.061 A 
ENDBRANCH   8   9
ENDBRANCH   7   8
ENDBRANCH   6   7
ENDBRANCH   5   6
ENDBRANCH   4   5
ENDBRANCH   3   4
ENDBRANCH   2   3
ENDBRANCH   1   2
BRANCH   1  16
HETATM   16  C   UNK N   1       1.976   0.989  -0.009  0.00  0.00     0.090 A 
HETATM   17  C   UNK N   1       3.275   1.457   0.217  0.00  0.00     0.039 A 
HETATM   18  C   UNK N   1       4.357   0.581   0.261  0.00  0.00     0.018 A 
HETATM   19  C   UNK N   1       4.158  -0.792   0.104  0.00  0.00     0.016 A 
HETATM   20  C   UNK N   1       2.864  -1.283  -0.078  0.00  0.00     0.042 A 
HETATM   21  C   UNK N   1       1.768  -0.416  -0.140  0.00  0.00     0.068 A 
HETATM   22 Cl   UNK N   1       0.200  -1.161  -0.395  0.00  0.00    -0.081 Cl
BRANCH  19  23
HETATM   23  C   UNK N   1       5.308  -1.708   0.041  0.00  0.00     0.148 A 
HETATM   24  N   UNK N   1       6.511  -1.303   0.035  0.00  0.00    -0.364 N 
HETATM   25  C   UNK N   1       7.405  -2.414  -0.124  0.00  0.00     0.104 A 
ATOM     26  HN  UNK N   1       6.801  -0.330   0.130  1.00  0.00     0.162 HD
HETATM   27  C   UNK N   1       8.354  -2.508   1.053  0.00  0.00     0.034 C 
HETATM   28  C   UNK N   1       6.439  -3.618  -0.163  0.00  0.00     0.202 A 
HETATM   29  O   UNK N   1       5.191  -3.033  -0.079  0.00  0.00    -0.333 OA
ENDBRANCH  19  23
ENDBRANCH   1  16
TORSDOF 10
