REMARK  6 active torsions:
REMARK  status: ('A' for Active; 'I' for Inactive)
REMARK    1  A    between atoms: C_4  and  C_8 
REMARK    2  A    between atoms: C_8  and  C_9 
REMARK    3  A    between atoms: C_9  and  C_10 
REMARK    4  A    between atoms: C_10  and  O_11 
REMARK    5  A    between atoms: O_11  and  C_12 
REMARK    6  A    between atoms: C_16  and  C_20 
ROOT
HETATM    1  C   UNK N   1       1.154   0.499  -0.113  0.00  0.00     0.112 A 
HETATM    2  C   UNK N   1       2.402   1.137   0.040  0.00  0.00     0.070 A 
HETATM    3 Cl   UNK N   1       2.504   2.887   0.158  0.00  0.00    -0.081 Cl
HETATM    4  C   UNK N   1       3.583   0.391   0.085  0.00  0.00     0.042 A 
HETATM    5  C   UNK N   1       3.543  -1.002  -0.012  0.00  0.00     0.018 A 
HETATM    6  C   UNK N   1       2.317  -1.644  -0.152  0.00  0.00     0.042 A 
HETATM    7  C   UNK N   1       1.125  -0.927  -0.207  0.00  0.00     0.070 A 
HETATM    8 Cl   UNK N   1      -0.333  -1.894  -0.387  0.00  0.00    -0.081 Cl
ENDROOT
BRANCH   1   9
HETATM    9  O   UNK N   1       0.043   1.287  -0.162  0.00  0.00    -0.348 OA
BRANCH   9  10
HETATM   10  C   UNK N   1      -1.228   0.881  -0.492  0.00  0.00     0.176 C 
BRANCH  10  11
HETATM   11  C   UNK N   1      -2.005   0.543   0.766  0.00  0.00     0.033 C 
BRANCH  11  12
HETATM   12  C   UNK N   1      -3.305  -0.159   0.400  0.00  0.00     0.069 C 
BRANCH  12  13
HETATM   13  C   UNK N   1      -4.428   0.799   0.167  0.00  0.00     0.078 A 
HETATM   14  C   UNK N   1      -4.370   2.181   0.212  0.00  0.00     0.061 A 
HETATM   15  C   UNK N   1      -5.671   2.558  -0.037  0.00  0.00     0.031 A 
HETATM   16  C   UNK N   1      -6.176   3.953  -0.093  0.00  0.00     0.070 C 
HETATM   17  N   UNK N   1      -6.437   1.465  -0.213  0.00  0.00    -0.266 N 
HETATM   18  O   UNK N   1      -5.663   0.431  -0.085  0.00  0.00    -0.242 OA
ATOM     19  HN  UNK N   1      -7.438   1.453  -0.410  1.00  0.00     0.194 HD
ENDBRANCH  12  13
ENDBRANCH  11  12
ENDBRANCH  10  11
ENDBRANCH   9  10
ENDBRANCH   1   9
BRANCH   5  20
HETATM   20  C   UNK N   1       4.774  -1.808   0.015  0.00  0.00     0.148 A 
HETATM   21  N   UNK N   1       5.937  -1.309   0.102  0.00  0.00    -0.368 N 
HETATM   22  C   UNK N   1       6.924  -2.352   0.091  0.00  0.00     0.148 A 
ATOM     23  HN  UNK N   1       6.141  -0.312   0.170  1.00  0.00     0.161 HD
HETATM   24  C   UNK N   1       6.060  -3.627  -0.023  0.00  0.00     0.197 A 
HETATM   25  O   UNK N   1       4.771  -3.141  -0.061  0.00  0.00    -0.334 OA
ENDBRANCH   5  20
TORSDOF 6
