REMARK  12 active torsions:
REMARK  status: ('A' for Active; 'I' for Inactive)
REMARK    1  A    between atoms: C_2  and  O_3 
REMARK       I    between atoms: C_2  and  N_11 
REMARK    2  A    between atoms: O_3  and  C_4 
REMARK    3  A    between atoms: C_4  and  C_5 
REMARK    4  A    between atoms: C_12  and  N_11 
REMARK    5  A    between atoms: C_12  and  C_20 
REMARK    6  A    between atoms: C_12  and  C_13 
REMARK    7  A    between atoms: C_13  and  C_14 
REMARK       I    between atoms: C_20  and  N_22 
REMARK    8  A    between atoms: N_22  and  C_23 
REMARK    9  A    between atoms: C_23  and  C_25 
REMARK   10  A    between atoms: C_25  and  C_27 
REMARK   11  A    between atoms: C_27  and  C_28 
REMARK   12  A    between atoms: C_28  and  O_29 
ROOT
HETATM    1  C   UNK N   1      -1.219   1.054  -0.279  0.00  0.00     0.183 C 
ENDROOT
BRANCH   1   2
HETATM    2  N   UNK N   1      -2.045   0.413   0.728  0.00  0.00    -0.323 N 
HETATM    3  C   UNK N   1      -3.278  -0.081   0.451  0.00  0.00     0.361 C 
HETATM    4  O   UNK N   1      -3.917  -0.630   1.333  0.00  0.00    -0.238 OA
HETATM    5  H   UNK N   1      -1.698   0.333   1.646  0.00  0.00     0.165 HD
BRANCH   3   6
HETATM    6  O   UNK N   1      -3.810   0.087  -0.791  0.00  0.00    -0.299 OA
BRANCH   6   7
HETATM    7  C   UNK N   1      -5.132  -0.161  -1.106  0.00  0.00     0.219 C 
BRANCH   7   8
HETATM    8  C   UNK N   1      -6.039   0.720  -0.304  0.00  0.00    -0.034 A 
HETATM    9  C   UNK N   1      -7.098   0.155   0.412  0.00  0.00     0.009 A 
HETATM   10  C   UNK N   1      -7.925   0.967   1.194  0.00  0.00     0.001 A 
HETATM   11  C   UNK N   1      -7.686   2.343   1.271  0.00  0.00     0.000 A 
HETATM   12  C   UNK N   1      -6.626   2.910   0.557  0.00  0.00     0.001 A 
HETATM   13  C   UNK N   1      -5.805   2.100  -0.233  0.00  0.00     0.009 A 
ENDBRANCH   7   8
ENDBRANCH   6   7
ENDBRANCH   3   6
ENDBRANCH   1   2
BRANCH   1  14
HETATM   14  C   UNK N   1      -0.252   2.034   0.402  0.00  0.00     0.241 C 
HETATM   15  O   UNK N   1      -0.758   2.828   1.180  0.00  0.00    -0.271 OA
HETATM   16  N   UNK N   1       1.094   2.164   0.174  0.00  0.00    -0.348 N 
HETATM   17  H   UNK N   1       1.519   2.889   0.687  0.00  0.00     0.163 HD
BRANCH  16  18
HETATM   18  C   UNK N   1       2.009   1.432  -0.682  0.00  0.00     0.150 C 
HETATM   19  C   UNK N   1       2.442   2.346  -1.818  0.00  0.00     0.040 C 
BRANCH  18  20
HETATM   20  C   UNK N   1       3.185   0.956   0.140  0.00  0.00     0.151 C 
HETATM   21  O   UNK N   1       2.988   0.286   1.142  0.00  0.00    -0.296 OA
BRANCH  20  22
HETATM   22  C   UNK N   1       4.597   1.240  -0.279  0.00  0.00     0.106 C 
BRANCH  22  23
HETATM   23  C   UNK N   1       5.264   2.211   0.670  0.00  0.00     0.171 C 
BRANCH  23  24
HETATM   24  O   UNK N   1       5.433   3.433   0.019  0.00  0.00    -0.400 OA
HETATM   25  H   UNK N   1       6.228   3.756  -0.433  0.00  0.00     0.209 HD
ENDBRANCH  23  24
ENDBRANCH  22  23
ENDBRANCH  20  22
ENDBRANCH  18  20
ENDBRANCH  16  18
ENDBRANCH   1  14
BRANCH   1  26
HETATM   26  C   UNK N   1      -0.692  -0.003  -1.261  0.00  0.00     0.073 C 
BRANCH  26  27
HETATM   27  C   UNK N   1      -0.274  -1.303  -0.623  0.00  0.00    -0.056 A 
HETATM   28  C   UNK N   1       0.610  -1.328   0.464  0.00  0.00     0.007 A 
HETATM   29  C   UNK N   1       0.994  -2.543   1.036  0.00  0.00     0.001 A 
HETATM   30  C   UNK N   1       0.498  -3.742   0.521  0.00  0.00     0.000 A 
HETATM   31  C   UNK N   1      -0.387  -3.724  -0.562  0.00  0.00     0.001 A 
HETATM   32  C   UNK N   1      -0.773  -2.506  -1.131  0.00  0.00     0.007 A 
ENDBRANCH  26  27
ENDBRANCH   1  26
TORSDOF 12
