REMARK  12 active torsions:
REMARK  status: ('A' for Active; 'I' for Inactive)
REMARK       I    between atoms: C_2  and  N_3 
REMARK    1  A    between atoms: C_2  and  C_5 
REMARK    2  A    between atoms: C_5  and  C_6 
REMARK    3  A    between atoms: C_5  and  N_10 
REMARK       I    between atoms: N_10  and  C_11 
REMARK    4  A    between atoms: C_11  and  C_13 
REMARK    5  A    between atoms: C_13  and  C_14 
REMARK    6  A    between atoms: C_13  and  C_18 
REMARK    7  A    between atoms: C_14  and  C_15 
REMARK    8  A    between atoms: C_18  and  C_19 
REMARK    9  A    between atoms: C_18  and  C_23 
REMARK       I    between atoms: C_19  and  N_21 
REMARK   10  A    between atoms: N_21  and  O_22 
REMARK   11  A    between atoms: C_23  and  N_24 
REMARK       I    between atoms: N_24  and  C_25 
REMARK   12  A    between atoms: C_25  and  C_27 
ROOT
HETATM    1  C   UNK N   1       5.963   7.257  -0.053  0.00  0.00     0.093 C 
ENDROOT
BRANCH   1   2
HETATM    2  C   UNK N   1       4.622   6.588  -0.257  0.00  0.00     0.223 C 
HETATM    3  N   UNK N   1       3.879   6.242   0.827  0.00  0.00    -0.347 N 
HETATM    4  H   UNK N   1       4.316   6.352   1.702  0.00  0.00     0.163 HD
HETATM    5  O   UNK N   1       4.210   6.404  -1.391  0.00  0.00    -0.273 OA
BRANCH   3   6
HETATM    6  C   UNK N   1       2.515   5.727   0.853  0.00  0.00     0.183 C 
BRANCH   6   7
HETATM    7  C   UNK N   1       1.557   6.909   0.608  0.00  0.00     0.240 C 
HETATM    8  O   UNK N   1       1.754   7.914   1.275  0.00  0.00    -0.271 OA
HETATM    9  N   UNK N   1       0.504   6.937  -0.256  0.00  0.00    -0.364 N 
HETATM   10  C   UNK N   1       0.045   5.876  -1.106  0.00  0.00     0.149 C 
HETATM   11  H   UNK N   1       0.001   7.781  -0.303  0.00  0.00     0.161 HD
ENDBRANCH   6   7
BRANCH   6  12
HETATM   12  C   UNK N   1       2.370   4.333   0.143  0.00  0.00    -0.022 C 
HETATM   13  C   UNK N   1       1.056   3.673   0.528  0.00  0.00     0.017 C 
HETATM   14  C   UNK N   1       3.467   3.399   0.629  0.00  0.00     0.017 C 
HETATM   15  C   UNK N   1       2.468   4.364  -1.372  0.00  0.00     0.017 C 
ENDBRANCH   6  12
ENDBRANCH   3   6
ENDBRANCH   1   2
BRANCH   1  16
HETATM   16  C   UNK N   1       5.736   8.668   0.524  0.00  0.00     0.018 C 
BRANCH  16  17
HETATM   17  C   UNK N   1       4.698   9.501  -0.237  0.00  0.00    -0.022 C 
HETATM   18  C   UNK N   1       5.069   9.696  -1.695  0.00  0.00     0.009 C 
HETATM   19  C   UNK N   1       4.550  10.852   0.428  0.00  0.00     0.009 C 
ENDBRANCH  16  17
ENDBRANCH   1  16
BRANCH   1  20
HETATM   20  C   UNK N   1       6.864   6.434   0.914  0.00  0.00     0.111 C 
BRANCH  20  21
HETATM   21  C   UNK N   1       7.051   5.006   0.463  0.00  0.00     0.247 C 
HETATM   22  O   UNK N   1       6.632   4.096   1.165  0.00  0.00    -0.271 OA
HETATM   23  N   UNK N   1       7.671   4.725  -0.704  0.00  0.00    -0.237 N 
HETATM   24  H   UNK N   1       8.007   5.459  -1.268  0.00  0.00     0.197 HD
BRANCH  23  25
HETATM   25  O   UNK N   1       7.833   3.454  -1.099  0.00  0.00    -0.287 OA
HETATM   26  H   UNK N   1       7.096   2.893  -1.385  0.00  0.00     0.244 HD
ENDBRANCH  23  25
ENDBRANCH  20  21
BRANCH  20  27
HETATM   27  C   UNK N   1       8.227   7.083   1.221  0.00  0.00     0.138 C 
BRANCH  27  28
HETATM   28  N   UNK N   1       8.783   7.824   0.113  0.00  0.00    -0.354 N 
HETATM   29  C   UNK N   1      10.008   7.624  -0.446  0.00  0.00     0.275 C 
HETATM   30  O   UNK N   1      10.380   8.398  -1.311  0.00  0.00    -0.265 OA
HETATM   31  H   UNK N   1       8.226   8.538  -0.272  0.00  0.00     0.162 HD
BRANCH  29  32
HETATM   32  C   UNK N   1      10.921   6.516  -0.060  0.00  0.00     0.142 A 
HETATM   33  N   UNK N   1      12.162   6.375  -0.593  0.00  0.00    -0.355 N 
HETATM   34  C   UNK N   1      12.824   5.262  -0.118  0.00  0.00     0.096 A 
ATOM     35  HN  UNK N   1      12.561   7.022  -1.273  1.00  0.00     0.166 HD
HETATM   36  C   UNK N   1      12.106   4.487   0.809  0.00  0.00     0.069 A 
HETATM   37  S   UNK N   1      10.655   5.265   0.985  0.00  0.00    -0.077 SA
ENDBRANCH  29  32
ENDBRANCH  27  28
ENDBRANCH  20  27
ENDBRANCH   1  20
TORSDOF 12
