REMARK  6 active torsions:
REMARK  status: ('A' for Active; 'I' for Inactive)
REMARK       I    between atoms: C_4  and  N_22 
REMARK       I    between atoms: C_7  and  N_23 
REMARK    1  A    between atoms: N_8  and  O_9 
REMARK    2  A    between atoms: O_9  and  C_10 
REMARK    3  A    between atoms: C_10  and  C_11 
REMARK    4  A    between atoms: C_11  and  C_12 
REMARK    5  A    between atoms: C_12  and  O_13 
REMARK    6  A    between atoms: O_13  and  C_14 
ROOT
HETATM    1  C   UNK N   1      -2.063  -0.726   0.146  0.00  0.00     0.158 A 
HETATM    2  N   UNK N   1      -3.193  -1.507  -0.330  0.00  0.00    -0.197 N 
ATOM      3  HN  UNK N   1      -3.098  -2.522  -0.358  1.00  0.00     0.180 HD
HETATM    4  C   UNK N   1      -4.310  -0.991  -0.718  0.00  0.00     0.688 A 
HETATM    5  N   UNK N   1      -4.502   0.413  -0.725  0.00  0.00    -0.021 N 
ATOM      6  HN  UNK N   1      -5.382   0.794  -1.071  1.00  0.00     0.203 HD
HETATM    7  C   UNK N   1      -3.591   1.216  -0.307  0.00  0.00     0.714 A 
HETATM    8  N   UNK N   1      -2.351   0.709   0.179  0.00  0.00    -0.058 N 
HETATM    9  C   UNK N   1      -1.717  -1.206   1.544  0.00  0.00     0.066 C 
HETATM   10  C   UNK N   1      -0.877  -1.000  -0.762  0.00  0.00     0.066 C 
HETATM   11  N   UNK N   1      -5.361  -1.838  -1.130  0.00  0.00    -0.234 N 
HETATM   12  N   UNK N   1      -3.833   2.608  -0.316  0.00  0.00    -0.232 N 
HETATM   13  H   UNK N   1      -6.239  -1.498  -1.418  0.00  0.00     0.174 HD
HETATM   14  H   UNK N   1      -5.210  -2.811  -1.130  0.00  0.00     0.174 HD
HETATM   15  H   UNK N   1      -3.078   3.239  -0.322  0.00  0.00     0.174 HD
HETATM   16  H   UNK N   1      -4.758   2.947  -0.316  0.00  0.00     0.174 HD
ENDROOT
BRANCH   8  17
HETATM   17  O   UNK N   1      -1.504   1.552   0.803  0.00  0.00    -0.262 OA
BRANCH  17  18
HETATM   18  C   UNK N   1      -0.592   1.997  -0.156  0.00  0.00     0.204 C 
BRANCH  18  19
HETATM   19  C   UNK N   1       0.602   2.635   0.539  0.00  0.00     0.055 C 
BRANCH  19  20
HETATM   20  C   UNK N   1       1.238   1.716   1.579  0.00  0.00     0.178 C 
BRANCH  20  21
HETATM   21  O   UNK N   1       1.483   0.469   1.051  0.00  0.00    -0.349 OA
BRANCH  21  22
HETATM   22  C   UNK N   1       2.681  -0.007   0.619  0.00  0.00     0.092 A 
HETATM   23  C   UNK N   1       3.846   0.793   0.435  0.00  0.00     0.069 A 
HETATM   24  C   UNK N   1       5.024   0.195  -0.019  0.00  0.00     0.052 A 
HETATM   25 Cl   UNK N   1       3.911   2.527   0.723  0.00  0.00    -0.081 Cl
HETATM   26  C   UNK N   1       5.080  -1.170  -0.292  0.00  0.00     0.057 A 
HETATM   27  C   UNK N   1       3.937  -1.961  -0.116  0.00  0.00     0.058 A 
HETATM   28 Cl   UNK N   1       6.593  -1.860  -0.854  0.00  0.00    -0.082 Cl
HETATM   29  C   UNK N   1       2.752  -1.376   0.333  0.00  0.00     0.064 A 
HETATM   30 Cl   UNK N   1       3.962  -3.686  -0.445  0.00  0.00    -0.082 Cl
ENDBRANCH  21  22
ENDBRANCH  20  21
ENDBRANCH  19  20
ENDBRANCH  18  19
ENDBRANCH  17  18
ENDBRANCH   8  17
TORSDOF 6
