REMARK  7 active torsions:
REMARK  status: ('A' for Active; 'I' for Inactive)
REMARK    1  A    between atoms: C_2  and  O_11 
REMARK    2  A    between atoms: C_4  and  O_12 
REMARK    3  A    between atoms: C_7  and  C_8 
REMARK    4  A    between atoms: C_20  and  C_21 
REMARK    5  A    between atoms: C_22  and  C_23 
REMARK    6  A    between atoms: C_24  and  C_25 
REMARK    7  A    between atoms: C_25  and  O_27 
ROOT
HETATM    1  C   UNK N   1       1.580  -1.825   0.801  0.00  0.00     0.004 C 
HETATM    2  C   UNK N   1       1.422  -0.534   0.586  0.00  0.00    -0.075 C 
HETATM    3  C   UNK N   1      -0.009  -0.216   0.305  0.00  0.00     0.024 C 
HETATM    4  C   UNK N   1      -0.304   1.239   0.112  0.00  0.00    -0.022 C 
HETATM    5  C   UNK N   1       0.648   1.841  -0.926  0.00  0.00     0.011 C 
HETATM    6  C   UNK N   1       2.097   1.681  -0.435  0.00  0.00     0.005 C 
HETATM    7  C   UNK N   1       2.456   0.203  -0.240  0.00  0.00     0.034 C 
HETATM    8  C   UNK N   1      -1.144  -0.706   1.206  0.00  0.00     0.011 C 
HETATM    9  C   UNK N   1      -2.347   0.139   0.732  0.00  0.00     0.019 C 
HETATM   10  C   UNK N   1      -1.764   1.084  -0.330  0.00  0.00     0.074 C 
HETATM   11  C   UNK N   1      -0.170   2.026   1.437  0.00  0.00     0.017 C 
ENDROOT
BRANCH   1  12
HETATM   12  C   UNK N   1       2.671  -2.641   0.304  0.00  0.00     0.008 C 
HETATM   13  C   UNK N   1       2.365  -3.845  -0.214  0.00  0.00    -0.048 C 
HETATM   14  C   UNK N   1       3.468  -4.753  -0.611  0.00  0.00     0.071 C 
HETATM   15  C   UNK N   1       0.974  -4.431  -0.316  0.00  0.00    -0.033 C 
HETATM   16  C   UNK N   1       3.400  -6.004   0.266  0.00  0.00     0.125 C 
HETATM   17  C   UNK N   1       1.960  -6.503   0.567  0.00  0.00     0.068 C 
HETATM   18  C   UNK N   1       0.891  -5.935  -0.378  0.00  0.00     0.153 C 
HETATM   19  C   UNK N   1      -0.149  -3.714  -0.165  0.00  0.00     0.022 C 
BRANCH  16  20
HETATM   20  O   UNK N   1       4.131  -7.021  -0.341  0.00  0.00    -0.395 OA
HETATM   21  H   UNK N   1       3.773  -7.817  -0.764  0.00  0.00     0.210 HD
ENDBRANCH  16  20
BRANCH  18  22
HETATM   22  O   UNK N   1      -0.369  -6.389   0.030  0.00  0.00    -0.391 OA
HETATM   23  H   UNK N   1      -1.078  -5.790   0.313  0.00  0.00     0.210 HD
ENDBRANCH  18  22
ENDBRANCH   1  12
BRANCH  10  24
HETATM   24  C   UNK N   1      -2.402   2.373  -0.414  0.00  0.00    -0.087 C 
HETATM   25  C   UNK N   1      -2.829   3.473  -0.563  0.00  0.00    -0.015 C 
BRANCH  25  26
HETATM   26  C   UNK N   1      -3.004   4.849  -0.598  0.00  0.00    -0.012 C 
HETATM   27  C   UNK N   1      -2.988   6.019  -0.357  0.00  0.00    -0.055 C 
BRANCH  27  28
HETATM   28  C   UNK N   1      -2.914   7.352   0.206  0.00  0.00     0.114 C 
HETATM   29  C   UNK N   1      -3.211   8.392  -0.849  0.00  0.00     0.060 C 
HETATM   30  C   UNK N   1      -3.917   7.441   1.336  0.00  0.00     0.060 C 
BRANCH  28  31
HETATM   31  O   UNK N   1      -1.630   7.546   0.715  0.00  0.00    -0.378 OA
HETATM   32  H   UNK N   1      -1.066   6.840   1.068  0.00  0.00     0.211 HD
ENDBRANCH  28  31
ENDBRANCH  27  28
ENDBRANCH  25  26
ENDBRANCH  10  24
TORSDOF 7
