REMARK  3 active torsions:
REMARK  status: ('A' for Active; 'I' for Inactive)
REMARK       I    between atoms: C_3  and  N_19 
REMARK    1  A    between atoms: C_5  and  N_22 
REMARK    2  A    between atoms: C_7  and  N_23 
REMARK    3  A    between atoms: C_7  and  C_24 
ROOT
HETATM    1  C   UNK N   1       1.748  -2.867   0.798  0.00  0.00     0.001 C 
HETATM    2  C   UNK N   1       1.576  -4.004   0.002  0.00  0.00     0.002 C 
HETATM    3  C   UNK N   1       0.308  -4.295  -0.510  0.00  0.00     0.023 C 
HETATM    4  C   UNK N   1      -2.082  -3.720  -0.519  0.00  0.00     0.100 C 
HETATM    5  C   UNK N   1      -0.402  -2.080   0.068  0.00  0.00    -0.019 C 
HETATM    6  C   UNK N   1       0.757  -1.892   0.813  0.00  0.00     0.010 C 
HETATM    7  C   UNK N   1      -0.700  -3.341  -0.415  0.00  0.00     0.052 C 
HETATM    8  N   UNK N   1      -3.205  -3.988  -0.591  0.00  0.00    -0.191 NA
ENDROOT
BRANCH   5   9
HETATM    9  C   UNK N   1      -1.054  -0.928  -0.625  0.00  0.00     0.188 C 
BRANCH   9  10
HETATM   10  N   UNK N   1      -0.438   0.374  -0.355  0.00  0.00    -0.170 N 
HETATM   11  C   UNK N   1       0.849   0.769  -0.371  0.00  0.00     0.165 A 
HETATM   12  C   UNK N   1       0.902   2.054   0.042  0.00  0.00     0.160 A 
HETATM   13  C   UNK N   1       2.027   0.087  -0.664  0.00  0.00     0.282 C 
HETATM   14  N   UNK N   1      -0.326   2.536   0.268  0.00  0.00    -0.174 N 
HETATM   15  N   UNK N   1       2.059   2.712   0.233  0.00  0.00    -0.287 N 
HETATM   16  C   UNK N   1      -1.118   1.470   0.052  0.00  0.00     0.685 A 
ATOM     17  HN  UNK N   1      -0.596   3.482   0.538  1.00  0.00     0.186 HD
HETATM   18  N   UNK N   1      -2.493   1.483   0.302  0.00  0.00    -0.215 N 
HETATM   19  C   UNK N   1      -3.266   2.655  -0.019  0.00  0.00     0.141 C 
HETATM   20  C   UNK N   1      -3.142   0.254   0.676  0.00  0.00     0.165 C 
HETATM   21  C   UNK N   1      -4.765   2.360   0.076  0.00  0.00     0.022 C 
HETATM   22  C   UNK N   1      -5.166   0.897  -0.266  0.00  0.00     0.028 C 
HETATM   23  C   UNK N   1      -4.030  -0.121  -0.470  0.00  0.00     0.092 C 
HETATM   24  C   UNK N   1       3.238   1.998   0.123  0.00  0.00     0.332 C 
HETATM   25  C   UNK N   1       2.036   4.117   0.611  0.00  0.00     0.163 C 
HETATM   26  N   UNK N   1       3.215   0.673  -0.294  0.00  0.00    -0.269 N 
HETATM   27  O   UNK N   1       4.300   2.535   0.388  0.00  0.00    -0.246 OA
HETATM   28  C   UNK N   1       4.439  -0.123  -0.304  0.00  0.00     0.164 C 
HETATM   29  O   UNK N   1       2.019  -1.010  -1.198  0.00  0.00    -0.265 OA
BRANCH  23  30
HETATM   30  N   UNK N   1      -4.670  -1.395  -0.714  0.00  0.00    -0.424 N 
HETATM   31  H   UNK N   1      -5.674  -1.453  -0.886  0.00  0.00     0.150 HD
HETATM   32  H   UNK N   1      -4.110  -2.248  -0.714  0.00  0.00     0.150 HD
ENDBRANCH  23  30
ENDBRANCH   9  10
ENDBRANCH   5   9
TORSDOF 3
