REMARK  2 active torsions:
REMARK  status: ('A' for Active; 'I' for Inactive)
REMARK    1  A    between atoms: C_9  and  C_8 
REMARK       I    between atoms: N_14  and  C_15 
REMARK    2  A    between atoms: C_22  and  O_23 
ROOT
HETATM    1  C   UNK N   1       0.554  -0.784   0.490  0.00  0.00     0.166 C 
HETATM    2  C   UNK N   1      -0.356   0.334  -0.093  0.00  0.00     0.038 C 
HETATM    3  C   UNK N   1      -1.642   0.035  -0.851  0.00  0.00     0.160 C 
HETATM    4  O   UNK N   1      -1.838  -1.048  -1.375  0.00  0.00    -0.293 OA
HETATM    5  C   UNK N   1      -2.739   1.070  -0.958  0.00  0.00     0.092 C 
HETATM    6  N   UNK N   1       2.044  -0.738   0.336  0.00  0.00    -0.302 N 
HETATM    7  C   UNK N   1       2.787  -1.849   0.767  0.00  0.00     0.221 C 
HETATM    8  C   UNK N   1       4.284  -1.885   0.825  0.00  0.00     0.117 C 
HETATM    9  O   UNK N   1       2.226  -2.848   1.192  0.00  0.00    -0.273 OA
HETATM   10  C   UNK N   1       2.771   0.501   0.034  0.00  0.00     0.068 A 
HETATM   11  C   UNK N   1       4.069   0.437  -0.519  0.00  0.00     0.032 A 
HETATM   12  C   UNK N   1       4.870   1.564  -0.681  0.00  0.00     0.005 A 
HETATM   13  C   UNK N   1       4.404   2.805  -0.277  0.00  0.00     0.039 A 
HETATM   14  C   UNK N   1       3.127   2.924   0.258  0.00  0.00     0.094 A 
HETATM   15  C   UNK N   1       2.295   1.794   0.405  0.00  0.00     0.093 A 
HETATM   16  N   UNK N   1       1.016   2.010   0.942  0.00  0.00    -0.355 N 
HETATM   17  C   UNK N   1      -0.120   1.625   0.215  0.00  0.00     0.022 C 
HETATM   18  C   UNK N   1      -1.059   2.719  -0.232  0.00  0.00     0.067 C 
HETATM   19  C   UNK N   1      -2.508   2.291  -0.071  0.00  0.00    -0.036 C 
HETATM   20  C   UNK N   1      -2.823   1.990   1.389  0.00  0.00     0.015 C 
HETATM   21  C   UNK N   1      -3.423   3.406  -0.532  0.00  0.00     0.015 C 
HETATM   22  H   UNK N   1       0.916   2.431   1.826  0.00  0.00     0.166 HD
ENDROOT
BRANCH   1  23
HETATM   23  C   UNK N   1      -0.087  -2.165   0.259  0.00  0.00    -0.008 A 
HETATM   24  C   UNK N   1       0.216  -3.012  -0.843  0.00  0.00     0.044 A 
HETATM   25  C   UNK N   1      -0.444  -4.242  -0.974  0.00  0.00     0.048 A 
HETATM   26 Cl   UNK N   1       1.401  -2.582  -2.069  0.00  0.00    -0.084 Cl
HETATM   27  C   UNK N   1      -1.407  -4.636  -0.041  0.00  0.00     0.035 A 
HETATM   28 Cl   UNK N   1      -2.233  -6.169  -0.217  0.00  0.00    -0.084 Cl
HETATM   29  C   UNK N   1      -1.717  -3.807   1.033  0.00  0.00     0.024 A 
HETATM   30  C   UNK N   1      -1.061  -2.587   1.183  0.00  0.00     0.013 A 
ENDBRANCH   1  23
BRANCH  14  31
HETATM   31  O   UNK N   1       2.687   4.138   0.635  0.00  0.00    -0.358 OA
HETATM   32  H   UNK N   1       3.267   4.826   0.897  0.00  0.00     0.217 HD
ENDBRANCH  14  31
TORSDOF 2
