REMARK  3 active torsions:
REMARK  status: ('A' for Active; 'I' for Inactive)
REMARK    1  A    between atoms: N_2  and  C_4 
REMARK    2  A    between atoms: C_7  and  C_8 
REMARK    3  A    between atoms: C_8  and  O_12 
ROOT
HETATM    1  C   UNK N   1      -8.493 -22.420   0.000  0.00  0.00     0.029 A 
HETATM    2  C   UNK N   1      -8.432 -23.825   0.000  0.00  0.00     0.030 A 
HETATM    3  C   UNK N   1      -9.606 -24.589   0.000  0.00  0.00     0.020 A 
HETATM    4  C   UNK N   1     -10.861 -23.963   0.000  0.00  0.00     0.037 A 
HETATM    5  C   UNK N   1     -10.926 -22.563   0.000  0.00  0.00     0.020 A 
HETATM    6  C   UNK N   1      -9.753 -21.799   0.000  0.00  0.00     0.030 A 
ENDROOT
BRANCH   4   7
HETATM    7  C   UNK N   1     -12.106 -24.766   0.000  0.00  0.00     0.176 C 
HETATM    8  O   UNK N   1     -12.054 -25.988   0.000  0.00  0.00    -0.646 OA
BRANCH   7   9
HETATM    9  O   UNK N   1     -13.309 -24.157  -0.000  0.00  0.00    -0.773 OA
HETATM   10  H   UNK N   1     -13.360 -23.222  -0.000  0.00  0.00     0.167 HD
ENDBRANCH   7   9
ENDBRANCH   4   7
BRANCH   1  11
HETATM   11  N   UNK N   1      -7.294 -21.638  -0.000  0.00  0.00    -0.390 N 
HETATM   12  C   UNK N   1      -7.350 -20.197   0.000  0.00  0.00     0.149 C 
HETATM   13  C   UNK N   1      -5.997 -22.268  -0.000  0.00  0.00     0.149 C 
ENDBRANCH   1  11
TORSDOF 3
