REMARK  5 active torsions:
REMARK  status: ('A' for Active; 'I' for Inactive)
REMARK    1  A    between atoms: C_1  and  N_18 
REMARK       I    between atoms: C_5  and  N_7 
REMARK    2  A    between atoms: N_7  and  C_9 
REMARK    3  A    between atoms: C_9  and  C_10 
REMARK    4  A    between atoms: C_10  and  N_11 
REMARK    5  A    between atoms: N_11  and  C_23 
ROOT
HETATM    1  C   UNK N   1       3.712   1.224   0.010  0.00  0.00     0.134 A 
HETATM    2  C   UNK N   1       3.854  -0.169  -0.029  0.00  0.00     0.120 A 
HETATM    3  C   UNK N   1       2.793  -1.012   0.039  0.00  0.00     0.114 A 
HETATM    4  N   UNK N   1       4.968  -0.913  -0.122  0.00  0.00    -0.237 N 
ATOM      5  HN  UNK N   1       5.929  -0.578  -0.191  1.00  0.00     0.197 HD
HETATM    6  O   UNK N   1       4.561  -2.157  -0.107  0.00  0.00    -0.156 OA
HETATM    7  N   UNK N   1       3.260  -2.269  -0.010  0.00  0.00    -0.237 N 
ATOM      8  HN  UNK N   1       2.716  -3.131   0.021  1.00  0.00     0.197 HD
HETATM    9  C   UNK N   1       2.403   1.731   0.128  0.00  0.00     0.041 A 
HETATM   10  C   UNK N   1       1.299   0.856   0.213  0.00  0.00     0.034 A 
HETATM   11  C   UNK N   1       1.474  -0.547   0.166  0.00  0.00     0.061 A 
ENDROOT
BRANCH  11  12
HETATM   12  N   UNK N   1       0.349  -1.426   0.275  0.00  0.00    -0.382 N 
HETATM   13  C   UNK N   1       0.488  -2.852   0.123  0.00  0.00     0.150 C 
BRANCH  12  14
HETATM   14  C   UNK N   1      -0.946  -0.919   0.658  0.00  0.00     0.142 C 
BRANCH  14  15
HETATM   15  C   UNK N   1      -1.551  -0.052  -0.437  0.00  0.00     0.145 C 
BRANCH  15  16
HETATM   16  N   UNK N   1      -2.950   0.177  -0.162  0.00  0.00    -0.355 N 
HETATM   17  C   UNK N   1      -3.837  -0.861  -0.146  0.00  0.00     0.215 C 
HETATM   18  C   UNK N   1      -5.287  -0.635   0.140  0.00  0.00     0.117 C 
HETATM   19  O   UNK N   1      -3.456  -2.002  -0.364  0.00  0.00    -0.274 OA
HETATM   20  C   UNK N   1      -3.388   1.530   0.082  0.00  0.00     0.152 C 
ENDBRANCH  15  16
ENDBRANCH  14  15
ENDBRANCH  12  14
ENDBRANCH  11  12
BRANCH   1  21
HETATM   21  N   UNK N   1       4.824   2.110  -0.048  0.00  0.00    -0.113 N 
HETATM   22  O   UNK N   1       4.631   3.411  -0.013  0.00  0.00    -0.532 OA
HETATM   23  O   UNK N   1       5.939   1.685  -0.108  0.00  0.00    -0.532 OA
ENDBRANCH   1  21
TORSDOF 5
