REMARK  5 active torsions:
REMARK  status: ('A' for Active; 'I' for Inactive)
REMARK       I    between atoms: C_1  and  N_8 
REMARK       I    between atoms: N_9  and  C_1 
REMARK    1  A    between atoms: C_10  and  N_9 
REMARK    2  A    between atoms: C_10  and  C_18 
REMARK    3  A    between atoms: C_11  and  C_10 
REMARK    4  A    between atoms: C_12  and  C_11 
REMARK       I    between atoms: N_20  and  C_18 
REMARK    5  A    between atoms: N_20  and  C_29 
ROOT
HETATM    1  C   UNK N   1       1.944   2.003   1.184  0.00  0.00     0.077 C 
HETATM    2  C   UNK N   1       1.714   3.521   1.124  0.00  0.00     0.275 C 
HETATM    3  C   UNK N   1       3.396   3.799  -0.555  0.00  0.00     0.275 C 
HETATM    4  C   UNK N   1       3.714   2.313  -0.527  0.00  0.00     0.077 C 
HETATM    5  N   UNK N   1       2.948   4.227   0.766  0.00  0.00     0.084 N 
HETATM    6  C   UNK N   1       2.619   5.634   0.646  0.00  0.00     0.309 C 
HETATM    7  C   UNK N   1       2.976   0.131  -0.084  0.00  0.00     0.091 C 
HETATM    8  N   UNK N   1       3.418  -0.933   0.026  0.00  0.00    -0.195 NA
HETATM    9  C   UNK N   1       2.470   1.503  -0.161  0.00  0.00     0.125 C 
ENDROOT
BRANCH   9  10
HETATM   10  N   UNK N   1       1.506   1.695  -1.234  0.00  0.00    -0.337 N 
HETATM   11  C   UNK N   1       0.232   1.263  -1.483  0.00  0.00     0.241 C 
HETATM   12  O   UNK N   1      -0.254   1.582  -2.558  0.00  0.00    -0.271 OA
HETATM   13  H   UNK N   1       1.852   2.274  -1.951  0.00  0.00     0.164 HD
BRANCH  11  14
HETATM   14  C   UNK N   1      -0.630   0.381  -0.577  0.00  0.00     0.178 C 
BRANCH  14  15
HETATM   15  N   UNK N   1      -1.972   0.966  -0.638  0.00  0.00    -0.330 N 
HETATM   16  C   UNK N   1      -3.227   0.522  -0.301  0.00  0.00     0.319 C 
HETATM   17  O   UNK N   1      -4.177   1.157  -0.737  0.00  0.00    -0.247 OA
HETATM   18  N   UNK N   1      -3.481  -0.602   0.443  0.00  0.00    -0.330 N 
HETATM   19  C   UNK N   1      -4.843  -1.103   0.534  0.00  0.00     0.153 C 
HETATM   20  C   UNK N   1      -2.461  -1.323   1.170  0.00  0.00     0.153 C 
HETATM   21  C   UNK N   1      -4.861  -2.616   0.210  0.00  0.00     0.187 C 
HETATM   22  O   UNK N   1      -3.564  -3.179   0.139  0.00  0.00    -0.388 OA
HETATM   23  C   UNK N   1      -2.876  -2.796   1.305  0.00  0.00     0.187 C 
HETATM   24  H   UNK N   1      -1.974   1.880  -1.003  0.00  0.00     0.165 HD
ENDBRANCH  14  15
BRANCH  14  25
HETATM   25  C   UNK N   1      -0.633  -0.968  -1.322  0.00  0.00     0.039 C 
BRANCH  25  26
HETATM   26  C   UNK N   1      -0.380  -2.210  -0.478  0.00  0.00    -0.012 C 
HETATM   27  C   UNK N   1      -0.414  -3.451  -1.362  0.00  0.00     0.005 C 
HETATM   28  C   UNK N   1      -0.161  -4.701  -0.522  0.00  0.00     0.000 C 
HETATM   29  C   UNK N   1       1.190  -4.596   0.181  0.00  0.00     0.000 C 
HETATM   30  C   UNK N   1       1.202  -3.375   1.090  0.00  0.00     0.000 C 
HETATM   31  C   UNK N   1       0.938  -2.122   0.270  0.00  0.00     0.005 C 
ENDBRANCH  25  26
ENDBRANCH  14  25
ENDBRANCH  11  14
ENDBRANCH   9  10
TORSDOF 5
