REMARK  9 active torsions:
REMARK  status: ('A' for Active; 'I' for Inactive)
REMARK    1  A    between atoms: C_4  and  C_5 
REMARK    2  A    between atoms: C_5  and  C_6 
REMARK    3  A    between atoms: C_6  and  N_7 
REMARK       I    between atoms: N_7  and  C_8 
REMARK    4  A    between atoms: C_8  and  C_10 
REMARK    5  A    between atoms: C_11  and  C_12 
REMARK    6  A    between atoms: C_14  and  O_15 
REMARK    7  A    between atoms: O_15  and  C_16 
REMARK    8  A    between atoms: C_19  and  O_20 
REMARK    9  A    between atoms: O_20  and  C_21 
ROOT
HETATM    1  C   UNK N   1       1.422   0.876  -0.288  0.00  0.00    -0.033 A 
HETATM    2  C   UNK N   1       2.772   1.210  -0.270  0.00  0.00     0.051 A 
HETATM    3  C   UNK N   1       3.770   0.244  -0.130  0.00  0.00     0.113 A 
HETATM    4  C   UNK N   1       3.416  -1.111  -0.036  0.00  0.00     0.113 A 
HETATM    5  C   UNK N   1       2.045  -1.459  -0.055  0.00  0.00     0.041 A 
HETATM    6  C   UNK N   1       1.052  -0.469  -0.169  0.00  0.00     0.014 A 
ENDROOT
BRANCH   1   7
HETATM    7  C   UNK N   1       0.489   2.014  -0.413  0.00  0.00     0.017 C 
HETATM    8  C   UNK N   1      -0.806   2.184  -0.102  0.00  0.00     0.075 C 
BRANCH   8   9
HETATM    9  C   UNK N   1      -1.812   1.261   0.449  0.00  0.00     0.241 C 
HETATM   10  N   UNK N   1      -1.795  -0.065   0.182  0.00  0.00    -0.357 N 
HETATM   11  H   UNK N   1      -1.076  -0.438  -0.378  0.00  0.00     0.162 HD
HETATM   12  O   UNK N   1      -2.720   1.740   1.113  0.00  0.00    -0.269 OA
BRANCH  10  13
HETATM   13  C   UNK N   1      -2.816  -0.944   0.709  0.00  0.00     0.127 C 
BRANCH  13  14
HETATM   14  C   UNK N   1      -3.875  -1.248  -0.349  0.00  0.00     0.058 C 
BRANCH  14  15
HETATM   15  C   UNK N   1      -5.057  -0.329  -0.252  0.00  0.00    -0.057 A 
HETATM   16  C   UNK N   1      -4.942   1.028  -0.582  0.00  0.00     0.007 A 
HETATM   17  C   UNK N   1      -6.054   1.872  -0.494  0.00  0.00     0.001 A 
HETATM   18  C   UNK N   1      -7.289   1.361  -0.085  0.00  0.00     0.000 A 
HETATM   19  C   UNK N   1      -7.412   0.005   0.232  0.00  0.00     0.001 A 
HETATM   20  C   UNK N   1      -6.298  -0.839   0.146  0.00  0.00     0.007 A 
ENDBRANCH  14  15
ENDBRANCH  13  14
ENDBRANCH  10  13
ENDBRANCH   8   9
ENDBRANCH   1   7
BRANCH   3  21
HETATM   21  O   UNK N   1       5.091   0.589  -0.077  0.00  0.00    -0.276 OA
BRANCH  21  22
HETATM   22  C   UNK N   1       5.606   1.851  -0.017  0.00  0.00     0.260 C 
HETATM   23  O   UNK N   1       4.887   2.837   0.037  0.00  0.00    -0.265 OA
HETATM   24  C   UNK N   1       7.083   2.031   0.016  0.00  0.00     0.126 C 
ENDBRANCH  21  22
ENDBRANCH   3  21
BRANCH   4  25
HETATM   25  O   UNK N   1       4.413  -2.029   0.081  0.00  0.00    -0.276 OA
BRANCH  25  26
HETATM   26  C   UNK N   1       4.352  -3.390   0.119  0.00  0.00     0.260 C 
HETATM   27  O   UNK N   1       5.386  -4.021   0.247  0.00  0.00    -0.265 OA
HETATM   28  C   UNK N   1       3.069  -4.145  -0.011  0.00  0.00     0.126 C 
ENDBRANCH  25  26
ENDBRANCH   4  25
TORSDOF 9
