REMARK  3 active torsions:
REMARK  status: ('A' for Active; 'I' for Inactive)
REMARK    1  A    between atoms: C_7  and  C_8 
REMARK    2  A    between atoms: C_12  and  C_13 
REMARK       I    between atoms: C_13  and  N_15 
REMARK    3  A    between atoms: N_15  and  N_16 
ROOT
HETATM    1  C   UNK N   1      -0.278   0.279   0.049  0.00  0.00     0.088 A 
HETATM    2  O   UNK N   1       0.830  -0.389  -0.146  0.00  0.00    -0.304 OA
HETATM    3  C   UNK N   1      -1.319  -0.606   0.275  0.00  0.00     0.041 A 
HETATM    4  C   UNK N   1      -0.756  -1.873   0.205  0.00  0.00     0.046 A 
HETATM    5  C   UNK N   1       0.588  -1.669  -0.064  0.00  0.00     0.145 A 
ENDROOT
BRANCH   1   6
HETATM    6  C   UNK N   1      -0.307   1.760   0.026  0.00  0.00     0.019 A 
HETATM    7  C   UNK N   1      -1.485   2.543   0.129  0.00  0.00     0.047 A 
HETATM    8 Cl   UNK N   1      -3.093   1.847   0.267  0.00  0.00    -0.083 Cl
HETATM    9  C   UNK N   1      -1.389   3.940   0.103  0.00  0.00     0.025 A 
HETATM   10  C   UNK N   1      -0.148   4.568  -0.018  0.00  0.00     0.002 A 
HETATM   11  C   UNK N   1       1.011   3.803  -0.124  0.00  0.00     0.001 A 
HETATM   12  C   UNK N   1       0.929   2.412  -0.104  0.00  0.00     0.016 A 
ENDBRANCH   1   6
BRANCH   5  13
HETATM   13  C   UNK N   1       1.653  -2.683  -0.256  0.00  0.00     0.293 C 
HETATM   14  O   UNK N   1       2.777  -2.293  -0.533  0.00  0.00    -0.264 OA
HETATM   15  N   UNK N   1       1.438  -4.016  -0.139  0.00  0.00    -0.271 N 
HETATM   16  H   UNK N   1       2.190  -4.633  -0.290  0.00  0.00     0.189 HD
BRANCH  15  17
HETATM   17  N   UNK N   1       0.196  -4.544   0.185  0.00  0.00    -0.342 N 
HETATM   18  H   UNK N   1      -0.596  -3.947   0.423  0.00  0.00     0.176 HD
HETATM   19  H   UNK N   1       0.072  -5.556   0.185  0.00  0.00     0.176 HD
ENDBRANCH  15  17
ENDBRANCH   5  13
TORSDOF 3
