REMARK  6 active torsions:
REMARK  status: ('A' for Active; 'I' for Inactive)
REMARK    1  A    between atoms: O_8  and  C_7 
REMARK    2  A    between atoms: C_9  and  O_8 
REMARK    3  A    between atoms: C_9  and  C_10 
REMARK    4  A    between atoms: C_13  and  C_9 
REMARK    5  A    between atoms: C_10  and  O_11 
REMARK    6  A    between atoms: C_14  and  C_13 
ROOT
HETATM    1  C   UNK N   1      -0.220  -0.737   0.209  0.00  0.00     0.230 C 
ENDROOT
BRANCH   1   2
HETATM    2  O   UNK N   1      -1.382  -1.351  -0.253  0.00  0.00    -0.335 OA
BRANCH   2   3
HETATM    3  C   UNK N   1      -2.643  -0.839  -0.190  0.00  0.00     0.070 A 
HETATM    4  C   UNK N   1      -3.705  -1.667   0.192  0.00  0.00     0.038 A 
HETATM    5  C   UNK N   1      -5.008  -1.156   0.262  0.00  0.00     0.026 A 
HETATM    6  C   UNK N   1      -5.256   0.179  -0.075  0.00  0.00     0.034 A 
HETATM    7  C   UNK N   1      -4.208   1.002  -0.482  0.00  0.00     0.026 A 
HETATM    8 Cl   UNK N   1      -6.879   0.828   0.018  0.00  0.00    -0.084 Cl
HETATM    9  C   UNK N   1      -2.911   0.497  -0.535  0.00  0.00     0.038 A 
ENDBRANCH   2   3
ENDBRANCH   1   2
BRANCH   1  10
HETATM   10  C   UNK N   1      -0.120   0.712  -0.205  0.00  0.00     0.170 C 
HETATM   11  O   UNK N   1      -0.105   1.587   0.644  0.00  0.00    -0.648 OA
BRANCH  10  12
HETATM   12  O   UNK N   1      -0.054   1.045  -1.509  0.00  0.00    -0.774 OA
HETATM   13  H   UNK N   1       0.169   1.120  -2.416  0.00  0.00     0.167 HD
ENDBRANCH  10  12
ENDBRANCH   1  10
BRANCH   1  14
HETATM   14  C   UNK N   1       0.983  -1.539  -0.318  0.00  0.00     0.082 C 
BRANCH  14  15
HETATM   15  C   UNK N   1       2.372  -1.002  -0.058  0.00  0.00    -0.055 A 
HETATM   16  C   UNK N   1       3.461  -1.671  -0.627  0.00  0.00     0.007 A 
HETATM   17  C   UNK N   1       4.761  -1.181  -0.459  0.00  0.00     0.001 A 
HETATM   18  C   UNK N   1       4.978  -0.011   0.274  0.00  0.00     0.000 A 
HETATM   19  C   UNK N   1       3.899   0.661   0.851  0.00  0.00     0.001 A 
HETATM   20  C   UNK N   1       2.602   0.167   0.687  0.00  0.00     0.007 A 
ENDBRANCH  14  15
ENDBRANCH   1  14
TORSDOF 6
