REMARK  3 active torsions:
REMARK  status: ('A' for Active; 'I' for Inactive)
REMARK    1  A    between atoms: O_1  and  C_2 
REMARK    2  A    between atoms: C_6  and  S_7 
REMARK    3  A    between atoms: S_7  and  N_8 
ROOT
HETATM    1  C   UNK N   1       3.460  -0.493  -0.068  0.00  0.00     0.067 A 
HETATM    2  C   UNK N   1       2.290  -1.267  -0.001  0.00  0.00     0.057 A 
HETATM    3  C   UNK N   1       1.076  -0.597   0.048  0.00  0.00     0.037 A 
HETATM    4  S   UNK N   1      -0.457  -1.176   0.190  0.00  0.00    -0.057 SA
HETATM    5  C   UNK N   1      -1.238   0.310   0.207  0.00  0.00     0.192 A 
HETATM    6  N   UNK N   1      -0.293   1.302   0.138  0.00  0.00    -0.339 N 
ATOM      7  HN  UNK N   1      -0.510   2.299   0.160  1.00  0.00     0.167 HD
HETATM    8  C   UNK N   1       0.981   0.793   0.035  0.00  0.00     0.051 A 
HETATM    9  C   UNK N   1       2.138   1.570  -0.038  0.00  0.00     0.034 A 
HETATM   10  C   UNK N   1       3.383   0.917  -0.089  0.00  0.00     0.039 A 
ENDROOT
BRANCH   5  11
HETATM   11  S   UNK N   1      -3.008   0.595   0.604  0.00  0.00     0.279 S 
HETATM   12  O   UNK N   1      -2.747   1.748  -0.377  0.00  0.00    -0.199 OA
HETATM   13  O   UNK N   1      -3.070  -0.522  -0.448  0.00  0.00    -0.199 OA
BRANCH  11  14
HETATM   14  N   UNK N   1      -4.610   0.804  -0.103  0.00  0.00    -0.323 N 
HETATM   15  H   UNK N   1      -4.968   1.667  -0.512  0.00  0.00     0.169 HD
HETATM   16  H   UNK N   1      -5.230  -0.006  -0.103  0.00  0.00     0.169 HD
ENDBRANCH  11  14
ENDBRANCH   5  11
BRANCH   1  17
HETATM   17  O   UNK N   1       4.658  -1.098  -0.098  0.00  0.00    -0.361 OA
HETATM   18  H   UNK N   1       4.710  -2.034  -0.119  0.00  0.00     0.217 HD
ENDBRANCH   1  17
TORSDOF 3
