REMARK  7 active torsions:
REMARK  status: ('A' for Active; 'I' for Inactive)
REMARK    1  A    between atoms: C_2  and  S_20 
REMARK    2  A    between atoms: C_7  and  C_8 
REMARK    3  A    between atoms: C_8  and  O_16 
REMARK    4  A    between atoms: C_10  and  S_20 
REMARK    5  A    between atoms: C_13  and  C_14 
REMARK    6  A    between atoms: C_13  and  C_15 
REMARK       I    between atoms: C_14  and  N_19 
REMARK    7  A    between atoms: C_15  and  S_21 
ROOT
HETATM    1  C   UNK N   1      -0.191   1.395  -0.448  0.00  0.00     0.186 C 
HETATM    2  C   UNK N   1       1.044   0.522  -0.202  0.00  0.00     0.053 C 
HETATM    3  C   UNK N   1       0.482  -0.892  -0.044  0.00  0.00     0.073 C 
HETATM    4  C   UNK N   1      -0.803  -0.621   0.682  0.00  0.00     0.142 C 
HETATM    5  C   UNK N   1      -2.603   0.831  -0.183  0.00  0.00     0.225 C 
HETATM    6  O   UNK N   1      -2.904   1.847  -0.797  0.00  0.00    -0.273 OA
HETATM    7  N   UNK N   1      -1.275   0.587   0.078  0.00  0.00    -0.336 N 
ENDROOT
BRANCH   3   8
HETATM    8  S   UNK N   1       1.465  -2.050   0.974  0.00  0.00    -0.123 SA
BRANCH   8   9
HETATM    9  C   UNK N   1       3.099  -1.497   0.509  0.00  0.00     0.001 A 
HETATM   10  C   UNK N   1       3.843  -2.218  -0.430  0.00  0.00     0.018 A 
HETATM   11  C   UNK N   1       5.139  -1.807  -0.756  0.00  0.00     0.001 A 
HETATM   12  C   UNK N   1       5.689  -0.677  -0.142  0.00  0.00     0.000 A 
HETATM   13  C   UNK N   1       4.947   0.039   0.801  0.00  0.00     0.001 A 
HETATM   14  C   UNK N   1       3.656  -0.376   1.133  0.00  0.00     0.018 A 
ENDBRANCH   8   9
ENDBRANCH   3   8
BRANCH   1  15
HETATM   15  C   UNK N   1      -0.050   2.748   0.223  0.00  0.00     0.163 C 
HETATM   16  O   UNK N   1       0.982   3.045   0.808  0.00  0.00    -0.648 OA
BRANCH  15  17
HETATM   17  O   UNK N   1      -1.045   3.651   0.148  0.00  0.00    -0.775 OA
HETATM   18  H   UNK N   1      -0.846   4.565   0.096  0.00  0.00     0.167 HD
ENDBRANCH  15  17
ENDBRANCH   1  15
BRANCH   5  19
HETATM   19  C   UNK N   1      -3.748  -0.137   0.178  0.00  0.00     0.083 C 
HETATM   20  C   UNK N   1      -3.382  -1.432   0.885  0.00  0.00     0.020 C 
BRANCH  19  21
HETATM   21  C   UNK N   1      -4.806   0.531   1.047  0.00  0.00     0.084 C 
BRANCH  21  22
HETATM   22  S   UNK N   1      -5.863   1.663   0.092  0.00  0.00    -0.181 SA
HETATM   23  H   UNK N   1      -5.526   2.770  -0.622  0.00  0.00     0.101 HD
ENDBRANCH  21  22
ENDBRANCH  19  21
ENDBRANCH   5  19
TORSDOF 7
