REMARK  3 active torsions:
REMARK  status: ('A' for Active; 'I' for Inactive)
REMARK       I    between atoms: C_2  and  N_3 
REMARK    1  A    between atoms: C_2  and  C_4 
REMARK    2  A    between atoms: C_4  and  C_5 
REMARK    3  A    between atoms: C_8  and  O_9 
ROOT
HETATM    1  C   UNK N   1       2.026  -0.492  -0.031  0.00  0.00    -0.049 A 
HETATM    2  C   UNK N   1       2.028  -1.893  -0.026  0.00  0.00     0.010 A 
HETATM    3  C   UNK N   1       0.819  -2.602  -0.017  0.00  0.00     0.037 A 
HETATM    4  C   UNK N   1      -0.407  -1.910  -0.013  0.00  0.00     0.068 A 
HETATM    5  C   UNK N   1      -0.404  -0.516  -0.019  0.00  0.00     0.037 A 
HETATM    6  C   UNK N   1       0.800   0.185  -0.027  0.00  0.00     0.010 A 
ENDROOT
BRANCH   1   7
HETATM    7  C   UNK N   1       3.350   0.237  -0.032  0.00  0.00     0.141 C 
BRANCH   7   8
HETATM    8  C   UNK N   1       3.374   1.753  -0.016  0.00  0.00     0.219 C 
HETATM    9  O   UNK N   1       4.449   2.323  -0.001  0.00  0.00    -0.273 OA
HETATM   10  N   UNK N   1       2.242   2.489  -0.014  0.00  0.00    -0.370 N 
HETATM   11  H   UNK N   1       2.294   3.472  -0.013  0.00  0.00     0.159 HD
HETATM   12  H   UNK N   1       1.365   2.043  -0.014  0.00  0.00     0.159 HD
ENDBRANCH   7   8
ENDBRANCH   1   7
BRANCH   4  13
HETATM   13  O   UNK N   1      -1.597  -2.555  -0.003  0.00  0.00    -0.356 OA
HETATM   14  C   UNK N   1      -1.716  -3.925  -0.000  0.00  0.00     0.210 C 
ENDBRANCH   4  13
TORSDOF 3
