REMARK  3 active torsions:
REMARK  status: ('A' for Active; 'I' for Inactive)
REMARK    1  A    between atoms: C_4  and  C_5 
REMARK    2  A    between atoms: C_5  and  N_6 
REMARK    3  A    between atoms: N_6  and  C_7 
ROOT
HETATM    1  C   UNK N   1       0.501   0.933  -0.000  0.00  0.00     0.133 A 
HETATM    2  C   UNK N   1      -0.705   1.604  -0.000  0.00  0.00     0.122 A 
HETATM    3  N   UNK N   1      -1.954   1.116  -0.000  0.00  0.00    -0.346 N 
ATOM      4  HN  UNK N   1      -2.246   0.139  -0.000  1.00  0.00     0.167 HD
HETATM    5  C   UNK N   1      -0.740   2.944   0.000  0.00  0.00     0.138 A 
HETATM    6  N   UNK N   1      -2.008   3.374   0.000  0.00  0.00    -0.337 N 
HETATM    7  C   UNK N   1      -2.741   2.226  -0.000  0.00  0.00     0.182 A 
HETATM    8  N   UNK N   1       0.385   3.699   0.000  0.00  0.00    -0.337 N 
ATOM      9  HN  UNK N   1       0.334   4.718   0.000  1.00  0.00     0.168 HD
HETATM   10  C   UNK N   1       1.593   3.052   0.000  0.00  0.00     0.183 A 
HETATM   11  N   UNK N   1       1.650   1.677   0.000  0.00  0.00    -0.337 N 
ATOM     12  HN  UNK N   1       2.556   1.208   0.000  1.00  0.00     0.168 HD
HETATM   13  H   UNK N   1      -2.334   4.302   0.000  0.00  0.00     0.168 HD
ENDROOT
BRANCH   1  14
HETATM   14  N   UNK N   1       0.519  -0.477  -0.000  0.00  0.00    -0.371 N 
HETATM   15  H   UNK N   1      -0.344  -0.950  -0.000  0.00  0.00     0.161 HD
BRANCH  14  16
HETATM   16  C   UNK N   1       1.720  -1.265  -0.000  0.00  0.00     0.148 C 
BRANCH  16  17
HETATM   17  C   UNK N   1       1.423  -2.752  -0.000  0.00  0.00    -0.005 C 
HETATM   18  C   UNK N   1       0.221  -3.368   0.000  0.00  0.00    -0.090 C 
HETATM   19  C   UNK N   1       0.184  -4.855   0.000  0.00  0.00     0.042 C 
HETATM   20  C   UNK N   1      -1.089  -2.643   0.000  0.00  0.00     0.042 C 
ENDBRANCH  16  17
ENDBRANCH  14  16
ENDBRANCH   1  14
TORSDOF 3
