REMARK  5 active torsions:
REMARK  status: ('A' for Active; 'I' for Inactive)
REMARK    1  A    between atoms: C_3  and  O_4 
REMARK    2  A    between atoms: C_8  and  C_7 
REMARK    3  A    between atoms: C_9  and  C_8 
REMARK    4  A    between atoms: N_10  and  C_9 
REMARK       I    between atoms: C_11  and  N_10 
REMARK       I    between atoms: C_16  and  N_17 
REMARK    5  A    between atoms: C_25  and  C_24 
ROOT
HETATM    1  N   UNK N   1       1.033   1.582  -0.948  0.00  0.00    -0.225 N 
HETATM    2  C   UNK N   1      -0.029   0.775  -0.493  0.00  0.00     0.707 A 
HETATM    3  N   UNK N   1      -1.101   1.337   0.140  0.00  0.00    -0.019 N 
ATOM      4  HN  UNK N   1      -1.113   2.328   0.382  1.00  0.00     0.203 HD
HETATM    5  N   UNK N   1      -0.005  -0.569  -0.764  0.00  0.00    -0.020 N 
ATOM      6  HN  UNK N   1       0.802  -0.978  -1.236  1.00  0.00     0.203 HD
HETATM    7  C   UNK N   1      -1.052  -1.358  -0.409  0.00  0.00     0.727 A 
HETATM    8  N   UNK N   1      -1.071  -2.724  -0.754  0.00  0.00    -0.232 N 
HETATM    9  N   UNK N   1      -2.117  -0.767   0.153  0.00  0.00     0.092 N 
HETATM   10  N   UNK N   1      -3.318  -1.267   0.345  0.00  0.00    -0.246 N 
ATOM     11  HN  UNK N   1      -3.608  -2.239   0.246  1.00  0.00     0.190 HD
HETATM   12  C   UNK N   1      -2.143   0.530   0.434  0.00  0.00     0.735 A 
HETATM   13  N   UNK N   1      -3.362   0.936   0.797  0.00  0.00    -0.170 N 
ATOM     14  HN  UNK N   1      -3.672   1.868   1.073  1.00  0.00     0.186 HD
HETATM   15  C   UNK N   1      -4.083  -0.212   0.702  0.00  0.00     0.171 A 
HETATM   16  H   UNK N   1       1.479   1.350  -1.794  0.00  0.00     0.177 HD
HETATM   17  H   UNK N   1      -1.904  -3.190  -0.995  0.00  0.00     0.174 HD
HETATM   18  H   UNK N   1      -0.225  -3.229  -0.754  0.00  0.00     0.174 HD
ENDROOT
BRANCH   1  19
HETATM   19  C   UNK N   1       1.485   2.734  -0.215  0.00  0.00     0.142 C 
BRANCH  19  20
HETATM   20  C   UNK N   1       2.526   2.317   0.843  0.00  0.00     0.058 C 
BRANCH  20  21
HETATM   21  C   UNK N   1       3.271   1.054   0.491  0.00  0.00    -0.057 A 
HETATM   22  C   UNK N   1       4.592   1.116   0.039  0.00  0.00     0.010 A 
HETATM   23  C   UNK N   1       5.253  -0.056  -0.349  0.00  0.00     0.037 A 
HETATM   24  C   UNK N   1       4.591  -1.289  -0.295  0.00  0.00     0.065 A 
HETATM   25  C   UNK N   1       3.278  -1.355   0.171  0.00  0.00     0.037 A 
HETATM   26  C   UNK N   1       2.627  -0.189   0.572  0.00  0.00     0.010 A 
BRANCH  24  27
HETATM   27  O   UNK N   1       5.217  -2.409  -0.687  0.00  0.00    -0.361 OA
HETATM   28  H   UNK N   1       4.758  -3.179  -0.961  0.00  0.00     0.217 HD
ENDBRANCH  24  27
ENDBRANCH  20  21
ENDBRANCH  19  20
ENDBRANCH   1  19
BRANCH  15  29
HETATM   29  C   UNK N   1      -5.495  -0.185   0.373  0.00  0.00     0.120 A 
HETATM   30  C   UNK N   1      -6.221   0.967   0.180  0.00  0.00     0.043 A 
HETATM   31  C   UNK N   1      -7.376   0.566  -0.461  0.00  0.00     0.027 A 
HETATM   32  C   UNK N   1      -7.271  -0.804  -0.634  0.00  0.00     0.142 A 
HETATM   33  O   UNK N   1      -6.128  -1.209  -0.136  0.00  0.00    -0.319 OA
ENDBRANCH  15  29
TORSDOF 5
