REMARK  3 active torsions:
REMARK  status: ('A' for Active; 'I' for Inactive)
REMARK    1  A    between atoms: N_7  and  C_5 
REMARK    2  A    between atoms: C_8  and  N_7 
REMARK    3  A    between atoms: C_10  and  C_16 
ROOT
HETATM    1  C   UNK N   1      -0.114   0.242  -0.267  0.00  0.00     0.148 C 
HETATM    2  S   UNK N   1      -0.953   1.829  -0.249  0.00  0.00    -0.079 SA
HETATM    3  C   UNK N   1       0.562   2.553   0.508  0.00  0.00     0.151 C 
HETATM    4  C   UNK N   1       1.586   1.461   0.411  0.00  0.00     0.238 C 
HETATM    5  N   UNK N   1       1.121   0.259   0.047  0.00  0.00    -0.306 N 
ATOM      6  HN  UNK N   1       1.707  -0.576   0.023  1.00  0.00     0.171 HD
HETATM    7  O   UNK N   1       2.743   1.613   0.764  0.00  0.00    -0.272 OA
ENDROOT
BRANCH   1   8
HETATM    8  N   UNK N   1      -0.846  -0.969  -0.448  0.00  0.00    -0.334 N 
HETATM    9  H   UNK N   1      -1.788  -0.885  -0.725  0.00  0.00     0.168 HD
BRANCH   8  10
HETATM   10  C   UNK N   1      -0.339  -2.289  -0.266  0.00  0.00     0.073 A 
HETATM   11  C   UNK N   1      -1.243  -3.359  -0.170  0.00  0.00     0.143 A 
HETATM   12  C   UNK N   1      -0.775  -4.661   0.036  0.00  0.00     0.044 A 
HETATM   13  F   UNK N   1      -2.578  -3.137  -0.253  0.00  0.00    -0.204 F 
HETATM   14  C   UNK N   1       0.595  -4.906   0.142  0.00  0.00     0.003 A 
HETATM   15  C   UNK N   1       1.502  -3.848   0.046  0.00  0.00     0.002 A 
HETATM   16  C   UNK N   1       1.037  -2.544  -0.153  0.00  0.00     0.033 A 
ENDBRANCH   8  10
ENDBRANCH   1   8
BRANCH   3  17
HETATM   17  C   UNK N   1       1.012   3.871  -0.142  0.00  0.00     0.001 C 
HETATM   18  C   UNK N   1       1.425   3.742  -1.597  0.00  0.00     0.011 C 
HETATM   19  C   UNK N   1      -0.056   4.944   0.003  0.00  0.00     0.011 C 
ENDBRANCH   3  17
TORSDOF 3
