REMARK  3 active torsions:
REMARK  status: ('A' for Active; 'I' for Inactive)
REMARK    1  A    between atoms: C_3  and  O_4 
REMARK    2  A    between atoms: C_8  and  C_9 
REMARK    3  A    between atoms: C_12  and  O_13 
ROOT
HETATM    1  C   UNK N   1       2.943   1.528   0.000  0.00  0.00     0.015 A 
HETATM    2  C   UNK N   1       4.208   0.906   0.000  0.00  0.00     0.037 A 
HETATM    3  C   UNK N   1       4.319  -0.502   0.000  0.00  0.00     0.067 A 
HETATM    4  C   UNK N   1       3.168  -1.302  -0.000  0.00  0.00     0.056 A 
HETATM    5  C   UNK N   1       1.936  -0.664  -0.000  0.00  0.00     0.018 A 
HETATM    6  S   UNK N   1       0.427  -1.314  -0.000  0.00  0.00    -0.089 SA
HETATM    7  C   UNK N   1      -0.461   0.099  -0.000  0.00  0.00     0.016 A 
HETATM    8  C   UNK N   1       1.803   0.722   0.000  0.00  0.00    -0.018 A 
HETATM    9  C   UNK N   1       0.451   1.176   0.000  0.00  0.00     0.032 A 
ENDROOT
BRANCH   7  10
HETATM   10  C   UNK N   1      -1.933   0.166  -0.000  0.00  0.00    -0.019 A 
HETATM   11  C   UNK N   1      -2.675  -1.024  -0.000  0.00  0.00     0.015 A 
HETATM   12  C   UNK N   1      -4.069  -0.991  -0.000  0.00  0.00     0.037 A 
HETATM   13  C   UNK N   1      -4.736   0.234   0.000  0.00  0.00     0.065 A 
HETATM   14  C   UNK N   1      -4.007   1.428   0.000  0.00  0.00     0.037 A 
HETATM   15  C   UNK N   1      -2.606   1.396   0.000  0.00  0.00     0.015 A 
BRANCH  13  16
HETATM   16  O   UNK N   1      -6.079   0.262   0.000  0.00  0.00    -0.361 OA
HETATM   17  H   UNK N   1      -6.530   1.084   0.000  0.00  0.00     0.217 HD
ENDBRANCH  13  16
ENDBRANCH   7  10
BRANCH   3  18
HETATM   18  O   UNK N   1       5.531  -1.079   0.000  0.00  0.00    -0.361 OA
HETATM   19  H   UNK N   1       5.604  -2.014   0.000  0.00  0.00     0.217 HD
ENDBRANCH   3  18
TORSDOF 3
