REMARK  4 active torsions:
REMARK  status: ('A' for Active; 'I' for Inactive)
REMARK    1  A    between atoms: C_6  and  C_7 
REMARK    2  A    between atoms: C_17  and  N_18 
REMARK    3  A    between atoms: C_23  and  C_24 
REMARK    4  A    between atoms: C_24  and  N_25 
ROOT
HETATM    1  C   UNK N   1       0.990  -1.771   0.282  0.00  0.00     0.017 A 
HETATM    2  C   UNK N   1       0.998  -3.175   0.511  0.00  0.00     0.104 A 
HETATM    3  N   UNK N   1      -0.156  -3.899   0.566  0.00  0.00    -0.350 N 
ATOM      4  HN  UNK N   1      -0.130  -4.904   0.736  1.00  0.00     0.166 HD
HETATM    5  C   UNK N   1      -1.331  -3.261   0.393  0.00  0.00     0.134 A 
HETATM    6  N   UNK N   1      -2.547  -3.819   0.422  0.00  0.00    -0.285 N 
HETATM    7  N   UNK N   1      -3.435  -2.846   0.247  0.00  0.00    -0.309 N 
ATOM      8  HN  UNK N   1      -4.447  -2.968   0.218  1.00  0.00     0.186 HD
HETATM    9  C   UNK N   1      -2.782  -1.664   0.113  0.00  0.00     0.124 A 
HETATM   10  C   UNK N   1      -1.426  -1.923   0.197  0.00  0.00     0.054 A 
HETATM   11  C   UNK N   1      -0.284  -1.098   0.149  0.00  0.00     0.058 A 
HETATM   12  H   UNK N   1      -2.747  -4.775   0.549  0.00  0.00     0.188 HD
ENDROOT
BRANCH  11  13
HETATM   13  N   UNK N   1      -0.427   0.332   0.035  0.00  0.00    -0.375 N 
HETATM   14  C   UNK N   1      -1.595   0.877  -0.645  0.00  0.00     0.156 C 
HETATM   15  C   UNK N   1      -1.734   2.394  -0.525  0.00  0.00     0.156 C 
HETATM   16  O   UNK N   1      -0.461   2.995  -0.623  0.00  0.00    -0.381 OA
HETATM   17  C   UNK N   1       0.252   2.702   0.554  0.00  0.00     0.188 C 
HETATM   18  C   UNK N   1       0.535   1.208   0.697  0.00  0.00     0.149 C 
BRANCH  15  19
HETATM   19  C   UNK N   1      -2.496   2.813   0.747  0.00  0.00     0.144 C 
BRANCH  19  20
HETATM   20  N   UNK N   1      -3.799   2.173   0.809  0.00  0.00    -0.428 N 
HETATM   21  H   UNK N   1      -4.645   2.740   0.853  0.00  0.00     0.150 HD
HETATM   22  H   UNK N   1      -3.867   1.155   0.809  0.00  0.00     0.150 HD
ENDBRANCH  19  20
ENDBRANCH  15  19
ENDBRANCH  11  13
BRANCH   1  23
HETATM   23  C   UNK N   1       2.324  -1.121   0.096  0.00  0.00    -0.022 A 
HETATM   24  C   UNK N   1       2.488  -0.023  -0.766  0.00  0.00     0.012 A 
HETATM   25  C   UNK N   1       3.746   0.545  -0.975  0.00  0.00     0.001 A 
HETATM   26  C   UNK N   1       4.866   0.008  -0.338  0.00  0.00     0.000 A 
HETATM   27  C   UNK N   1       4.728  -1.107   0.490  0.00  0.00     0.001 A 
HETATM   28  C   UNK N   1       3.468  -1.678   0.694  0.00  0.00     0.012 A 
ENDBRANCH   1  23
TORSDOF 4
