REMARK  1 active torsions:
REMARK  status: ('A' for Active; 'I' for Inactive)
REMARK    1  A    between atoms: C_6  and  N_18 
ROOT
HETATM    1  C   UNK N   1       0.313  -0.597   0.000  0.00  0.00     0.135 A 
HETATM    2  N   UNK N   1       1.483  -1.311  -0.000  0.00  0.00    -0.337 N 
ATOM      3  HN  UNK N   1       2.372  -0.812  -0.000  1.00  0.00     0.168 HD
HETATM    4  C   UNK N   1       1.484  -2.685   0.000  0.00  0.00     0.183 A 
HETATM    5  N   UNK N   1       0.305  -3.380   0.000  0.00  0.00    -0.337 N 
ATOM      6  HN  UNK N   1       0.296  -4.400   0.000  1.00  0.00     0.168 HD
HETATM    7  C   UNK N   1      -0.848  -2.674   0.000  0.00  0.00     0.138 A 
HETATM    8  C   UNK N   1      -0.878  -1.330   0.000  0.00  0.00     0.122 A 
HETATM    9  N   UNK N   1      -2.153  -0.913  -0.000  0.00  0.00    -0.346 N 
ATOM     10  HN  UNK N   1      -2.497   0.048  -0.000  1.00  0.00     0.167 HD
HETATM   11  C   UNK N   1      -2.883  -2.059  -0.000  0.00  0.00     0.182 A 
HETATM   12  N   UNK N   1      -2.094  -3.165   0.000  0.00  0.00    -0.337 N 
HETATM   13  H   UNK N   1      -2.374  -4.109  -0.000  0.00  0.00     0.168 HD
ENDROOT
BRANCH   1  14
HETATM   14  N   UNK N   1       0.334   0.834  -0.000  0.00  0.00    -0.361 N 
HETATM   15  C   UNK N   1      -0.909   1.560   0.000  0.00  0.00     0.150 A 
HETATM   16  C   UNK N   1      -0.839   3.076  -0.000  0.00  0.00     0.187 A 
HETATM   17  O   UNK N   1       0.390   3.763   0.000  0.00  0.00    -0.388 OA
HETATM   18  C   UNK N   1       1.591   3.023  -0.000  0.00  0.00     0.187 A 
HETATM   19  C   UNK N   1       1.609   1.499   0.000  0.00  0.00     0.150 A 
ENDBRANCH   1  14
TORSDOF 1
