REMARK  5 active torsions:
REMARK  status: ('A' for Active; 'I' for Inactive)
REMARK    1  A    between atoms: C_1  and  S_7 
REMARK    2  A    between atoms: C_4  and  C_11 
REMARK    3  A    between atoms: S_7  and  N_10 
REMARK    4  A    between atoms: C_11  and  C_12 
REMARK    5  A    between atoms: C_12  and  N_13 
ROOT
HETATM    1  C   UNK N   1       2.202  -0.318  -0.060  0.00  0.00     0.079 A 
HETATM    2  C   UNK N   1       1.087   0.327  -0.604  0.00  0.00     0.026 A 
HETATM    3  C   UNK N   1      -0.095  -0.387  -0.821  0.00  0.00     0.009 A 
HETATM    4  C   UNK N   1      -0.163  -1.746  -0.489  0.00  0.00    -0.057 A 
HETATM    5  C   UNK N   1       0.960  -2.395   0.033  0.00  0.00     0.009 A 
HETATM    6  C   UNK N   1       2.142  -1.679   0.252  0.00  0.00     0.026 A 
ENDROOT
BRANCH   1   7
HETATM    7  S   UNK N   1       3.671   0.623   0.330  0.00  0.00     0.256 S 
HETATM    8  O   UNK N   1       3.901   1.817  -0.607  0.00  0.00    -0.201 OA
HETATM    9  O   UNK N   1       3.564   1.301   1.703  0.00  0.00    -0.201 OA
BRANCH   7  10
HETATM   10  N   UNK N   1       5.211  -0.236   0.372  0.00  0.00    -0.324 N 
HETATM   11  H   UNK N   1       5.226  -1.256   0.396  0.00  0.00     0.169 HD
HETATM   12  H   UNK N   1       6.087   0.287   0.372  0.00  0.00     0.169 HD
ENDBRANCH   7  10
ENDBRANCH   1   7
BRANCH   4  13
HETATM   13  C   UNK N   1      -1.442  -2.496  -0.647  0.00  0.00     0.057 C 
BRANCH  13  14
HETATM   14  C   UNK N   1      -2.481  -1.929   0.307  0.00  0.00     0.115 C 
BRANCH  14  15
HETATM   15  N   UNK N   1      -3.698  -2.714   0.234  0.00  0.00    -0.430 N 
HETATM   16  H   UNK N   1      -4.605  -2.249   0.183  0.00  0.00     0.149 HD
HETATM   17  H   UNK N   1      -3.648  -3.733   0.234  0.00  0.00     0.149 HD
ENDBRANCH  14  15
ENDBRANCH  13  14
ENDBRANCH   4  13
TORSDOF 5
