REMARK  11 active torsions:
REMARK  status: ('A' for Active; 'I' for Inactive)
REMARK    1  A    between atoms: Se_1  and  O_23 
REMARK    2  A    between atoms: Se_1  and  O_24 
REMARK    3  A    between atoms: C_2  and  Se_1 
REMARK    4  A    between atoms: C_4  and  C_2 
REMARK    5  A    between atoms: C_15  and  N_3 
REMARK       I    between atoms: C_17  and  N_3 
REMARK    6  A    between atoms: O_8  and  C_16 
REMARK    7  A    between atoms: C_14  and  C_9 
REMARK    8  A    between atoms: O_12  and  C_17 
REMARK    9  A    between atoms: C_19  and  O_12 
REMARK   10  A    between atoms: C_15  and  C_14 
REMARK   11  A    between atoms: C_15  and  C_16 
ROOT
HETATM    1  C   UNK N   1       1.636   0.465  -0.092  0.00  0.00     0.190 C 
ENDROOT
BRANCH   1   2
HETATM    2  N   UNK N   1       3.042   0.226   0.160  0.00  0.00    -0.323 N 
HETATM    3  C   UNK N   1       3.896  -0.126  -0.844  0.00  0.00     0.362 C 
HETATM    4  O   UNK N   1       3.562   0.003  -2.010  0.00  0.00    -0.238 OA
HETATM    5  H   UNK N   1       3.389   0.320   1.076  0.00  0.00     0.165 HD
BRANCH   3   6
HETATM    6  O   UNK N   1       5.124  -0.643  -0.567  0.00  0.00    -0.294 OA
BRANCH   6   7
HETATM    7  C   UNK N   1       5.455  -1.514   0.466  0.00  0.00     0.061 C 
HETATM    8  C   UNK N   1       6.140  -2.720  -0.142  0.00  0.00     0.046 C 
HETATM    9  C   UNK N   1       6.424  -0.836   1.410  0.00  0.00     0.046 C 
HETATM   10  C   UNK N   1       4.264  -2.034   1.266  0.00  0.00     0.046 C 
ENDBRANCH   6   7
ENDBRANCH   3   6
ENDBRANCH   1   2
BRANCH   1  11
HETATM   11  C   UNK N   1       0.973   1.179   1.104  0.00  0.00     0.074 C 
BRANCH  11  12
HETATM   12  C   UNK N   1      -0.520   1.273   0.921  0.00  0.00    -0.056 A 
HETATM   13  C   UNK N   1      -1.121   2.450   0.457  0.00  0.00     0.007 A 
HETATM   14  C   UNK N   1      -2.498   2.471   0.184  0.00  0.00     0.007 A 
HETATM   15  C   UNK N   1      -3.276   1.312   0.358  0.00  0.00    -0.058 A 
HETATM   16  C   UNK N   1      -2.669   0.156   0.849  0.00  0.00     0.007 A 
HETATM   17  C   UNK N   1      -1.307   0.137   1.133  0.00  0.00     0.007 A 
BRANCH  15  18
HETATM   18  C   UNK N   1      -4.740   1.223   0.015  0.00  0.00     0.043 C 
BRANCH  18  19
HETATM   19 Se   UNK N   1      -5.771   2.785  -0.599  0.00  0.00     0.000 Se
BRANCH  19  20
HETATM   20  O   UNK N   1      -5.442   3.662   0.980  0.00  0.00    -0.253 OA
HETATM   21  H   UNK N   1      -4.954   3.743   1.814  0.00  0.00     0.253 HD
ENDBRANCH  19  20
BRANCH  19  22
HETATM   22  O   UNK N   1      -4.499   3.511  -1.345  0.00  0.00    -0.253 OA
ATOM     23  HO  UNK N   1      -4.669   3.057  -2.162  1.00  0.00     0.253 HD
ENDBRANCH  19  22
ENDBRANCH  18  19
ENDBRANCH  15  18
ENDBRANCH  11  12
ENDBRANCH   1  11
BRANCH   1  24
HETATM   24  C   UNK N   1       1.013  -0.887  -0.324  0.00  0.00     0.281 C 
HETATM   25  O   UNK N   1       0.465  -1.135  -1.389  0.00  0.00    -0.263 OA
BRANCH  24  26
HETATM   26  O   UNK N   1       1.073  -1.818   0.662  0.00  0.00    -0.325 OA
HETATM   27  C   UNK N   1       0.526  -3.071   0.535  0.00  0.00     0.213 C 
ENDBRANCH  24  26
ENDBRANCH   1  24
TORSDOF 11
