REMARK  0 active torsions:
REMARK  status: ('A' for Active; 'I' for Inactive)
ROOT
HETATM    1  O   UNK N   1      -3.178   2.257  -0.000  0.00  0.00    -0.260 OA
HETATM    2  C   UNK N   1      -2.198   1.537  -0.000  0.00  0.00     0.288 A 
HETATM    3  O   UNK N   1      -0.982   2.078   0.000  0.00  0.00    -0.275 OA
HETATM    4  C   UNK N   1       0.124   1.340   0.000  0.00  0.00     0.090 A 
HETATM    5  C   UNK N   1       1.373   1.966   0.000  0.00  0.00     0.038 A 
HETATM    6  C   UNK N   1       2.541   1.200   0.000  0.00  0.00     0.003 A 
HETATM    7  C   UNK N   1       2.465  -0.196   0.000  0.00  0.00     0.001 A 
HETATM    8  C   UNK N   1       1.219  -0.833   0.000  0.00  0.00     0.015 A 
HETATM    9  C   UNK N   1       0.041  -0.072   0.000  0.00  0.00     0.004 A 
HETATM   10  C   UNK N   1      -1.231  -0.668   0.000  0.00  0.00    -0.043 A 
HETATM   11  C   UNK N   1      -1.412  -2.150  -0.000  0.00  0.00     0.049 C 
HETATM   12  C   UNK N   1      -2.358   0.150  -0.000  0.00  0.00     0.090 A 
ENDROOT
TORSDOF 0
