REMARK  4 active torsions:
REMARK  status: ('A' for Active; 'I' for Inactive)
REMARK       I    between atoms: N_1  and  C_2 
REMARK    1  A    between atoms: C_5  and  O_11 
REMARK    2  A    between atoms: O_11  and  C_12 
REMARK    3  A    between atoms: C_12  and  C_13 
REMARK    4  A    between atoms: C_13  and  O_14 
ROOT
HETATM    1  N   UNK N   1      -4.069   1.221   0.000  0.00  0.00    -0.234 N 
HETATM    2  C   UNK N   1      -2.878   0.467   0.000  0.00  0.00     0.678 A 
HETATM    3  N   UNK N   1      -1.673   1.100   0.000  0.00  0.00    -0.171 N 
ATOM      4  HN  UNK N   1      -1.639   2.119   0.000  1.00  0.00     0.186 HD
HETATM    5  C   UNK N   1      -0.512   0.387  -0.000  0.00  0.00     0.159 A 
HETATM    6  C   UNK N   1      -0.568  -1.013  -0.000  0.00  0.00     0.081 A 
HETATM    7  C   UNK N   1      -1.806  -1.638  -0.000  0.00  0.00     0.026 A 
HETATM    8  C   UNK N   1      -1.885  -3.121  -0.000  0.00  0.00     0.069 C 
HETATM    9  N   UNK N   1      -2.941  -0.891   0.000  0.00  0.00    -0.196 N 
ATOM     10  HN  UNK N   1      -3.850  -1.354   0.000  1.00  0.00     0.184 HD
HETATM   11  H   UNK N   1      -4.029   2.205   0.000  0.00  0.00     0.174 HD
HETATM   12  H   UNK N   1      -4.941   0.764   0.000  0.00  0.00     0.174 HD
ENDROOT
BRANCH   5  13
HETATM   13  O   UNK N   1       0.679   1.036  -0.000  0.00  0.00    -0.333 OA
BRANCH  13  14
HETATM   14  C   UNK N   1       1.869   0.339  -0.000  0.00  0.00     0.203 C 
BRANCH  14  15
HETATM   15  C   UNK N   1       3.066   1.260   0.000  0.00  0.00     0.193 C 
BRANCH  15  16
HETATM   16  O   UNK N   1       4.215   0.466   0.000  0.00  0.00    -0.394 OA
HETATM   17  C   UNK N   1       5.279   1.365  -0.000  0.00  0.00     0.201 C 
ENDBRANCH  15  16
ENDBRANCH  14  15
ENDBRANCH  13  14
ENDBRANCH   5  13
TORSDOF 4
