REMARK  3 active torsions:
REMARK  status: ('A' for Active; 'I' for Inactive)
REMARK    1  A    between atoms: C_8  and  C_9 
REMARK       I    between atoms: C_12  and  N_13 
REMARK    2  A    between atoms: C_20  and  C_21 
REMARK       I    between atoms: C_21  and  N_23 
REMARK    3  A    between atoms: N_23  and  C_24 
ROOT
HETATM    1  C   UNK N   1       1.330   0.171  -0.017  0.00  0.00     0.074 A 
HETATM    2  N   UNK N   1       2.555  -0.449  -0.024  0.00  0.00    -0.190 N 
ATOM      3  HN  UNK N   1       3.391   0.136  -0.029  1.00  0.00     0.184 HD
HETATM    4  C   UNK N   1       2.718  -1.807  -0.025  0.00  0.00     0.677 A 
HETATM    5  N   UNK N   1       4.013  -2.358  -0.034  0.00  0.00    -0.234 N 
HETATM    6  N   UNK N   1       1.632  -2.627  -0.015  0.00  0.00    -0.185 N 
ATOM      7  HN  UNK N   1       1.742  -3.641  -0.023  1.00  0.00     0.185 HD
HETATM    8  C   UNK N   1       0.408  -2.064   0.006  0.00  0.00     0.103 A 
HETATM    9  S   UNK N   1      -1.064  -2.823   0.037  0.00  0.00    -0.066 SA
HETATM   10  C   UNK N   1       0.203  -0.686   0.013  0.00  0.00     0.028 A 
HETATM   11  C   UNK N   1      -1.165  -0.353   0.069  0.00  0.00     0.041 A 
HETATM   12  C   UNK N   1      -2.018  -1.460   0.075  0.00  0.00     0.075 A 
HETATM   13  H   UNK N   1       4.132  -3.336  -0.041  0.00  0.00     0.174 HD
HETATM   14  H   UNK N   1       4.799  -1.766  -0.034  0.00  0.00     0.174 HD
ENDROOT
BRANCH   1  15
HETATM   15  C   UNK N   1       1.341   1.699  -0.016  0.00  0.00     0.014 A 
HETATM   16  C   UNK N   1       0.260   2.638  -0.227  0.00  0.00     0.048 A 
HETATM   17 Cl   UNK N   1      -1.410   2.301  -0.623  0.00  0.00    -0.083 Cl
HETATM   18  C   UNK N   1       0.520   4.012  -0.179  0.00  0.00     0.048 A 
HETATM   19  C   UNK N   1       1.792   4.507   0.059  0.00  0.00     0.035 A 
HETATM   20 Cl   UNK N   1       2.057   6.236   0.104  0.00  0.00    -0.084 Cl
HETATM   21  C   UNK N   1       2.847   3.630   0.244  0.00  0.00     0.025 A 
HETATM   22  C   UNK N   1       2.621   2.256   0.206  0.00  0.00     0.017 A 
ENDBRANCH   1  15
BRANCH  12  23
HETATM   23  C   UNK N   1      -3.485  -1.360   0.086  0.00  0.00     0.258 C 
HETATM   24  O   UNK N   1      -4.005  -0.252   0.109  0.00  0.00    -0.267 OA
HETATM   25  N   UNK N   1      -4.256  -2.472   0.058  0.00  0.00    -0.357 N 
HETATM   26  H   UNK N   1      -3.829  -3.359   0.040  0.00  0.00     0.162 HD
BRANCH  25  27
HETATM   27  C   UNK N   1      -5.695  -2.374   0.054  0.00  0.00     0.118 C 
HETATM   28  C   UNK N   1      -6.306  -3.756   0.000  0.00  0.00     0.026 C 
ENDBRANCH  25  27
ENDBRANCH  12  23
TORSDOF 3
