REMARK  4 active torsions:
REMARK  status: ('A' for Active; 'I' for Inactive)
REMARK       I    between atoms: C_2  and  N_3 
REMARK    1  A    between atoms: C_2  and  C_4 
REMARK    2  A    between atoms: N_13  and  S_14 
REMARK    3  A    between atoms: S_14  and  C_17 
REMARK    4  A    between atoms: C_18  and  N_19 
ROOT
HETATM    1  C   UNK N   1       3.062   1.728  -0.010  0.00  0.00     0.049 A 
HETATM    2  C   UNK N   1       1.784   1.155   0.065  0.00  0.00     0.051 A 
HETATM    3  C   UNK N   1       0.682   2.000   0.003  0.00  0.00     0.077 A 
HETATM    4  C   UNK N   1       3.175   3.138  -0.131  0.00  0.00     0.105 A 
HETATM    5  N   UNK N   1       2.054   3.926  -0.186  0.00  0.00    -0.363 N 
ATOM      6  HN  UNK N   1       2.137   4.939  -0.273  1.00  0.00     0.165 HD
HETATM    7  C   UNK N   1       0.832   3.338  -0.124  0.00  0.00     0.061 A 
HETATM    8  C   UNK N   1      -0.422   3.914  -0.156  0.00  0.00     0.050 A 
HETATM    9  C   UNK N   1      -1.318   2.839  -0.036  0.00  0.00     0.112 A 
HETATM   10  N   UNK N   1      -0.625   1.677   0.057  0.00  0.00    -0.245 N 
ENDROOT
BRANCH  10  11
HETATM   11  S   UNK N   1      -1.323   0.052   0.318  0.00  0.00     0.271 S 
HETATM   12  O   UNK N   1      -0.474  -0.288  -0.916  0.00  0.00    -0.200 OA
HETATM   13  O   UNK N   1      -0.279  -0.310   1.380  0.00  0.00    -0.200 OA
BRANCH  11  14
HETATM   14  C   UNK N   1      -1.811  -1.688   0.039  0.00  0.00     0.113 A 
HETATM   15  C   UNK N   1      -0.944  -2.862  -0.007  0.00  0.00     0.126 A 
HETATM   16  C   UNK N   1      -1.558  -4.122  -0.147  0.00  0.00     0.038 A 
HETATM   17  C   UNK N   1      -2.936  -4.267  -0.242  0.00  0.00     0.003 A 
HETATM   18  C   UNK N   1      -3.754  -3.147  -0.204  0.00  0.00     0.002 A 
HETATM   19  C   UNK N   1      -3.196  -1.880  -0.060  0.00  0.00     0.028 A 
BRANCH  15  20
HETATM   20  N   UNK N   1       0.500  -2.863   0.079  0.00  0.00    -0.114 N 
HETATM   21  O   UNK N   1       1.213  -1.764   0.101  0.00  0.00    -0.532 OA
HETATM   22  O   UNK N   1       1.083  -3.907   0.068  0.00  0.00    -0.532 OA
ENDBRANCH  15  20
ENDBRANCH  11  14
ENDBRANCH  10  11
BRANCH   1  23
HETATM   23  C   UNK N   1       4.260   0.861   0.027  0.00  0.00     0.250 C 
HETATM   24  O   UNK N   1       5.376   1.352  -0.023  0.00  0.00    -0.268 OA
HETATM   25  N   UNK N   1       4.128  -0.480   0.104  0.00  0.00    -0.366 N 
HETATM   26  H   UNK N   1       3.233  -0.886   0.161  0.00  0.00     0.159 HD
HETATM   27  H   UNK N   1       4.929  -1.053   0.104  0.00  0.00     0.159 HD
ENDBRANCH   1  23
TORSDOF 4
