MODEL 1
REMARK VINA RESULT:      -5.5      0.000      0.000
REMARK  8 active torsions:
REMARK  status: ('A' for Active; 'I' for Inactive)
REMARK    1  A    between atoms: N_2  and  C_9 
REMARK    2  A    between atoms: N_2  and  C_11 
REMARK    3  A    between atoms: N_2  and  C_12 
REMARK    4  A    between atoms: N_3  and  C_8 
REMARK    5  A    between atoms: N_3  and  C_13 
REMARK    6  A    between atoms: C_6  and  C_7 
REMARK    7  A    between atoms: C_6  and  C_8 
REMARK    8  A    between atoms: C_7  and  C_9 
ROOT
HETATM    1 Cl   UNK N   1      34.109  16.518   6.118  0.00  0.00    -0.084 Cl
HETATM    2  N   UNK N   1      30.549  18.004   9.475  0.00  0.00    -0.365 N 
ATOM      3  HN  UNK N   1      31.282  17.972  10.184  1.00  0.00     0.165 HD
HETATM    4  C   UNK N   1      28.555  18.089   7.555  0.00  0.00     0.042 A 
HETATM    5  C   UNK N   1      29.852  17.702   7.196  0.00  0.00     0.017 A 
HETATM    6  C   UNK N   1      28.278  18.438   8.879  0.00  0.00     0.047 A 
HETATM    7  C   UNK N   1      30.852  17.670   8.193  0.00  0.00     0.046 A 
HETATM    8  C   UNK N   1      30.179  17.381   5.872  0.00  0.00     0.018 A 
HETATM    9  C   UNK N   1      29.291  18.379   9.835  0.00  0.00     0.090 A 
HETATM   10  C   UNK N   1      32.159  17.310   7.854  0.00  0.00     0.054 A 
HETATM   11  C   UNK N   1      31.488  17.019   5.543  0.00  0.00     0.025 A 
HETATM   12  C   UNK N   1      32.475  16.983   6.533  0.00  0.00     0.036 A 
ENDROOT
BRANCH   4  13
HETATM   13  N   UNK N   1      27.555  18.233   6.574  0.00  0.00    -0.385 N 
HETATM   14  H   UNK N   1      26.873  17.537   6.429  0.00  0.00     0.160 HD
BRANCH  13  15
HETATM   15  C   UNK N   1      27.571  19.438   5.797  0.00  0.00     0.077 C 
HETATM   16  C   UNK N   1      26.948  20.636   6.491  0.00  0.00     0.032 C 
BRANCH  15  17
HETATM   17  C   UNK N   1      27.346  19.192   4.307  0.00  0.00     0.026 C 
BRANCH  17  18
HETATM   18  C   UNK N   1      26.547  17.946   3.981  0.00  0.00     0.032 C 
BRANCH  18  19
HETATM   19  C   UNK N   1      25.030  18.178   3.975  0.00  0.00     0.272 C 
BRANCH  19  20
HETATM   20  N   UNK N   1      24.353  17.413   5.032  0.00  0.00     0.087 N 
BRANCH  20  21
HETATM   21  C   UNK N   1      24.960  16.079   5.134  0.00  0.00     0.268 C 
HETATM   22  C   UNK N   1      24.514  15.381   6.404  0.00  0.00     0.037 C 
ENDBRANCH  20  21
BRANCH  20  23
HETATM   23  C   UNK N   1      22.922  17.394   4.690  0.00  0.00     0.268 C 
HETATM   24  C   UNK N   1      21.990  18.023   5.719  0.00  0.00     0.037 C 
ENDBRANCH  20  23
ENDBRANCH  19  20
ENDBRANCH  18  19
ENDBRANCH  17  18
ENDBRANCH  15  17
ENDBRANCH  13  15
ENDBRANCH   4  13
TORSDOF 8
ENDMDL
MODEL 2
REMARK VINA RESULT:      -5.4     13.021     15.556
REMARK  8 active torsions:
REMARK  status: ('A' for Active; 'I' for Inactive)
REMARK    1  A    between atoms: N_2  and  C_9 
REMARK    2  A    between atoms: N_2  and  C_11 
REMARK    3  A    between atoms: N_2  and  C_12 
REMARK    4  A    between atoms: N_3  and  C_8 
REMARK    5  A    between atoms: N_3  and  C_13 
REMARK    6  A    between atoms: C_6  and  C_7 
REMARK    7  A    between atoms: C_6  and  C_8 
REMARK    8  A    between atoms: C_7  and  C_9 
ROOT
HETATM    1 Cl   UNK N   1      29.876  29.189  -9.242  0.00  0.00    -0.084 Cl
HETATM    2  N   UNK N   1      27.011  29.320  -5.008  0.00  0.00    -0.365 N 
ATOM      3  HN  UNK N   1      27.415  30.239  -4.827  1.00  0.00     0.165 HD
HETATM    4  C   UNK N   1      25.909  26.825  -5.491  0.00  0.00     0.042 A 
HETATM    5  C   UNK N   1      26.852  27.355  -6.381  0.00  0.00     0.017 A 
HETATM    6  C   UNK N   1      25.524  27.563  -4.370  0.00  0.00     0.047 A 
HETATM    7  C   UNK N   1      27.396  28.631  -6.114  0.00  0.00     0.046 A 
HETATM    8  C   UNK N   1      27.237  26.663  -7.536  0.00  0.00     0.018 A 
HETATM    9  C   UNK N   1      26.096  28.813  -4.136  0.00  0.00     0.090 A 
HETATM   10  C   UNK N   1      28.321  29.190  -6.999  0.00  0.00     0.054 A 
HETATM   11  C   UNK N   1      28.164  27.229  -8.415  0.00  0.00     0.025 A 
HETATM   12  C   UNK N   1      28.706  28.490  -8.146  0.00  0.00     0.036 A 
ENDROOT
BRANCH   4  13
HETATM   13  N   UNK N   1      25.267  25.604  -5.774  0.00  0.00    -0.385 N 
HETATM   14  H   UNK N   1      24.371  25.577  -6.180  0.00  0.00     0.160 HD
BRANCH  13  15
HETATM   15  C   UNK N   1      25.977  24.402  -5.445  0.00  0.00     0.077 C 
HETATM   16  C   UNK N   1      25.640  23.217  -6.335  0.00  0.00     0.032 C 
BRANCH  15  17
HETATM   17  C   UNK N   1      26.183  24.220  -3.944  0.00  0.00     0.026 C 
BRANCH  17  18
HETATM   18  C   UNK N   1      27.629  24.264  -3.490  0.00  0.00     0.032 C 
BRANCH  18  19
HETATM   19  C   UNK N   1      28.633  24.208  -4.648  0.00  0.00     0.272 C 
BRANCH  19  20
HETATM   20  N   UNK N   1      29.456  22.991  -4.604  0.00  0.00     0.087 N 
BRANCH  20  21
HETATM   21  C   UNK N   1      30.720  23.281  -3.912  0.00  0.00     0.268 C 
HETATM   22  C   UNK N   1      30.817  22.496  -2.619  0.00  0.00     0.037 C 
ENDBRANCH  20  21
BRANCH  20  23
HETATM   23  C   UNK N   1      29.625  22.544  -5.995  0.00  0.00     0.268 C 
HETATM   24  C   UNK N   1      29.464  23.624  -7.059  0.00  0.00     0.037 C 
ENDBRANCH  20  23
ENDBRANCH  19  20
ENDBRANCH  18  19
ENDBRANCH  17  18
ENDBRANCH  15  17
ENDBRANCH  13  15
ENDBRANCH   4  13
TORSDOF 8
ENDMDL
MODEL 3
REMARK VINA RESULT:      -5.3      5.719      8.016
REMARK  8 active torsions:
REMARK  status: ('A' for Active; 'I' for Inactive)
REMARK    1  A    between atoms: N_2  and  C_9 
REMARK    2  A    between atoms: N_2  and  C_11 
REMARK    3  A    between atoms: N_2  and  C_12 
REMARK    4  A    between atoms: N_3  and  C_8 
REMARK    5  A    between atoms: N_3  and  C_13 
REMARK    6  A    between atoms: C_6  and  C_7 
REMARK    7  A    between atoms: C_6  and  C_8 
REMARK    8  A    between atoms: C_7  and  C_9 
ROOT
HETATM    1 Cl   UNK N   1      26.683  20.428   3.518  0.00  0.00    -0.084 Cl
HETATM    2  N   UNK N   1      21.715  20.578   2.315  0.00  0.00    -0.365 N 
ATOM      3  HN  UNK N   1      21.945  21.353   1.692  1.00  0.00     0.165 HD
HETATM    4  C   UNK N   1      21.086  18.475   4.004  0.00  0.00     0.042 A 
HETATM    5  C   UNK N   1      22.409  18.927   3.917  0.00  0.00     0.017 A 
HETATM    6  C   UNK N   1      20.094  19.083   3.231  0.00  0.00     0.047 A 
HETATM    7  C   UNK N   1      22.704  19.999   3.045  0.00  0.00     0.046 A 
HETATM    8  C   UNK N   1      23.438  18.320   4.647  0.00  0.00     0.018 A 
HETATM    9  C   UNK N   1      20.426  20.147   2.394  0.00  0.00     0.090 A 
HETATM   10  C   UNK N   1      24.021  20.451   2.924  0.00  0.00     0.054 A 
HETATM   11  C   UNK N   1      24.751  18.781   4.521  0.00  0.00     0.025 A 
HETATM   12  C   UNK N   1      25.041  19.846   3.662  0.00  0.00     0.036 A 
ENDROOT
BRANCH   4  13
HETATM   13  N   UNK N   1      20.766  17.345   4.781  0.00  0.00    -0.385 N 
HETATM   14  H   UNK N   1      21.158  17.209   5.674  0.00  0.00     0.160 HD
BRANCH  13  15
HETATM   15  C   UNK N   1      19.846  16.403   4.216  0.00  0.00     0.077 C 
HETATM   16  C   UNK N   1      18.853  15.827   5.212  0.00  0.00     0.032 C 
BRANCH  15  17
HETATM   17  C   UNK N   1      20.476  15.521   3.141  0.00  0.00     0.026 C 
BRANCH  17  18
HETATM   18  C   UNK N   1      21.798  14.889   3.530  0.00  0.00     0.032 C 
BRANCH  18  19
HETATM   19  C   UNK N   1      22.961  15.298   2.618  0.00  0.00     0.272 C 
BRANCH  19  20
HETATM   20  N   UNK N   1      23.604  14.135   1.991  0.00  0.00     0.087 N 
BRANCH  20  21
HETATM   21  C   UNK N   1      25.058  14.340   1.956  0.00  0.00     0.268 C 
HETATM   22  C   UNK N   1      25.446  15.572   2.750  0.00  0.00     0.037 C 
ENDBRANCH  20  21
BRANCH  20  23
HETATM   23  C   UNK N   1      22.990  13.977   0.663  0.00  0.00     0.268 C 
HETATM   24  C   UNK N   1      23.385  12.717  -0.100  0.00  0.00     0.037 C 
ENDBRANCH  20  23
ENDBRANCH  19  20
ENDBRANCH  18  19
ENDBRANCH  17  18
ENDBRANCH  15  17
ENDBRANCH  13  15
ENDBRANCH   4  13
TORSDOF 8
ENDMDL
MODEL 4
REMARK VINA RESULT:      -5.3      4.719      9.502
REMARK  8 active torsions:
REMARK  status: ('A' for Active; 'I' for Inactive)
REMARK    1  A    between atoms: N_2  and  C_9 
REMARK    2  A    between atoms: N_2  and  C_11 
REMARK    3  A    between atoms: N_2  and  C_12 
REMARK    4  A    between atoms: N_3  and  C_8 
REMARK    5  A    between atoms: N_3  and  C_13 
REMARK    6  A    between atoms: C_6  and  C_7 
REMARK    7  A    between atoms: C_6  and  C_8 
REMARK    8  A    between atoms: C_7  and  C_9 
ROOT
HETATM    1 Cl   UNK N   1      27.238  17.241   6.318  0.00  0.00    -0.084 Cl
HETATM    2  N   UNK N   1      32.201  17.307   5.088  0.00  0.00    -0.365 N 
ATOM      3  HN  UNK N   1      31.904  17.323   4.113  1.00  0.00     0.165 HD
HETATM    4  C   UNK N   1      33.015  17.264   7.736  0.00  0.00     0.042 A 
HETATM    5  C   UNK N   1      31.649  17.243   7.426  0.00  0.00     0.017 A 
HETATM    6  C   UNK N   1      33.958  17.315   6.707  0.00  0.00     0.047 A 
HETATM    7  C   UNK N   1      31.260  17.270   6.068  0.00  0.00     0.046 A 
HETATM    8  C   UNK N   1      30.672  17.230   8.430  0.00  0.00     0.018 A 
HETATM    9  C   UNK N   1      33.531  17.326   5.380  0.00  0.00     0.090 A 
HETATM   10  C   UNK N   1      29.903  17.274   5.735  0.00  0.00     0.054 A 
HETATM   11  C   UNK N   1      29.317  17.232   8.087  0.00  0.00     0.025 A 
HETATM   12  C   UNK N   1      28.935  17.252   6.742  0.00  0.00     0.036 A 
ENDROOT
BRANCH   4  13
HETATM   13  N   UNK N   1      33.443  17.342   9.075  0.00  0.00    -0.385 N 
HETATM   14  H   UNK N   1      33.232  18.123   9.637  0.00  0.00     0.160 HD
BRANCH  13  15
HETATM   15  C   UNK N   1      34.199  16.235   9.585  0.00  0.00     0.077 C 
HETATM   16  C   UNK N   1      33.380  14.977   9.821  0.00  0.00     0.032 C 
BRANCH  15  17
HETATM   17  C   UNK N   1      35.288  16.656  10.569  0.00  0.00     0.026 C 
BRANCH  17  18
HETATM   18  C   UNK N   1      35.654  15.607  11.600  0.00  0.00     0.032 C 
BRANCH  18  19
HETATM   19  C   UNK N   1      36.564  14.502  11.049  0.00  0.00     0.272 C 
BRANCH  19  20
HETATM   20  N   UNK N   1      36.687  13.374  11.984  0.00  0.00     0.087 N 
BRANCH  20  21
HETATM   21  C   UNK N   1      37.755  12.475  11.526  0.00  0.00     0.268 C 
HETATM   22  C   UNK N   1      38.552  13.114  10.405  0.00  0.00     0.037 C 
ENDBRANCH  20  21
BRANCH  20  23
HETATM   23  C   UNK N   1      35.362  12.739  12.057  0.00  0.00     0.268 C 
HETATM   24  C   UNK N   1      35.090  11.659  11.016  0.00  0.00     0.037 C 
ENDBRANCH  20  23
ENDBRANCH  19  20
ENDBRANCH  18  19
ENDBRANCH  17  18
ENDBRANCH  15  17
ENDBRANCH  13  15
ENDBRANCH   4  13
TORSDOF 8
ENDMDL
MODEL 5
REMARK VINA RESULT:      -5.3      6.665      8.366
REMARK  8 active torsions:
REMARK  status: ('A' for Active; 'I' for Inactive)
REMARK    1  A    between atoms: N_2  and  C_9 
REMARK    2  A    between atoms: N_2  and  C_11 
REMARK    3  A    between atoms: N_2  and  C_12 
REMARK    4  A    between atoms: N_3  and  C_8 
REMARK    5  A    between atoms: N_3  and  C_13 
REMARK    6  A    between atoms: C_6  and  C_7 
REMARK    7  A    between atoms: C_6  and  C_8 
REMARK    8  A    between atoms: C_7  and  C_9 
ROOT
HETATM    1 Cl   UNK N   1      22.742  11.913  11.235  0.00  0.00    -0.084 Cl
HETATM    2  N   UNK N   1      19.897  15.499   8.955  0.00  0.00    -0.365 N 
ATOM      3  HN  UNK N   1      19.313  15.490   9.791  1.00  0.00     0.165 HD
HETATM    4  C   UNK N   1      21.479  15.526   6.681  0.00  0.00     0.042 A 
HETATM    5  C   UNK N   1      21.788  14.656   7.735  0.00  0.00     0.017 A 
HETATM    6  C   UNK N   1      20.380  16.381   6.788  0.00  0.00     0.047 A 
HETATM    7  C   UNK N   1      20.968  14.664   8.885  0.00  0.00     0.046 A 
HETATM    8  C   UNK N   1      22.903  13.811   7.682  0.00  0.00     0.018 A 
HETATM    9  C   UNK N   1      19.588  16.347   7.935  0.00  0.00     0.090 A 
HETATM   10  C   UNK N   1      21.270  13.822   9.958  0.00  0.00     0.054 A 
HETATM   11  C   UNK N   1      23.196  12.970   8.760  0.00  0.00     0.025 A 
HETATM   12  C   UNK N   1      22.379  12.976   9.894  0.00  0.00     0.036 A 
ENDROOT
BRANCH   4  13
HETATM   13  N   UNK N   1      22.329  15.623   5.562  0.00  0.00    -0.385 N 
HETATM   14  H   UNK N   1      23.280  15.858   5.658  0.00  0.00     0.160 HD
BRANCH  13  15
HETATM   15  C   UNK N   1      21.748  15.365   4.277  0.00  0.00     0.077 C 
HETATM   16  C   UNK N   1      21.809  13.909   3.847  0.00  0.00     0.032 C 
BRANCH  15  17
HETATM   17  C   UNK N   1      21.991  16.488   3.273  0.00  0.00     0.026 C 
BRANCH  17  18
HETATM   18  C   UNK N   1      21.037  17.661   3.385  0.00  0.00     0.032 C 
BRANCH  18  19
HETATM   19  C   UNK N   1      21.649  18.880   4.086  0.00  0.00     0.272 C 
BRANCH  19  20
HETATM   20  N   UNK N   1      21.489  20.107   3.293  0.00  0.00     0.087 N 
BRANCH  20  21
HETATM   21  C   UNK N   1      20.456  19.896   2.269  0.00  0.00     0.268 C 
HETATM   22  C   UNK N   1      20.884  20.493   0.943  0.00  0.00     0.037 C 
ENDBRANCH  20  21
BRANCH  20  23
HETATM   23  C   UNK N   1      22.815  20.434   2.746  0.00  0.00     0.268 C 
HETATM   24  C   UNK N   1      24.003  19.873   3.520  0.00  0.00     0.037 C 
ENDBRANCH  20  23
ENDBRANCH  19  20
ENDBRANCH  18  19
ENDBRANCH  17  18
ENDBRANCH  15  17
ENDBRANCH  13  15
ENDBRANCH   4  13
TORSDOF 8
ENDMDL
MODEL 6
REMARK VINA RESULT:      -5.2     12.820     14.885
REMARK  8 active torsions:
REMARK  status: ('A' for Active; 'I' for Inactive)
REMARK    1  A    between atoms: N_2  and  C_9 
REMARK    2  A    between atoms: N_2  and  C_11 
REMARK    3  A    between atoms: N_2  and  C_12 
REMARK    4  A    between atoms: N_3  and  C_8 
REMARK    5  A    between atoms: N_3  and  C_13 
REMARK    6  A    between atoms: C_6  and  C_7 
REMARK    7  A    between atoms: C_6  and  C_8 
REMARK    8  A    between atoms: C_7  and  C_9 
ROOT
HETATM    1 Cl   UNK N   1      31.525  22.534  -3.631  0.00  0.00    -0.084 Cl
HETATM    2  N   UNK N   1      28.193  21.799  -7.440  0.00  0.00    -0.365 N 
ATOM      3  HN  UNK N   1      28.840  21.098  -7.800  1.00  0.00     0.165 HD
HETATM    4  C   UNK N   1      26.431  23.705  -6.471  0.00  0.00     0.042 A 
HETATM    5  C   UNK N   1      27.631  23.456  -5.793  0.00  0.00     0.017 A 
HETATM    6  C   UNK N   1      26.126  22.983  -7.627  0.00  0.00     0.047 A 
HETATM    7  C   UNK N   1      28.511  22.477  -6.306  0.00  0.00     0.046 A 
HETATM    8  C   UNK N   1      27.956  24.132  -4.610  0.00  0.00     0.018 A 
HETATM    9  C   UNK N   1      27.029  22.035  -8.107  0.00  0.00     0.090 A 
HETATM   10  C   UNK N   1      29.703  22.195  -5.634  0.00  0.00     0.054 A 
HETATM   11  C   UNK N   1      29.152  23.845  -3.946  0.00  0.00     0.025 A 
HETATM   12  C   UNK N   1      30.024  22.880  -4.459  0.00  0.00     0.036 A 
ENDROOT
BRANCH   4  13
HETATM   13  N   UNK N   1      25.481  24.597  -5.938  0.00  0.00    -0.385 N 
HETATM   14  H   UNK N   1      24.875  24.328  -5.210  0.00  0.00     0.160 HD
BRANCH  13  15
HETATM   15  C   UNK N   1      25.434  25.914  -6.502  0.00  0.00     0.077 C 
HETATM   16  C   UNK N   1      26.639  26.268  -7.358  0.00  0.00     0.032 C 
BRANCH  15  17
HETATM   17  C   UNK N   1      24.809  26.946  -5.566  0.00  0.00     0.026 C 
BRANCH  17  18
HETATM   18  C   UNK N   1      25.559  27.163  -4.267  0.00  0.00     0.032 C 
BRANCH  18  19
HETATM   19  C   UNK N   1      26.028  28.610  -4.067  0.00  0.00     0.272 C 
BRANCH  19  20
HETATM   20  N   UNK N   1      27.249  28.902  -4.832  0.00  0.00     0.087 N 
BRANCH  20  21
HETATM   21  C   UNK N   1      28.297  27.941  -4.462  0.00  0.00     0.268 C 
HETATM   22  C   UNK N   1      29.144  28.479  -3.326  0.00  0.00     0.037 C 
ENDBRANCH  20  21
BRANCH  20  23
HETATM   23  C   UNK N   1      27.598  30.303  -4.553  0.00  0.00     0.268 C 
HETATM   24  C   UNK N   1      26.618  31.062  -3.665  0.00  0.00     0.037 C 
ENDBRANCH  20  23
ENDBRANCH  19  20
ENDBRANCH  18  19
ENDBRANCH  17  18
ENDBRANCH  15  17
ENDBRANCH  13  15
ENDBRANCH   4  13
TORSDOF 8
ENDMDL
MODEL 7
REMARK VINA RESULT:      -5.2     12.104     15.073
REMARK  8 active torsions:
REMARK  status: ('A' for Active; 'I' for Inactive)
REMARK    1  A    between atoms: N_2  and  C_9 
REMARK    2  A    between atoms: N_2  and  C_11 
REMARK    3  A    between atoms: N_2  and  C_12 
REMARK    4  A    between atoms: N_3  and  C_8 
REMARK    5  A    between atoms: N_3  and  C_13 
REMARK    6  A    between atoms: C_6  and  C_7 
REMARK    7  A    between atoms: C_6  and  C_8 
REMARK    8  A    between atoms: C_7  and  C_9 
ROOT
HETATM    1 Cl   UNK N   1      25.899  27.504  -3.044  0.00  0.00    -0.084 Cl
HETATM    2  N   UNK N   1      25.745  26.128  -7.966  0.00  0.00    -0.365 N 
ATOM      3  HN  UNK N   1      25.489  27.093  -8.173  1.00  0.00     0.165 HD
HETATM    4  C   UNK N   1      26.437  23.503  -7.413  0.00  0.00     0.042 A 
HETATM    5  C   UNK N   1      26.302  24.424  -6.366  0.00  0.00     0.017 A 
HETATM    6  C   UNK N   1      26.230  23.917  -8.730  0.00  0.00     0.047 A 
HETATM    7  C   UNK N   1      25.952  25.757  -6.675  0.00  0.00     0.046 A 
HETATM    8  C   UNK N   1      26.537  24.058  -5.035  0.00  0.00     0.018 A 
HETATM    9  C   UNK N   1      25.872  25.239  -8.990  0.00  0.00     0.090 A 
HETATM   10  C   UNK N   1      25.834  26.699  -5.650  0.00  0.00     0.054 A 
HETATM   11  C   UNK N   1      26.415  25.006  -4.016  0.00  0.00     0.025 A 
HETATM   12  C   UNK N   1      26.063  26.324  -4.324  0.00  0.00     0.036 A 
ENDROOT
BRANCH   4  13
HETATM   13  N   UNK N   1      26.883  22.192  -7.158  0.00  0.00    -0.385 N 
HETATM   14  H   UNK N   1      26.354  21.566  -6.613  0.00  0.00     0.160 HD
BRANCH  13  15
HETATM   15  C   UNK N   1      28.143  21.810  -7.727  0.00  0.00     0.077 C 
HETATM   16  C   UNK N   1      28.199  20.368  -8.203  0.00  0.00     0.032 C 
BRANCH  15  17
HETATM   17  C   UNK N   1      29.337  22.448  -7.021  0.00  0.00     0.026 C 
BRANCH  17  18
HETATM   18  C   UNK N   1      30.135  21.505  -6.142  0.00  0.00     0.032 C 
BRANCH  18  19
HETATM   19  C   UNK N   1      29.879  21.705  -4.643  0.00  0.00     0.272 C 
BRANCH  19  20
HETATM   20  N   UNK N   1      30.990  21.200  -3.824  0.00  0.00     0.087 N 
BRANCH  20  21
HETATM   21  C   UNK N   1      31.333  22.197  -2.800  0.00  0.00     0.268 C 
HETATM   22  C   UNK N   1      30.105  22.979  -2.377  0.00  0.00     0.037 C 
ENDBRANCH  20  21
BRANCH  20  23
HETATM   23  C   UNK N   1      32.091  20.889  -4.748  0.00  0.00     0.268 C 
HETATM   24  C   UNK N   1      33.298  20.197  -4.126  0.00  0.00     0.037 C 
ENDBRANCH  20  23
ENDBRANCH  19  20
ENDBRANCH  18  19
ENDBRANCH  17  18
ENDBRANCH  15  17
ENDBRANCH  13  15
ENDBRANCH   4  13
TORSDOF 8
ENDMDL
MODEL 8
REMARK VINA RESULT:      -5.1      4.046      7.998
REMARK  8 active torsions:
REMARK  status: ('A' for Active; 'I' for Inactive)
REMARK    1  A    between atoms: N_2  and  C_9 
REMARK    2  A    between atoms: N_2  and  C_11 
REMARK    3  A    between atoms: N_2  and  C_12 
REMARK    4  A    between atoms: N_3  and  C_8 
REMARK    5  A    between atoms: N_3  and  C_13 
REMARK    6  A    between atoms: C_6  and  C_7 
REMARK    7  A    between atoms: C_6  and  C_8 
REMARK    8  A    between atoms: C_7  and  C_9 
ROOT
HETATM    1 Cl   UNK N   1      21.902  11.936  11.018  0.00  0.00    -0.084 Cl
HETATM    2  N   UNK N   1      20.016  16.170   8.857  0.00  0.00    -0.365 N 
ATOM      3  HN  UNK N   1      19.356  16.208   9.634  1.00  0.00     0.165 HD
HETATM    4  C   UNK N   1      21.804  16.071   6.743  0.00  0.00     0.042 A 
HETATM    5  C   UNK N   1      21.837  15.079   7.731  0.00  0.00     0.017 A 
HETATM    6  C   UNK N   1      20.875  17.110   6.836  0.00  0.00     0.047 A 
HETATM    7  C   UNK N   1      20.917  15.153   8.800  0.00  0.00     0.046 A 
HETATM    8  C   UNK N   1      22.778  14.041   7.694  0.00  0.00     0.018 A 
HETATM    9  C   UNK N   1      19.976  17.139   7.901  0.00  0.00     0.090 A 
HETATM   10  C   UNK N   1      20.946  14.187   9.809  0.00  0.00     0.054 A 
HETATM   11  C   UNK N   1      22.797  13.078   8.706  0.00  0.00     0.025 A 
HETATM   12  C   UNK N   1      21.882  13.151   9.760  0.00  0.00     0.036 A 
ENDROOT
BRANCH   4  13
HETATM   13  N   UNK N   1      22.769  16.091   5.718  0.00  0.00    -0.385 N 
HETATM   14  H   UNK N   1      23.443  15.379   5.633  0.00  0.00     0.160 HD
BRANCH  13  15
HETATM   15  C   UNK N   1      22.726  17.194   4.802  0.00  0.00     0.077 C 
HETATM   16  C   UNK N   1      22.156  16.849   3.437  0.00  0.00     0.032 C 
BRANCH  15  17
HETATM   17  C   UNK N   1      23.925  18.131   4.936  0.00  0.00     0.026 C 
BRANCH  17  18
HETATM   18  C   UNK N   1      25.276  17.452   4.835  0.00  0.00     0.032 C 
BRANCH  18  19
HETATM   19  C   UNK N   1      26.416  18.414   4.474  0.00  0.00     0.272 C 
BRANCH  19  20
HETATM   20  N   UNK N   1      26.831  19.231   5.623  0.00  0.00     0.087 N 
BRANCH  20  21
HETATM   21  C   UNK N   1      26.857  20.647   5.231  0.00  0.00     0.268 C 
HETATM   22  C   UNK N   1      26.692  21.543   6.442  0.00  0.00     0.037 C 
ENDBRANCH  20  21
BRANCH  20  23
HETATM   23  C   UNK N   1      28.133  18.709   6.066  0.00  0.00     0.268 C 
HETATM   24  C   UNK N   1      28.184  18.199   7.502  0.00  0.00     0.037 C 
ENDBRANCH  20  23
ENDBRANCH  19  20
ENDBRANCH  18  19
ENDBRANCH  17  18
ENDBRANCH  15  17
ENDBRANCH  13  15
ENDBRANCH   4  13
TORSDOF 8
ENDMDL
MODEL 9
REMARK VINA RESULT:      -5.1     11.272     13.448
REMARK  8 active torsions:
REMARK  status: ('A' for Active; 'I' for Inactive)
REMARK    1  A    between atoms: N_2  and  C_9 
REMARK    2  A    between atoms: N_2  and  C_11 
REMARK    3  A    between atoms: N_2  and  C_12 
REMARK    4  A    between atoms: N_3  and  C_8 
REMARK    5  A    between atoms: N_3  and  C_13 
REMARK    6  A    between atoms: C_6  and  C_7 
REMARK    7  A    between atoms: C_6  and  C_8 
REMARK    8  A    between atoms: C_7  and  C_9 
ROOT
HETATM    1 Cl   UNK N   1      32.809  19.815  -5.521  0.00  0.00    -0.084 Cl
HETATM    2  N   UNK N   1      29.782  22.521  -2.412  0.00  0.00    -0.365 N 
ATOM      3  HN  UNK N   1      30.314  22.125  -1.637  1.00  0.00     0.165 HD
HETATM    4  C   UNK N   1      28.332  23.599  -4.512  0.00  0.00     0.042 A 
HETATM    5  C   UNK N   1      29.372  22.699  -4.773  0.00  0.00     0.017 A 
HETATM    6  C   UNK N   1      28.038  23.954  -3.193  0.00  0.00     0.047 A 
HETATM    7  C   UNK N   1      30.099  22.166  -3.685  0.00  0.00     0.046 A 
HETATM    8  C   UNK N   1      29.723  22.346  -6.082  0.00  0.00     0.018 A 
HETATM    9  C   UNK N   1      28.771  23.394  -2.148  0.00  0.00     0.090 A 
HETATM   10  C   UNK N   1      31.157  21.284  -3.922  0.00  0.00     0.054 A 
HETATM   11  C   UNK N   1      30.781  21.462  -6.310  0.00  0.00     0.025 A 
HETATM   12  C   UNK N   1      31.494  20.931  -5.231  0.00  0.00     0.036 A 
ENDROOT
BRANCH   4  13
HETATM   13  N   UNK N   1      27.651  24.231  -5.570  0.00  0.00    -0.385 N 
HETATM   14  H   UNK N   1      28.118  24.830  -6.196  0.00  0.00     0.160 HD
BRANCH  13  15
HETATM   15  C   UNK N   1      26.248  23.964  -5.695  0.00  0.00     0.077 C 
HETATM   16  C   UNK N   1      25.906  22.904  -6.728  0.00  0.00     0.032 C 
BRANCH  15  17
HETATM   17  C   UNK N   1      25.384  25.214  -5.541  0.00  0.00     0.026 C 
BRANCH  17  18
HETATM   18  C   UNK N   1      26.142  26.524  -5.614  0.00  0.00     0.032 C 
BRANCH  18  19
HETATM   19  C   UNK N   1      25.990  27.387  -4.354  0.00  0.00     0.272 C 
BRANCH  19  20
HETATM   20  N   UNK N   1      27.276  27.599  -3.675  0.00  0.00     0.087 N 
BRANCH  20  21
HETATM   21  C   UNK N   1      27.217  28.843  -2.895  0.00  0.00     0.268 C 
HETATM   22  C   UNK N   1      26.486  29.925  -3.664  0.00  0.00     0.037 C 
ENDBRANCH  20  21
BRANCH  20  23
HETATM   23  C   UNK N   1      28.312  27.597  -4.719  0.00  0.00     0.268 C 
HETATM   24  C   UNK N   1      29.692  27.123  -4.277  0.00  0.00     0.037 C 
ENDBRANCH  20  23
ENDBRANCH  19  20
ENDBRANCH  18  19
ENDBRANCH  17  18
ENDBRANCH  15  17
ENDBRANCH  13  15
ENDBRANCH   4  13
TORSDOF 8
ENDMDL
