MODEL 1
REMARK VINA RESULT:      -6.2      0.000      0.000
REMARK  4 active torsions:
REMARK  status: ('A' for Active; 'I' for Inactive)
REMARK    1  A    between atoms: N_3  and  C_6 
REMARK    2  A    between atoms: C_6  and  C_10 
REMARK    3  A    between atoms: C_6  and  C_18 
REMARK    4  A    between atoms: C_18  and  O_20 
ROOT
HETATM    1  C   UNK N   1      20.377  15.728   7.322  0.00  0.00     0.356 C 
ENDROOT
BRANCH   1   2
HETATM    2  N   UNK N   1      21.498  15.035   8.020  0.00  0.00     0.111 N 
HETATM    3  C   UNK N   1      22.365  14.281   7.094  0.00  0.00     0.279 C 
HETATM    4  C   UNK N   1      23.651  13.816   7.806  0.00  0.00     0.077 C 
HETATM    5  C   UNK N   1      23.286  13.214   9.123  0.00  0.00    -0.008 A 
HETATM    6  S   UNK N   1      24.212  12.323  10.155  0.00  0.00    -0.106 SA
HETATM    7  C   UNK N   1      22.030  13.314   9.689  0.00  0.00    -0.017 A 
HETATM    8  C   UNK N   1      23.084  12.007  11.344  0.00  0.00     0.051 A 
HETATM    9  C   UNK N   1      21.896  12.637  10.930  0.00  0.00     0.017 A 
HETATM   10  C   UNK N   1      20.945  14.078   9.005  0.00  0.00     0.313 C 
ENDBRANCH   1   2
BRANCH   1  11
HETATM   11  C   UNK N   1      20.808  16.551   6.091  0.00  0.00     0.006 A 
HETATM   12  C   UNK N   1      20.182  16.348   4.831  0.00  0.00     0.043 A 
HETATM   13 Cl   UNK N   1      18.893  15.170   4.604  0.00  0.00    -0.084 Cl
HETATM   14  C   UNK N   1      20.595  17.081   3.714  0.00  0.00     0.024 A 
HETATM   15  C   UNK N   1      21.624  18.016   3.822  0.00  0.00     0.002 A 
HETATM   16  C   UNK N   1      22.244  18.230   5.051  0.00  0.00     0.001 A 
HETATM   17  C   UNK N   1      21.837  17.507   6.176  0.00  0.00     0.011 A 
ENDBRANCH   1  11
BRANCH   1  18
HETATM   18  C   UNK N   1      19.633  16.614   8.321  0.00  0.00     0.297 C 
HETATM   19  O   UNK N   1      20.241  17.436   9.001  0.00  0.00    -0.262 OA
BRANCH  18  20
HETATM   20  O   UNK N   1      18.289  16.489   8.454  0.00  0.00    -0.325 OA
HETATM   21  C   UNK N   1      17.556  17.223   9.357  0.00  0.00     0.213 C 
ENDBRANCH  18  20
ENDBRANCH   1  18
TORSDOF 4
ENDMDL
MODEL 2
REMARK VINA RESULT:      -6.2     10.609     12.943
REMARK  4 active torsions:
REMARK  status: ('A' for Active; 'I' for Inactive)
REMARK    1  A    between atoms: N_3  and  C_6 
REMARK    2  A    between atoms: C_6  and  C_10 
REMARK    3  A    between atoms: C_6  and  C_18 
REMARK    4  A    between atoms: C_18  and  O_20 
ROOT
HETATM    1  C   UNK N   1      33.346  16.047   7.523  0.00  0.00     0.356 C 
ENDROOT
BRANCH   1   2
HETATM    2  N   UNK N   1      32.108  16.877   7.573  0.00  0.00     0.111 N 
HETATM    3  C   UNK N   1      31.254  16.555   8.733  0.00  0.00     0.279 C 
HETATM    4  C   UNK N   1      30.141  17.608   8.902  0.00  0.00     0.077 C 
HETATM    5  C   UNK N   1      29.508  17.862   7.573  0.00  0.00    -0.008 A 
HETATM    6  S   UNK N   1      28.114  18.667   7.218  0.00  0.00    -0.106 SA
HETATM    7  C   UNK N   1      30.030  17.411   6.377  0.00  0.00    -0.017 A 
HETATM    8  C   UNK N   1      28.091  18.474   5.561  0.00  0.00     0.051 A 
HETATM    9  C   UNK N   1      29.245  17.738   5.239  0.00  0.00     0.017 A 
HETATM   10  C   UNK N   1      31.312  16.646   6.346  0.00  0.00     0.313 C 
ENDBRANCH   1   2
BRANCH   1  11
HETATM   11  C   UNK N   1      34.013  15.819   8.894  0.00  0.00     0.006 A 
HETATM   12  C   UNK N   1      33.902  14.564   9.552  0.00  0.00     0.043 A 
HETATM   13 Cl   UNK N   1      33.017  13.214   8.850  0.00  0.00    -0.084 Cl
HETATM   14  C   UNK N   1      34.489  14.373  10.806  0.00  0.00     0.024 A 
HETATM   15  C   UNK N   1      35.188  15.408  11.425  0.00  0.00     0.002 A 
HETATM   16  C   UNK N   1      35.311  16.642  10.791  0.00  0.00     0.001 A 
HETATM   17  C   UNK N   1      34.732  16.844   9.535  0.00  0.00     0.011 A 
ENDBRANCH   1  11
BRANCH   1  18
HETATM   18  C   UNK N   1      34.337  16.682   6.546  0.00  0.00     0.297 C 
HETATM   19  O   UNK N   1      34.416  17.902   6.441  0.00  0.00    -0.262 OA
BRANCH  18  20
HETATM   20  O   UNK N   1      35.136  15.885   5.793  0.00  0.00    -0.325 OA
HETATM   21  C   UNK N   1      34.678  14.750   5.164  0.00  0.00     0.213 C 
ENDBRANCH  18  20
ENDBRANCH   1  18
TORSDOF 4
ENDMDL
MODEL 3
REMARK VINA RESULT:      -6.1     16.795     17.705
REMARK  4 active torsions:
REMARK  status: ('A' for Active; 'I' for Inactive)
REMARK    1  A    between atoms: N_3  and  C_6 
REMARK    2  A    between atoms: C_6  and  C_10 
REMARK    3  A    between atoms: C_6  and  C_18 
REMARK    4  A    between atoms: C_18  and  O_20 
ROOT
HETATM    1  C   UNK N   1      27.184  25.367  -5.833  0.00  0.00     0.356 C 
ENDROOT
BRANCH   1   2
HETATM    2  N   UNK N   1      28.088  24.489  -5.035  0.00  0.00     0.111 N 
HETATM    3  C   UNK N   1      29.216  25.229  -4.437  0.00  0.00     0.279 C 
HETATM    4  C   UNK N   1      29.959  24.355  -3.408  0.00  0.00     0.077 C 
HETATM    5  C   UNK N   1      30.199  23.005  -4.001  0.00  0.00    -0.008 A 
HETATM    6  S   UNK N   1      31.174  21.788  -3.465  0.00  0.00    -0.106 SA
HETATM    7  C   UNK N   1      29.610  22.567  -5.171  0.00  0.00    -0.017 A 
HETATM    8  C   UNK N   1      30.918  20.669  -4.677  0.00  0.00     0.051 A 
HETATM    9  C   UNK N   1      30.008  21.263  -5.569  0.00  0.00     0.017 A 
HETATM   10  C   UNK N   1      28.649  23.436  -5.912  0.00  0.00     0.313 C 
ENDBRANCH   1   2
BRANCH   1  11
HETATM   11  C   UNK N   1      26.825  26.700  -5.147  0.00  0.00     0.006 A 
HETATM   12  C   UNK N   1      27.159  27.939  -5.757  0.00  0.00     0.043 A 
HETATM   13 Cl   UNK N   1      27.982  28.027  -7.311  0.00  0.00    -0.084 Cl
HETATM   14  C   UNK N   1      26.852  29.144  -5.117  0.00  0.00     0.024 A 
HETATM   15  C   UNK N   1      26.218  29.144  -3.876  0.00  0.00     0.002 A 
HETATM   16  C   UNK N   1      25.879  27.937  -3.267  0.00  0.00     0.001 A 
HETATM   17  C   UNK N   1      26.176  26.727  -3.899  0.00  0.00     0.011 A 
ENDBRANCH   1  11
BRANCH   1  18
HETATM   18  C   UNK N   1      25.914  24.591  -6.187  0.00  0.00     0.297 C 
HETATM   19  O   UNK N   1      25.346  23.904  -5.344  0.00  0.00    -0.262 OA
BRANCH  18  20
HETATM   20  O   UNK N   1      25.415  24.667  -7.446  0.00  0.00    -0.325 OA
HETATM   21  C   UNK N   1      26.150  25.123  -8.515  0.00  0.00     0.213 C 
ENDBRANCH  18  20
ENDBRANCH   1  18
TORSDOF 4
ENDMDL
MODEL 4
REMARK VINA RESULT:      -6.0      3.314      5.984
REMARK  4 active torsions:
REMARK  status: ('A' for Active; 'I' for Inactive)
REMARK    1  A    between atoms: N_3  and  C_6 
REMARK    2  A    between atoms: C_6  and  C_10 
REMARK    3  A    between atoms: C_6  and  C_18 
REMARK    4  A    between atoms: C_18  and  O_20 
ROOT
HETATM    1  C   UNK N   1      21.575  14.003   8.372  0.00  0.00     0.356 C 
ENDROOT
BRANCH   1   2
HETATM    2  N   UNK N   1      20.918  13.099   7.385  0.00  0.00     0.111 N 
HETATM    3  C   UNK N   1      21.829  12.057   6.873  0.00  0.00     0.279 C 
HETATM    4  C   UNK N   1      21.049  10.990   6.081  0.00  0.00     0.077 C 
HETATM    5  C   UNK N   1      20.113  11.673   5.138  0.00  0.00    -0.008 A 
HETATM    6  S   UNK N   1      19.255  11.042   3.879  0.00  0.00    -0.106 SA
HETATM    7  C   UNK N   1      19.831  13.024   5.184  0.00  0.00    -0.017 A 
HETATM    8  C   UNK N   1      18.509  12.429   3.325  0.00  0.00     0.051 A 
HETATM    9  C   UNK N   1      18.939  13.467   4.171  0.00  0.00     0.017 A 
HETATM   10  C   UNK N   1      20.444  13.895   6.230  0.00  0.00     0.313 C 
ENDBRANCH   1   2
BRANCH   1  11
HETATM   11  C   UNK N   1      22.302  13.271   9.518  0.00  0.00     0.006 A 
HETATM   12  C   UNK N   1      23.717  13.139   9.508  0.00  0.00     0.043 A 
HETATM   13 Cl   UNK N   1      24.710  13.799   8.213  0.00  0.00    -0.084 Cl
HETATM   14  C   UNK N   1      24.366  12.452  10.538  0.00  0.00     0.024 A 
HETATM   15  C   UNK N   1      23.636  11.889  11.584  0.00  0.00     0.002 A 
HETATM   16  C   UNK N   1      22.249  12.015  11.611  0.00  0.00     0.001 A 
HETATM   17  C   UNK N   1      21.588  12.702  10.589  0.00  0.00     0.011 A 
ENDBRANCH   1  11
BRANCH   1  18
HETATM   18  C   UNK N   1      20.536  14.974   8.935  0.00  0.00     0.297 C 
HETATM   19  O   UNK N   1      19.473  14.559   9.387  0.00  0.00    -0.262 OA
BRANCH  18  20
HETATM   20  O   UNK N   1      20.796  16.305   8.933  0.00  0.00    -0.325 OA
HETATM   21  C   UNK N   1      19.813  17.258   8.801  0.00  0.00     0.213 C 
ENDBRANCH  18  20
ENDBRANCH   1  18
TORSDOF 4
ENDMDL
MODEL 5
REMARK VINA RESULT:      -6.0     15.738     17.713
REMARK  4 active torsions:
REMARK  status: ('A' for Active; 'I' for Inactive)
REMARK    1  A    between atoms: N_3  and  C_6 
REMARK    2  A    between atoms: C_6  and  C_10 
REMARK    3  A    between atoms: C_6  and  C_18 
REMARK    4  A    between atoms: C_18  and  O_20 
ROOT
HETATM    1  C   UNK N   1      36.720  13.426  14.195  0.00  0.00     0.356 C 
ENDROOT
BRANCH   1   2
HETATM    2  N   UNK N   1      36.950  12.029  13.725  0.00  0.00     0.111 N 
HETATM    3  C   UNK N   1      38.001  11.335  14.495  0.00  0.00     0.279 C 
HETATM    4  C   UNK N   1      38.013   9.829  14.168  0.00  0.00     0.077 C 
HETATM    5  C   UNK N   1      37.953   9.653  12.686  0.00  0.00    -0.008 A 
HETATM    6  S   UNK N   1      38.212   8.298  11.785  0.00  0.00    -0.106 SA
HETATM    7  C   UNK N   1      37.668  10.678  11.805  0.00  0.00    -0.017 A 
HETATM    8  C   UNK N   1      37.999   8.932  10.256  0.00  0.00     0.051 A 
HETATM    9  C   UNK N   1      37.697  10.293  10.438  0.00  0.00     0.017 A 
HETATM   10  C   UNK N   1      37.367  12.052  12.305  0.00  0.00     0.313 C 
ENDBRANCH   1   2
BRANCH   1  11
HETATM   11  C   UNK N   1      36.199  13.531  15.642  0.00  0.00     0.006 A 
HETATM   12  C   UNK N   1      36.528  14.654  16.450  0.00  0.00     0.043 A 
HETATM   13 Cl   UNK N   1      37.529  15.974  15.854  0.00  0.00    -0.084 Cl
HETATM   14  C   UNK N   1      36.072  14.730  17.769  0.00  0.00     0.024 A 
HETATM   15  C   UNK N   1      35.291  13.709  18.308  0.00  0.00     0.002 A 
HETATM   16  C   UNK N   1      34.955  12.604  17.527  0.00  0.00     0.001 A 
HETATM   17  C   UNK N   1      35.401  12.518  16.206  0.00  0.00     0.011 A 
ENDBRANCH   1  11
BRANCH   1  18
HETATM   18  C   UNK N   1      35.764  14.130  13.232  0.00  0.00     0.297 C 
HETATM   19  O   UNK N   1      34.666  13.647  12.976  0.00  0.00    -0.262 OA
BRANCH  18  20
HETATM   20  O   UNK N   1      36.138  15.301  12.657  0.00  0.00    -0.325 OA
HETATM   21  C   UNK N   1      35.665  15.717  11.435  0.00  0.00     0.213 C 
ENDBRANCH  18  20
ENDBRANCH   1  18
TORSDOF 4
ENDMDL
MODEL 6
REMARK VINA RESULT:      -5.8      7.660      9.023
REMARK  4 active torsions:
REMARK  status: ('A' for Active; 'I' for Inactive)
REMARK    1  A    between atoms: N_3  and  C_6 
REMARK    2  A    between atoms: C_6  and  C_10 
REMARK    3  A    between atoms: C_6  and  C_18 
REMARK    4  A    between atoms: C_18  and  O_20 
ROOT
HETATM    1  C   UNK N   1      28.308  17.525   6.843  0.00  0.00     0.356 C 
ENDROOT
BRANCH   1   2
HETATM    2  N   UNK N   1      29.749  17.488   6.463  0.00  0.00     0.111 N 
HETATM    3  C   UNK N   1      29.950  17.296   5.013  0.00  0.00     0.279 C 
HETATM    4  C   UNK N   1      31.422  17.540   4.628  0.00  0.00     0.077 C 
HETATM    5  C   UNK N   1      32.303  16.815   5.593  0.00  0.00    -0.008 A 
HETATM    6  S   UNK N   1      33.919  16.504   5.500  0.00  0.00    -0.106 SA
HETATM    7  C   UNK N   1      31.849  16.253   6.770  0.00  0.00    -0.017 A 
HETATM    8  C   UNK N   1      34.120  15.639   6.913  0.00  0.00     0.051 A 
HETATM    9  C   UNK N   1      32.852  15.582   7.519  0.00  0.00     0.017 A 
HETATM   10  C   UNK N   1      30.414  16.368   7.166  0.00  0.00     0.313 C 
ENDBRANCH   1   2
BRANCH   1  11
HETATM   11  C   UNK N   1      27.468  18.549   6.054  0.00  0.00     0.006 A 
HETATM   12  C   UNK N   1      26.415  18.118   5.202  0.00  0.00     0.043 A 
HETATM   13 Cl   UNK N   1      26.007  16.416   5.006  0.00  0.00    -0.084 Cl
HETATM   14  C   UNK N   1      25.675  19.051   4.470  0.00  0.00     0.024 A 
HETATM   15  C   UNK N   1      25.960  20.412   4.566  0.00  0.00     0.002 A 
HETATM   16  C   UNK N   1      26.985  20.852   5.401  0.00  0.00     0.001 A 
HETATM   17  C   UNK N   1      27.729  19.929   6.140  0.00  0.00     0.011 A 
ENDBRANCH   1  11
BRANCH   1  18
HETATM   18  C   UNK N   1      28.190  17.785   8.346  0.00  0.00     0.297 C 
HETATM   19  O   UNK N   1      27.510  17.051   9.056  0.00  0.00    -0.262 OA
BRANCH  18  20
HETATM   20  O   UNK N   1      28.847  18.837   8.895  0.00  0.00    -0.325 OA
HETATM   21  C   UNK N   1      29.761  18.698   9.913  0.00  0.00     0.213 C 
ENDBRANCH  18  20
ENDBRANCH   1  18
TORSDOF 4
ENDMDL
MODEL 7
REMARK VINA RESULT:      -5.6     10.265     11.557
REMARK  4 active torsions:
REMARK  status: ('A' for Active; 'I' for Inactive)
REMARK    1  A    between atoms: N_3  and  C_6 
REMARK    2  A    between atoms: C_6  and  C_10 
REMARK    3  A    between atoms: C_6  and  C_18 
REMARK    4  A    between atoms: C_18  and  O_20 
ROOT
HETATM    1  C   UNK N   1      31.314  16.081   7.127  0.00  0.00     0.356 C 
ENDROOT
BRANCH   1   2
HETATM    2  N   UNK N   1      32.358  16.370   8.151  0.00  0.00     0.111 N 
HETATM    3  C   UNK N   1      33.565  16.993   7.574  0.00  0.00     0.279 C 
HETATM    4  C   UNK N   1      34.491  17.525   8.685  0.00  0.00     0.077 C 
HETATM    5  C   UNK N   1      34.640  16.473   9.736  0.00  0.00    -0.008 A 
HETATM    6  S   UNK N   1      35.712  16.392  10.986  0.00  0.00    -0.106 SA
HETATM    7  C   UNK N   1      33.858  15.337   9.798  0.00  0.00    -0.017 A 
HETATM    8  C   UNK N   1      35.259  14.929  11.650  0.00  0.00     0.051 A 
HETATM    9  C   UNK N   1      34.196  14.456  10.860  0.00  0.00     0.017 A 
HETATM   10  C   UNK N   1      32.768  15.106   8.804  0.00  0.00     0.313 C 
ENDBRANCH   1   2
BRANCH   1  11
HETATM   11  C   UNK N   1      31.802  16.203   5.670  0.00  0.00     0.006 A 
HETATM   12  C   UNK N   1      32.251  15.056   4.959  0.00  0.00     0.043 A 
HETATM   13 Cl   UNK N   1      32.267  13.452   5.685  0.00  0.00    -0.084 Cl
HETATM   14  C   UNK N   1      32.715  15.179   3.647  0.00  0.00     0.024 A 
HETATM   15  C   UNK N   1      32.746  16.424   3.020  0.00  0.00     0.002 A 
HETATM   16  C   UNK N   1      32.306  17.557   3.701  0.00  0.00     0.001 A 
HETATM   17  C   UNK N   1      31.835  17.446   5.012  0.00  0.00     0.011 A 
ENDBRANCH   1  11
BRANCH   1  18
HETATM   18  C   UNK N   1      30.110  16.995   7.363  0.00  0.00     0.297 C 
HETATM   19  O   UNK N   1      29.033  16.760   6.825  0.00  0.00    -0.262 OA
BRANCH  18  20
HETATM   20  O   UNK N   1      30.239  18.072   8.177  0.00  0.00    -0.325 OA
HETATM   21  C   UNK N   1      29.431  18.283   9.270  0.00  0.00     0.213 C 
ENDBRANCH  18  20
ENDBRANCH   1  18
TORSDOF 4
ENDMDL
MODEL 8
REMARK VINA RESULT:      -5.6     15.306     17.166
REMARK  4 active torsions:
REMARK  status: ('A' for Active; 'I' for Inactive)
REMARK    1  A    between atoms: N_3  and  C_6 
REMARK    2  A    between atoms: C_6  and  C_10 
REMARK    3  A    between atoms: C_6  and  C_18 
REMARK    4  A    between atoms: C_18  and  O_20 
ROOT
HETATM    1  C   UNK N   1      36.432  13.743  12.855  0.00  0.00     0.356 C 
ENDROOT
BRANCH   1   2
HETATM    2  N   UNK N   1      36.839  12.659  11.916  0.00  0.00     0.111 N 
HETATM    3  C   UNK N   1      37.625  11.599  12.577  0.00  0.00     0.279 C 
HETATM    4  C   UNK N   1      37.784  10.377  11.651  0.00  0.00     0.077 C 
HETATM    5  C   UNK N   1      38.186  10.849  10.291  0.00  0.00    -0.008 A 
HETATM    6  S   UNK N   1      38.752   9.978   9.011  0.00  0.00    -0.106 SA
HETATM    7  C   UNK N   1      38.153  12.172   9.899  0.00  0.00    -0.017 A 
HETATM    8  C   UNK N   1      38.997  11.215   7.917  0.00  0.00     0.051 A 
HETATM    9  C   UNK N   1      38.611  12.398   8.574  0.00  0.00     0.017 A 
HETATM   10  C   UNK N   1      37.670  13.232  10.833  0.00  0.00     0.313 C 
ENDBRANCH   1   2
BRANCH   1  11
HETATM   11  C   UNK N   1      35.819  13.242  14.178  0.00  0.00     0.006 A 
HETATM   12  C   UNK N   1      36.189  13.835  15.416  0.00  0.00     0.043 A 
HETATM   13 Cl   UNK N   1      37.343  15.160  15.512  0.00  0.00    -0.084 Cl
HETATM   14  C   UNK N   1      35.647  13.358  16.613  0.00  0.00     0.024 A 
HETATM   15  C   UNK N   1      34.741  12.298  16.608  0.00  0.00     0.002 A 
HETATM   16  C   UNK N   1      34.365  11.710  15.402  0.00  0.00     0.001 A 
HETATM   17  C   UNK N   1      34.896  12.180  14.198  0.00  0.00     0.011 A 
ENDBRANCH   1  11
BRANCH   1  18
HETATM   18  C   UNK N   1      35.463  14.688  12.143  0.00  0.00     0.297 C 
HETATM   19  O   UNK N   1      34.345  14.304  11.812  0.00  0.00    -0.262 OA
BRANCH  18  20
HETATM   20  O   UNK N   1      35.846  15.962  11.878  0.00  0.00    -0.325 OA
HETATM   21  C   UNK N   1      35.492  16.623  10.725  0.00  0.00     0.213 C 
ENDBRANCH  18  20
ENDBRANCH   1  18
TORSDOF 4
ENDMDL
MODEL 9
REMARK VINA RESULT:      -5.6      7.699      9.010
REMARK  4 active torsions:
REMARK  status: ('A' for Active; 'I' for Inactive)
REMARK    1  A    between atoms: N_3  and  C_6 
REMARK    2  A    between atoms: C_6  and  C_10 
REMARK    3  A    between atoms: C_6  and  C_18 
REMARK    4  A    between atoms: C_18  and  O_20 
ROOT
HETATM    1  C   UNK N   1      28.719  16.977   4.563  0.00  0.00     0.356 C 
ENDROOT
BRANCH   1   2
HETATM    2  N   UNK N   1      30.070  17.338   5.082  0.00  0.00     0.111 N 
HETATM    3  C   UNK N   1      31.162  16.763   4.273  0.00  0.00     0.279 C 
HETATM    4  C   UNK N   1      32.519  17.378   4.669  0.00  0.00     0.077 C 
HETATM    5  C   UNK N   1      32.633  17.383   6.159  0.00  0.00    -0.008 A 
HETATM    6  S   UNK N   1      33.955  17.663   7.102  0.00  0.00    -0.106 SA
HETATM    7  C   UNK N   1      31.577  17.119   7.008  0.00  0.00    -0.017 A 
HETATM    8  C   UNK N   1      33.274  17.449   8.611  0.00  0.00     0.051 A 
HETATM    9  C   UNK N   1      31.919  17.144   8.386  0.00  0.00     0.017 A 
HETATM   10  C   UNK N   1      30.216  16.834   6.466  0.00  0.00     0.313 C 
ENDBRANCH   1   2
BRANCH   1  11
HETATM   11  C   UNK N   1      27.752  18.170   4.425  0.00  0.00     0.006 A 
HETATM   12  C   UNK N   1      26.550  18.043   3.678  0.00  0.00     0.043 A 
HETATM   13 Cl   UNK N   1      26.095  16.538   2.885  0.00  0.00    -0.084 Cl
HETATM   14  C   UNK N   1      25.691  19.136   3.536  0.00  0.00     0.024 A 
HETATM   15  C   UNK N   1      26.002  20.362   4.123  0.00  0.00     0.002 A 
HETATM   16  C   UNK N   1      27.175  20.501   4.863  0.00  0.00     0.001 A 
HETATM   17  C   UNK N   1      28.039  19.415   5.015  0.00  0.00     0.011 A 
ENDBRANCH   1  11
BRANCH   1  18
HETATM   18  C   UNK N   1      28.109  15.898   5.458  0.00  0.00     0.297 C 
HETATM   19  O   UNK N   1      28.379  14.714   5.282  0.00  0.00    -0.262 OA
BRANCH  18  20
HETATM   20  O   UNK N   1      27.263  16.257   6.456  0.00  0.00    -0.325 OA
HETATM   21  C   UNK N   1      26.145  15.526   6.786  0.00  0.00     0.213 C 
ENDBRANCH  18  20
ENDBRANCH   1  18
TORSDOF 4
ENDMDL
