MODEL 1
REMARK VINA RESULT:      -6.6      0.000      0.000
REMARK  6 active torsions:
REMARK  status: ('A' for Active; 'I' for Inactive)
REMARK    1  A    between atoms: O_1  and  C_22 
REMARK    2  A    between atoms: C_6  and  C_11 
REMARK    3  A    between atoms: C_13  and  C_14 
REMARK    4  A    between atoms: C_16  and  C_17 
REMARK    5  A    between atoms: C_18  and  C_19 
REMARK    6  A    between atoms: C_21  and  C_22 
ROOT
HETATM    1  C   UNK N   1      34.154   7.505  19.168  0.00  0.00    -0.062 C 
HETATM    2  C   UNK N   1      35.383   6.680  19.310  0.00  0.00     0.048 C 
HETATM    3  C   UNK N   1      33.009   6.962  19.602  0.00  0.00     0.007 C 
ENDROOT
BRANCH   1   4
HETATM    4  C   UNK N   1      34.324   8.847  18.571  0.00  0.00     0.007 C 
HETATM    5  C   UNK N   1      35.451   9.552  18.442  0.00  0.00     0.009 C 
BRANCH   5   6
HETATM    6  C   UNK N   1      35.436  10.902  17.788  0.00  0.00    -0.048 C 
HETATM    7  C   UNK N   1      35.591  11.025  16.257  0.00  0.00    -0.020 C 
HETATM    8  C   UNK N   1      35.698  12.470  15.765  0.00  0.00     0.014 C 
HETATM    9  C   UNK N   1      34.405  10.368  15.567  0.00  0.00     0.020 C 
HETATM   10  C   UNK N   1      36.866  10.340  15.792  0.00  0.00     0.020 C 
HETATM   11  C   UNK N   1      34.745  13.374  16.511  0.00  0.00     0.005 C 
HETATM   12  C   UNK N   1      35.181  13.396  17.967  0.00  0.00     0.034 C 
HETATM   13  C   UNK N   1      35.259  12.011  18.560  0.00  0.00    -0.077 C 
HETATM   14  C   UNK N   1      35.109  11.900  20.045  0.00  0.00     0.044 C 
ENDBRANCH   5   6
ENDBRANCH   1   4
BRANCH   3  15
HETATM   15  C   UNK N   1      31.658   7.543  19.596  0.00  0.00     0.001 C 
HETATM   16  C   UNK N   1      31.196   8.283  20.627  0.00  0.00     0.007 C 
BRANCH  16  17
HETATM   17  C   UNK N   1      31.925   8.600  21.896  0.00  0.00    -0.056 C 
HETATM   18  C   UNK N   1      31.971   7.628  23.040  0.00  0.00     0.048 C 
HETATM   19  C   UNK N   1      32.542   9.792  21.990  0.00  0.00     0.087 C 
BRANCH  19  20
HETATM   20  C   UNK N   1      33.323  10.282  23.160  0.00  0.00     0.165 C 
HETATM   21  O   UNK N   1      32.784  10.860  24.090  0.00  0.00    -0.647 OA
BRANCH  20  22
HETATM   22  O   UNK N   1      34.652  10.076  23.194  0.00  0.00    -0.773 OA
HETATM   23  H   UNK N   1      35.238  10.729  22.864  0.00  0.00     0.167 HD
ENDBRANCH  20  22
ENDBRANCH  19  20
ENDBRANCH  16  17
ENDBRANCH   3  15
TORSDOF 6
ENDMDL
MODEL 2
REMARK VINA RESULT:      -6.6     14.911     17.963
REMARK  6 active torsions:
REMARK  status: ('A' for Active; 'I' for Inactive)
REMARK    1  A    between atoms: O_1  and  C_22 
REMARK    2  A    between atoms: C_6  and  C_11 
REMARK    3  A    between atoms: C_13  and  C_14 
REMARK    4  A    between atoms: C_16  and  C_17 
REMARK    5  A    between atoms: C_18  and  C_19 
REMARK    6  A    between atoms: C_21  and  C_22 
ROOT
HETATM    1  C   UNK N   1      26.812  20.531   6.118  0.00  0.00    -0.062 C 
HETATM    2  C   UNK N   1      26.387  21.415   7.235  0.00  0.00     0.048 C 
HETATM    3  C   UNK N   1      26.121  20.631   4.974  0.00  0.00     0.007 C 
ENDROOT
BRANCH   1   4
HETATM    4  C   UNK N   1      27.961  19.639   6.379  0.00  0.00     0.007 C 
HETATM    5  C   UNK N   1      27.953  18.443   6.973  0.00  0.00     0.009 C 
BRANCH   5   6
HETATM    6  C   UNK N   1      29.225  17.664   7.139  0.00  0.00    -0.048 C 
HETATM    7  C   UNK N   1      29.733  16.756   5.999  0.00  0.00    -0.020 C 
HETATM    8  C   UNK N   1      30.961  15.925   6.377  0.00  0.00     0.014 C 
HETATM    9  C   UNK N   1      30.081  17.603   4.785  0.00  0.00     0.020 C 
HETATM   10  C   UNK N   1      28.666  15.749   5.602  0.00  0.00     0.020 C 
HETATM   11  C   UNK N   1      31.936  16.733   7.202  0.00  0.00     0.005 C 
HETATM   12  C   UNK N   1      31.248  17.081   8.512  0.00  0.00     0.034 C 
HETATM   13  C   UNK N   1      29.934  17.791   8.295  0.00  0.00    -0.077 C 
HETATM   14  C   UNK N   1      29.448  18.669   9.406  0.00  0.00     0.044 C 
ENDBRANCH   5   6
ENDBRANCH   1   4
BRANCH   3  15
HETATM   15  C   UNK N   1      26.321  19.897   3.715  0.00  0.00     0.001 C 
HETATM   16  C   UNK N   1      25.665  18.745   3.450  0.00  0.00     0.007 C 
BRANCH  16  17
HETATM   17  C   UNK N   1      24.698  18.041   4.350  0.00  0.00    -0.056 C 
HETATM   18  C   UNK N   1      25.113  16.858   5.176  0.00  0.00     0.048 C 
HETATM   19  C   UNK N   1      23.432  18.496   4.399  0.00  0.00     0.087 C 
BRANCH  19  20
HETATM   20  C   UNK N   1      22.335  17.939   5.237  0.00  0.00     0.165 C 
HETATM   21  O   UNK N   1      21.605  17.052   4.826  0.00  0.00    -0.647 OA
BRANCH  20  22
HETATM   22  O   UNK N   1      22.150  18.421   6.480  0.00  0.00    -0.773 OA
HETATM   23  H   UNK N   1      22.875  18.761   6.967  0.00  0.00     0.167 HD
ENDBRANCH  20  22
ENDBRANCH  19  20
ENDBRANCH  16  17
ENDBRANCH   3  15
TORSDOF 6
ENDMDL
MODEL 3
REMARK VINA RESULT:      -6.3     26.027     29.453
REMARK  6 active torsions:
REMARK  status: ('A' for Active; 'I' for Inactive)
REMARK    1  A    between atoms: O_1  and  C_22 
REMARK    2  A    between atoms: C_6  and  C_11 
REMARK    3  A    between atoms: C_13  and  C_14 
REMARK    4  A    between atoms: C_16  and  C_17 
REMARK    5  A    between atoms: C_18  and  C_19 
REMARK    6  A    between atoms: C_21  and  C_22 
ROOT
HETATM    1  C   UNK N   1      27.269  23.347  -6.547  0.00  0.00    -0.062 C 
HETATM    2  C   UNK N   1      25.942  22.678  -6.504  0.00  0.00     0.048 C 
HETATM    3  C   UNK N   1      28.327  22.570  -6.819  0.00  0.00     0.007 C 
ENDROOT
BRANCH   1   4
HETATM    4  C   UNK N   1      27.285  24.804  -6.297  0.00  0.00     0.007 C 
HETATM    5  C   UNK N   1      27.529  25.436  -5.146  0.00  0.00     0.009 C 
BRANCH   5   6
HETATM    6  C   UNK N   1      27.520  26.936  -5.083  0.00  0.00    -0.048 C 
HETATM    7  C   UNK N   1      26.274  27.683  -4.559  0.00  0.00    -0.020 C 
HETATM    8  C   UNK N   1      26.371  29.204  -4.691  0.00  0.00     0.014 C 
HETATM    9  C   UNK N   1      26.049  27.340  -3.094  0.00  0.00     0.020 C 
HETATM   10  C   UNK N   1      25.039  27.282  -5.349  0.00  0.00     0.020 C 
HETATM   11  C   UNK N   1      27.758  29.696  -4.347  0.00  0.00     0.005 C 
HETATM   12  C   UNK N   1      28.714  29.126  -5.381  0.00  0.00     0.034 C 
HETATM   13  C   UNK N   1      28.632  27.623  -5.468  0.00  0.00    -0.077 C 
HETATM   14  C   UNK N   1      29.843  26.905  -5.978  0.00  0.00     0.044 C 
ENDBRANCH   5   6
ENDBRANCH   1   4
BRANCH   3  15
HETATM   15  C   UNK N   1      29.742  22.955  -6.933  0.00  0.00     0.001 C 
HETATM   16  C   UNK N   1      30.591  22.870  -5.885  0.00  0.00     0.007 C 
BRANCH  16  17
HETATM   17  C   UNK N   1      30.254  22.421  -4.497  0.00  0.00    -0.056 C 
HETATM   18  C   UNK N   1      30.321  20.974  -4.102  0.00  0.00     0.048 C 
HETATM   19  C   UNK N   1      29.880  23.356  -3.603  0.00  0.00     0.087 C 
BRANCH  19  20
HETATM   20  C   UNK N   1      29.518  23.108  -2.180  0.00  0.00     0.165 C 
HETATM   21  O   UNK N   1      30.370  23.023  -1.311  0.00  0.00    -0.647 OA
BRANCH  20  22
HETATM   22  O   UNK N   1      28.220  22.984  -1.845  0.00  0.00    -0.773 OA
HETATM   23  H   UNK N   1      27.634  23.706  -1.958  0.00  0.00     0.167 HD
ENDBRANCH  20  22
ENDBRANCH  19  20
ENDBRANCH  16  17
ENDBRANCH   3  15
TORSDOF 6
ENDMDL
MODEL 4
REMARK VINA RESULT:      -6.3     14.748     17.942
REMARK  6 active torsions:
REMARK  status: ('A' for Active; 'I' for Inactive)
REMARK    1  A    between atoms: O_1  and  C_22 
REMARK    2  A    between atoms: C_6  and  C_11 
REMARK    3  A    between atoms: C_13  and  C_14 
REMARK    4  A    between atoms: C_16  and  C_17 
REMARK    5  A    between atoms: C_18  and  C_19 
REMARK    6  A    between atoms: C_21  and  C_22 
ROOT
HETATM    1  C   UNK N   1      26.759  20.644   6.196  0.00  0.00    -0.062 C 
HETATM    2  C   UNK N   1      26.247  21.474   7.319  0.00  0.00     0.048 C 
HETATM    3  C   UNK N   1      26.105  20.737   5.031  0.00  0.00     0.007 C 
ENDROOT
BRANCH   1   4
HETATM    4  C   UNK N   1      27.946  19.809   6.478  0.00  0.00     0.007 C 
HETATM    5  C   UNK N   1      27.984  18.604   7.054  0.00  0.00     0.009 C 
BRANCH   5   6
HETATM    6  C   UNK N   1      29.290  17.890   7.245  0.00  0.00    -0.048 C 
HETATM    7  C   UNK N   1      29.943  17.828   8.642  0.00  0.00    -0.020 C 
HETATM    8  C   UNK N   1      31.334  17.191   8.641  0.00  0.00     0.014 C 
HETATM    9  C   UNK N   1      29.053  17.039   9.589  0.00  0.00     0.020 C 
HETATM   10  C   UNK N   1      30.135  19.227   9.205  0.00  0.00     0.020 C 
HETATM   11  C   UNK N   1      31.388  15.994   7.720  0.00  0.00     0.005 C 
HETATM   12  C   UNK N   1      31.159  16.499   6.304  0.00  0.00     0.034 C 
HETATM   13  C   UNK N   1      29.875  17.279   6.176  0.00  0.00    -0.077 C 
HETATM   14  C   UNK N   1      29.248  17.336   4.818  0.00  0.00     0.044 C 
ENDBRANCH   5   6
ENDBRANCH   1   4
BRANCH   3  15
HETATM   15  C   UNK N   1      26.389  20.048   3.762  0.00  0.00     0.001 C 
HETATM   16  C   UNK N   1      25.843  18.849   3.465  0.00  0.00     0.007 C 
BRANCH  16  17
HETATM   17  C   UNK N   1      24.927  18.044   4.334  0.00  0.00    -0.056 C 
HETATM   18  C   UNK N   1      25.435  16.898   5.161  0.00  0.00     0.048 C 
HETATM   19  C   UNK N   1      23.622  18.373   4.355  0.00  0.00     0.087 C 
BRANCH  19  20
HETATM   20  C   UNK N   1      22.564  17.703   5.160  0.00  0.00     0.165 C 
HETATM   21  O   UNK N   1      21.937  16.751   4.725  0.00  0.00    -0.647 OA
BRANCH  20  22
HETATM   22  O   UNK N   1      22.300  18.154   6.401  0.00  0.00    -0.773 OA
HETATM   23  H   UNK N   1      22.540  19.026   6.646  0.00  0.00     0.167 HD
ENDBRANCH  20  22
ENDBRANCH  19  20
ENDBRANCH  16  17
ENDBRANCH   3  15
TORSDOF 6
ENDMDL
MODEL 5
REMARK VINA RESULT:      -6.2     12.786     16.072
REMARK  6 active torsions:
REMARK  status: ('A' for Active; 'I' for Inactive)
REMARK    1  A    between atoms: O_1  and  C_22 
REMARK    2  A    between atoms: C_6  and  C_11 
REMARK    3  A    between atoms: C_13  and  C_14 
REMARK    4  A    between atoms: C_16  and  C_17 
REMARK    5  A    between atoms: C_18  and  C_19 
REMARK    6  A    between atoms: C_21  and  C_22 
ROOT
HETATM    1  C   UNK N   1      29.937  17.816   8.306  0.00  0.00    -0.062 C 
HETATM    2  C   UNK N   1      29.430  18.354   9.597  0.00  0.00     0.048 C 
HETATM    3  C   UNK N   1      31.048  17.070   8.359  0.00  0.00     0.007 C 
ENDROOT
BRANCH   1   4
HETATM    4  C   UNK N   1      29.155  18.152   7.097  0.00  0.00     0.007 C 
HETATM    5  C   UNK N   1      27.836  18.335   6.998  0.00  0.00     0.009 C 
BRANCH   5   6
HETATM    6  C   UNK N   1      27.212  18.691   5.680  0.00  0.00    -0.048 C 
HETATM    7  C   UNK N   1      26.727  17.579   4.726  0.00  0.00    -0.020 C 
HETATM    8  C   UNK N   1      26.248  18.100   3.369  0.00  0.00     0.014 C 
HETATM    9  C   UNK N   1      25.589  16.807   5.375  0.00  0.00     0.020 C 
HETATM   10  C   UNK N   1      27.858  16.611   4.415  0.00  0.00     0.020 C 
HETATM   11  C   UNK N   1      25.451  19.374   3.523  0.00  0.00     0.005 C 
HETATM   12  C   UNK N   1      26.391  20.437   4.070  0.00  0.00     0.034 C 
HETATM   13  C   UNK N   1      27.057  20.004   5.352  0.00  0.00    -0.077 C 
HETATM   14  C   UNK N   1      27.525  21.089   6.272  0.00  0.00     0.044 C 
ENDBRANCH   5   6
ENDBRANCH   1   4
BRANCH   3  15
HETATM   15  C   UNK N   1      31.762  16.409   7.255  0.00  0.00     0.001 C 
HETATM   16  C   UNK N   1      33.109  16.311   7.235  0.00  0.00     0.007 C 
BRANCH  16  17
HETATM   17  C   UNK N   1      34.059  16.850   8.260  0.00  0.00    -0.056 C 
HETATM   18  C   UNK N   1      34.565  18.262   8.196  0.00  0.00     0.048 C 
HETATM   19  C   UNK N   1      34.456  16.028   9.249  0.00  0.00     0.087 C 
BRANCH  19  20
HETATM   20  C   UNK N   1      35.381  16.381  10.360  0.00  0.00     0.165 C 
HETATM   21  O   UNK N   1      36.530  15.969  10.390  0.00  0.00    -0.647 OA
BRANCH  20  22
HETATM   22  O   UNK N   1      34.943  17.181  11.351  0.00  0.00    -0.773 OA
HETATM   23  H   UNK N   1      35.002  16.900  12.243  0.00  0.00     0.167 HD
ENDBRANCH  20  22
ENDBRANCH  19  20
ENDBRANCH  16  17
ENDBRANCH   3  15
TORSDOF 6
ENDMDL
MODEL 6
REMARK VINA RESULT:      -6.2     16.763     19.608
REMARK  6 active torsions:
REMARK  status: ('A' for Active; 'I' for Inactive)
REMARK    1  A    between atoms: O_1  and  C_22 
REMARK    2  A    between atoms: C_6  and  C_11 
REMARK    3  A    between atoms: C_13  and  C_14 
REMARK    4  A    between atoms: C_16  and  C_17 
REMARK    5  A    between atoms: C_18  and  C_19 
REMARK    6  A    between atoms: C_21  and  C_22 
ROOT
HETATM    1  C   UNK N   1      26.191  16.703   4.508  0.00  0.00    -0.062 C 
HETATM    2  C   UNK N   1      26.078  15.311   5.019  0.00  0.00     0.048 C 
HETATM    3  C   UNK N   1      27.413  17.251   4.516  0.00  0.00     0.007 C 
ENDROOT
BRANCH   1   4
HETATM    4  C   UNK N   1      24.942  17.335   4.030  0.00  0.00     0.007 C 
HETATM    5  C   UNK N   1      24.237  18.305   4.619  0.00  0.00     0.009 C 
BRANCH   5   6
HETATM    6  C   UNK N   1      22.992  18.841   3.974  0.00  0.00    -0.048 C 
HETATM    7  C   UNK N   1      21.629  18.164   4.235  0.00  0.00    -0.020 C 
HETATM    8  C   UNK N   1      20.487  18.741   3.396  0.00  0.00     0.014 C 
HETATM    9  C   UNK N   1      21.263  18.299   5.705  0.00  0.00     0.020 C 
HETATM   10  C   UNK N   1      21.690  16.687   3.881  0.00  0.00     0.020 C 
HETATM   11  C   UNK N   1      20.586  20.246   3.299  0.00  0.00     0.005 C 
HETATM   12  C   UNK N   1      21.864  20.571   2.543  0.00  0.00     0.034 C 
HETATM   13  C   UNK N   1      23.079  19.945   3.180  0.00  0.00    -0.077 C 
HETATM   14  C   UNK N   1      24.397  20.607   2.922  0.00  0.00     0.044 C 
ENDBRANCH   5   6
ENDBRANCH   1   4
BRANCH   3  15
HETATM   15  C   UNK N   1      27.819  18.592   4.067  0.00  0.00     0.001 C 
HETATM   16  C   UNK N   1      27.987  19.614   4.934  0.00  0.00     0.007 C 
BRANCH  16  17
HETATM   17  C   UNK N   1      27.774  19.571   6.416  0.00  0.00    -0.056 C 
HETATM   18  C   UNK N   1      26.826  20.514   7.100  0.00  0.00     0.048 C 
HETATM   19  C   UNK N   1      28.463  18.661   7.128  0.00  0.00     0.087 C 
BRANCH  19  20
HETATM   20  C   UNK N   1      28.380  18.458   8.601  0.00  0.00     0.165 C 
HETATM   21  O   UNK N   1      29.193  18.957   9.362  0.00  0.00    -0.647 OA
BRANCH  20  22
HETATM   22  O   UNK N   1      27.378  17.714   9.105  0.00  0.00    -0.773 OA
HETATM   23  H   UNK N   1      27.569  16.972   9.645  0.00  0.00     0.167 HD
ENDBRANCH  20  22
ENDBRANCH  19  20
ENDBRANCH  16  17
ENDBRANCH   3  15
TORSDOF 6
ENDMDL
MODEL 7
REMARK VINA RESULT:      -6.1     13.832     16.979
REMARK  6 active torsions:
REMARK  status: ('A' for Active; 'I' for Inactive)
REMARK    1  A    between atoms: O_1  and  C_22 
REMARK    2  A    between atoms: C_6  and  C_11 
REMARK    3  A    between atoms: C_13  and  C_14 
REMARK    4  A    between atoms: C_16  and  C_17 
REMARK    5  A    between atoms: C_18  and  C_19 
REMARK    6  A    between atoms: C_21  and  C_22 
ROOT
HETATM    1  C   UNK N   1      27.468  16.465   6.074  0.00  0.00    -0.062 C 
HETATM    2  C   UNK N   1      26.769  15.804   7.208  0.00  0.00     0.048 C 
HETATM    3  C   UNK N   1      26.777  16.595   4.933  0.00  0.00     0.007 C 
ENDROOT
BRANCH   1   4
HETATM    4  C   UNK N   1      28.851  16.922   6.325  0.00  0.00     0.007 C 
HETATM    5  C   UNK N   1      29.964  16.185   6.373  0.00  0.00     0.009 C 
BRANCH   5   6
HETATM    6  C   UNK N   1      31.296  16.828   6.624  0.00  0.00    -0.048 C 
HETATM    7  C   UNK N   1      31.736  17.164   8.065  0.00  0.00    -0.020 C 
HETATM    8  C   UNK N   1      33.052  17.942   8.139  0.00  0.00     0.014 C 
HETATM    9  C   UNK N   1      31.890  15.880   8.867  0.00  0.00     0.020 C 
HETATM   10  C   UNK N   1      30.702  18.044   8.749  0.00  0.00     0.020 C 
HETATM   11  C   UNK N   1      34.054  17.418   7.137  0.00  0.00     0.005 C 
HETATM   12  C   UNK N   1      33.492  17.681   5.750  0.00  0.00     0.034 C 
HETATM   13  C   UNK N   1      32.118  17.085   5.569  0.00  0.00    -0.077 C 
HETATM   14  C   UNK N   1      31.698  16.764   4.168  0.00  0.00     0.044 C 
ENDBRANCH   5   6
ENDBRANCH   1   4
BRANCH   3  15
HETATM   15  C   UNK N   1      27.205  17.208   3.667  0.00  0.00     0.001 C 
HETATM   16  C   UNK N   1      27.104  18.537   3.447  0.00  0.00     0.007 C 
BRANCH  16  17
HETATM   17  C   UNK N   1      26.544  19.557   4.390  0.00  0.00    -0.056 C 
HETATM   18  C   UNK N   1      25.130  20.046   4.269  0.00  0.00     0.048 C 
HETATM   19  C   UNK N   1      27.350  20.034   5.357  0.00  0.00     0.087 C 
BRANCH  19  20
HETATM   20  C   UNK N   1      26.975  21.038   6.391  0.00  0.00     0.165 C 
HETATM   21  O   UNK N   1      27.195  22.228   6.234  0.00  0.00    -0.647 OA
BRANCH  20  22
HETATM   22  O   UNK N   1      26.373  20.623   7.521  0.00  0.00    -0.773 OA
HETATM   23  H   UNK N   1      25.903  21.233   8.055  0.00  0.00     0.167 HD
ENDBRANCH  20  22
ENDBRANCH  19  20
ENDBRANCH  16  17
ENDBRANCH   3  15
TORSDOF 6
ENDMDL
MODEL 8
REMARK VINA RESULT:      -6.1     15.320     18.149
REMARK  6 active torsions:
REMARK  status: ('A' for Active; 'I' for Inactive)
REMARK    1  A    between atoms: O_1  and  C_22 
REMARK    2  A    between atoms: C_6  and  C_11 
REMARK    3  A    between atoms: C_13  and  C_14 
REMARK    4  A    between atoms: C_16  and  C_17 
REMARK    5  A    between atoms: C_18  and  C_19 
REMARK    6  A    between atoms: C_21  and  C_22 
ROOT
HETATM    1  C   UNK N   1      27.182  16.095   3.869  0.00  0.00    -0.062 C 
HETATM    2  C   UNK N   1      27.788  15.773   2.550  0.00  0.00     0.048 C 
HETATM    3  C   UNK N   1      25.847  16.195   3.911  0.00  0.00     0.007 C 
ENDROOT
BRANCH   1   4
HETATM    4  C   UNK N   1      28.116  16.259   5.004  0.00  0.00     0.007 C 
HETATM    5  C   UNK N   1      28.958  17.270   5.234  0.00  0.00     0.009 C 
BRANCH   5   6
HETATM    6  C   UNK N   1      29.826  17.278   6.458  0.00  0.00    -0.048 C 
HETATM    7  C   UNK N   1      31.185  16.547   6.450  0.00  0.00    -0.020 C 
HETATM    8  C   UNK N   1      31.880  16.528   7.813  0.00  0.00     0.014 C 
HETATM    9  C   UNK N   1      32.116  17.207   5.444  0.00  0.00     0.020 C 
HETATM   10  C   UNK N   1      31.006  15.088   6.063  0.00  0.00     0.020 C 
HETATM   11  C   UNK N   1      31.731  17.855   8.521  0.00  0.00     0.005 C 
HETATM   12  C   UNK N   1      30.252  18.053   8.810  0.00  0.00     0.034 C 
HETATM   13  C   UNK N   1      29.409  17.958   7.562  0.00  0.00    -0.077 C 
HETATM   14  C   UNK N   1      28.091  18.668   7.579  0.00  0.00     0.044 C 
ENDBRANCH   5   6
ENDBRANCH   1   4
BRANCH   3  15
HETATM   15  C   UNK N   1      24.985  16.490   5.067  0.00  0.00     0.001 C 
HETATM   16  C   UNK N   1      24.528  17.737   5.315  0.00  0.00     0.007 C 
BRANCH  16  17
HETATM   17  C   UNK N   1      24.824  18.971   4.520  0.00  0.00    -0.056 C 
HETATM   18  C   UNK N   1      26.124  19.707   4.667  0.00  0.00     0.048 C 
HETATM   19  C   UNK N   1      23.883  19.412   3.663  0.00  0.00     0.087 C 
BRANCH  19  20
HETATM   20  C   UNK N   1      23.995  20.607   2.783  0.00  0.00     0.165 C 
HETATM   21  O   UNK N   1      24.882  20.705   1.949  0.00  0.00    -0.647 OA
BRANCH  20  22
HETATM   22  O   UNK N   1      23.093  21.598   2.904  0.00  0.00    -0.773 OA
HETATM   23  H   UNK N   1      22.254  21.524   2.492  0.00  0.00     0.167 HD
ENDBRANCH  20  22
ENDBRANCH  19  20
ENDBRANCH  16  17
ENDBRANCH   3  15
TORSDOF 6
ENDMDL
MODEL 9
REMARK VINA RESULT:      -6.0     26.779     30.305
REMARK  6 active torsions:
REMARK  status: ('A' for Active; 'I' for Inactive)
REMARK    1  A    between atoms: O_1  and  C_22 
REMARK    2  A    between atoms: C_6  and  C_11 
REMARK    3  A    between atoms: C_13  and  C_14 
REMARK    4  A    between atoms: C_16  and  C_17 
REMARK    5  A    between atoms: C_18  and  C_19 
REMARK    6  A    between atoms: C_21  and  C_22 
ROOT
HETATM    1  C   UNK N   1      28.969  27.004  -6.760  0.00  0.00    -0.062 C 
HETATM    2  C   UNK N   1      30.117  27.196  -7.686  0.00  0.00     0.048 C 
HETATM    3  C   UNK N   1      27.863  27.716  -7.015  0.00  0.00     0.007 C 
ENDROOT
BRANCH   1   4
HETATM    4  C   UNK N   1      29.162  26.038  -5.657  0.00  0.00     0.007 C 
HETATM    5  C   UNK N   1      28.862  24.736  -5.645  0.00  0.00     0.009 C 
BRANCH   5   6
HETATM    6  C   UNK N   1      29.147  23.899  -4.433  0.00  0.00    -0.048 C 
HETATM    7  C   UNK N   1      30.437  23.053  -4.359  0.00  0.00    -0.020 C 
HETATM    8  C   UNK N   1      30.509  22.151  -3.126  0.00  0.00     0.014 C 
HETATM    9  C   UNK N   1      31.651  23.969  -4.357  0.00  0.00     0.020 C 
HETATM   10  C   UNK N   1      30.532  22.119  -5.555  0.00  0.00     0.020 C 
HETATM   11  C   UNK N   1      29.990  22.861  -1.897  0.00  0.00     0.005 C 
HETATM   12  C   UNK N   1      28.514  23.142  -2.122  0.00  0.00     0.034 C 
HETATM   13  C   UNK N   1      28.267  23.917  -3.393  0.00  0.00    -0.077 C 
HETATM   14  C   UNK N   1      27.014  24.733  -3.457  0.00  0.00     0.044 C 
ENDBRANCH   5   6
ENDBRANCH   1   4
BRANCH   3  15
HETATM   15  C   UNK N   1      26.588  27.723  -6.282  0.00  0.00     0.001 C 
HETATM   16  C   UNK N   1      25.631  26.796  -6.508  0.00  0.00     0.007 C 
BRANCH  16  17
HETATM   17  C   UNK N   1      25.687  25.680  -7.505  0.00  0.00    -0.056 C 
HETATM   18  C   UNK N   1      25.811  25.947  -8.977  0.00  0.00     0.048 C 
HETATM   19  C   UNK N   1      25.618  24.417  -7.045  0.00  0.00     0.087 C 
BRANCH  19  20
HETATM   20  C   UNK N   1      25.668  23.181  -7.874  0.00  0.00     0.165 C 
HETATM   21  O   UNK N   1      26.717  22.593  -8.082  0.00  0.00    -0.647 OA
BRANCH  20  22
HETATM   22  O   UNK N   1      24.527  22.697  -8.399  0.00  0.00    -0.773 OA
HETATM   23  H   UNK N   1      24.014  23.225  -8.979  0.00  0.00     0.167 HD
ENDBRANCH  20  22
ENDBRANCH  19  20
ENDBRANCH  16  17
ENDBRANCH   3  15
TORSDOF 6
ENDMDL
