REMARK  4 active torsions:
REMARK  status: ('A' for Active; 'I' for Inactive)
REMARK    1  A    between atoms: N_3  and  C_6 
REMARK    2  A    between atoms: C_6  and  C_10 
REMARK    3  A    between atoms: C_6  and  C_18 
REMARK    4  A    between atoms: C_18  and  O_20 
ROOT
HETATM    1  C   UNK N   1       3.659  -0.066   0.317  0.00  0.00     0.356 C 
ENDROOT
BRANCH   1   2
HETATM    2  N   UNK N   1       4.896  -0.816  -0.045  0.00  0.00     0.111 N 
HETATM    3  C   UNK N   1       4.891  -2.201   0.464  0.00  0.00     0.279 C 
HETATM    4  C   UNK N   1       6.041  -3.017  -0.159  0.00  0.00     0.077 C 
HETATM    5  C   UNK N   1       7.299  -2.214  -0.088  0.00  0.00    -0.008 A 
HETATM    6  S   UNK N   1       8.856  -2.690  -0.346  0.00  0.00    -0.106 SA
HETATM    7  C   UNK N   1       7.334  -0.874   0.243  0.00  0.00    -0.017 A 
HETATM    8  C   UNK N   1       9.644  -1.251  -0.039  0.00  0.00     0.051 A 
HETATM    9  C   UNK N   1       8.641  -0.319   0.283  0.00  0.00     0.017 A 
HETATM   10  C   UNK N   1       6.074  -0.126   0.528  0.00  0.00     0.313 C 
ENDBRANCH   1   2
BRANCH   1  11
HETATM   11  C   UNK N   1       2.348  -0.778  -0.071  0.00  0.00     0.006 A 
HETATM   12  C   UNK N   1       1.092  -0.256   0.342  0.00  0.00     0.043 A 
HETATM   13 Cl   UNK N   1       0.959   1.216   1.299  0.00  0.00    -0.084 Cl
HETATM   14  C   UNK N   1      -0.091  -0.921   0.007  0.00  0.00     0.024 A 
HETATM   15  C   UNK N   1      -0.054  -2.102  -0.733  0.00  0.00     0.002 A 
HETATM   16  C   UNK N   1       1.169  -2.624  -1.150  0.00  0.00     0.001 A 
HETATM   17  C   UNK N   1       2.358  -1.966  -0.825  0.00  0.00     0.011 A 
ENDBRANCH   1  11
BRANCH   1  18
HETATM   18  C   UNK N   1       3.714   1.328  -0.310  0.00  0.00     0.297 C 
HETATM   19  O   UNK N   1       2.880   1.672  -1.142  0.00  0.00    -0.262 OA
BRANCH  18  20
HETATM   20  O   UNK N   1       4.694   2.189   0.061  0.00  0.00    -0.325 OA
HETATM   21  C   UNK N   1       4.818   3.452  -0.469  0.00  0.00     0.213 C 
ENDBRANCH  18  20
ENDBRANCH   1  18
TORSDOF 4
