REMARK  9 active torsions:
REMARK  status: ('A' for Active; 'I' for Inactive)
REMARK    1  A    between atoms: N_1  and  C_9 
REMARK       I    between atoms: C_2  and  N_1 
REMARK    2  A    between atoms: C_3  and  C_2 
REMARK    3  A    between atoms: C_3  and  O_6 
REMARK    4  A    between atoms: C_3  and  C_5 
REMARK    5  A    between atoms: C_4  and  O_8 
REMARK    6  A    between atoms: C_5  and  C_4 
REMARK    7  A    between atoms: C_9  and  C_10 
REMARK    8  A    between atoms: C_10  and  C_11 
REMARK    9  A    between atoms: C_11  and  O_13 
ROOT
HETATM    1  N   UNK N   1      17.268  -3.813  -0.237  0.00  0.00    -0.358 N 
HETATM    2  C   UNK N   1      15.977  -3.403  -0.258  0.00  0.00     0.247 C 
HETATM    3  O   UNK N   1      15.731  -2.275  -0.651  0.00  0.00    -0.271 OA
HETATM    4  H   UNK N   1      17.953  -3.205  -0.597  0.00  0.00     0.162 HD
ENDROOT
BRANCH   2   5
HETATM    5  C   UNK N   1      14.844  -4.322   0.182  0.00  0.00     0.219 C 
BRANCH   5   6
HETATM    6  O   UNK N   1      14.836  -5.454  -0.639  0.00  0.00    -0.385 OA
HETATM    7  H   UNK N   1      14.153  -5.841  -1.209  0.00  0.00     0.210 HD
ENDBRANCH   5   6
BRANCH   5   8
HETATM    8  C   UNK N   1      13.438  -3.662   0.218  0.00  0.00     0.008 C 
HETATM    9  C   UNK N   1      13.448  -2.511   1.210  0.00  0.00     0.020 C 
HETATM   10  C   UNK N   1      13.032  -3.119  -1.149  0.00  0.00     0.020 C 
BRANCH   8  11
HETATM   11  C   UNK N   1      12.369  -4.644   0.701  0.00  0.00     0.175 C 
BRANCH  11  12
HETATM   12  O   UNK N   1      12.144  -5.666  -0.226  0.00  0.00    -0.400 OA
HETATM   13  H   UNK N   1      11.452  -5.885  -0.869  0.00  0.00     0.209 HD
ENDBRANCH  11  12
ENDBRANCH   8  11
ENDBRANCH   5   8
ENDBRANCH   2   5
BRANCH   1  14
HETATM   14  C   UNK N   1      17.697  -5.088   0.282  0.00  0.00     0.133 C 
BRANCH  14  15
HETATM   15  C   UNK N   1      19.142  -5.375  -0.135  0.00  0.00     0.129 C 
BRANCH  15  16
HETATM   16  C   UNK N   1      20.135  -4.281   0.168  0.00  0.00     0.140 C 
HETATM   17  O   UNK N   1      19.782  -3.225   0.671  0.00  0.00    -0.650 OA
BRANCH  16  18
HETATM   18  O   UNK N   1      21.433  -4.467  -0.136  0.00  0.00    -0.776 OA
HETATM   19  H   UNK N   1      21.772  -5.314  -0.348  0.00  0.00     0.167 HD
ENDBRANCH  16  18
ENDBRANCH  15  16
ENDBRANCH  14  15
ENDBRANCH   1  14
TORSDOF 9
