MODEL 1
REMARK VINA RESULT:      -6.3      0.000      0.000
REMARK  3 active torsions:
REMARK  status: ('A' for Active; 'I' for Inactive)
REMARK    1  A    between atoms: O_2  and  C_8 
REMARK    2  A    between atoms: C_4  and  C_6 
REMARK    3  A    between atoms: C_9  and  C_11 
ROOT
HETATM    1  O   UNK N   1      34.954  13.905  13.007  0.00  0.00    -0.308 OA
HETATM    2  O   UNK N   1      33.906  14.891  11.295  0.00  0.00    -0.260 OA
HETATM    3  C   UNK N   1      36.168  13.621  13.608  0.00  0.00     0.161 C 
HETATM    4  C   UNK N   1      37.083  12.830  12.670  0.00  0.00     0.101 C 
HETATM    5  C   UNK N   1      37.141  13.460  11.304  0.00  0.00     0.054 C 
HETATM    6  C   UNK N   1      36.095  14.184  10.857  0.00  0.00     0.114 C 
HETATM    7  C   UNK N   1      34.917  14.366  11.730  0.00  0.00     0.285 C 
ENDROOT
BRANCH   3   8
HETATM    8  C   UNK N   1      36.014  12.850  14.877  0.00  0.00     0.007 C 
HETATM    9  C   UNK N   1      35.259  13.261  15.898  0.00  0.00     0.009 C 
BRANCH   9  10
HETATM   10  C   UNK N   1      35.256  12.527  17.184  0.00  0.00    -0.041 C 
HETATM   11  C   UNK N   1      35.375  11.188  17.207  0.00  0.00    -0.015 C 
HETATM   12  C   UNK N   1      35.411  10.385  18.479  0.00  0.00     0.032 C 
HETATM   13  C   UNK N   1      35.433  11.197  19.782  0.00  0.00     0.031 C 
HETATM   14  C   UNK N   1      35.225  12.681  19.634  0.00  0.00    -0.026 C 
HETATM   15  C   UNK N   1      35.154  13.287  18.443  0.00  0.00     0.007 C 
ENDBRANCH   9  10
ENDBRANCH   3   8
BRANCH   5  16
HETATM   16  O   UNK N   1      38.243  13.245  10.540  0.00  0.00    -0.360 OA
HETATM   17  C   UNK N   1      38.506  13.924   9.371  0.00  0.00     0.209 C 
ENDBRANCH   5  16
TORSDOF 3
ENDMDL
MODEL 2
REMARK VINA RESULT:      -6.3      1.383      2.460
REMARK  3 active torsions:
REMARK  status: ('A' for Active; 'I' for Inactive)
REMARK    1  A    between atoms: O_2  and  C_8 
REMARK    2  A    between atoms: C_4  and  C_6 
REMARK    3  A    between atoms: C_9  and  C_11 
ROOT
HETATM    1  O   UNK N   1      37.100  13.113  12.251  0.00  0.00    -0.308 OA
HETATM    2  O   UNK N   1      38.226  12.580  10.394  0.00  0.00    -0.260 OA
HETATM    3  C   UNK N   1      36.010  13.776  12.789  0.00  0.00     0.161 C 
HETATM    4  C   UNK N   1      36.042  15.268  12.450  0.00  0.00     0.101 C 
HETATM    5  C   UNK N   1      36.305  15.490  10.984  0.00  0.00     0.054 C 
HETATM    6  C   UNK N   1      37.003  14.573  10.284  0.00  0.00     0.114 C 
HETATM    7  C   UNK N   1      37.475  13.350  10.966  0.00  0.00     0.285 C 
ENDROOT
BRANCH   3   8
HETATM    8  C   UNK N   1      35.926  13.631  14.272  0.00  0.00     0.007 C 
HETATM    9  C   UNK N   1      35.833  12.451  14.891  0.00  0.00     0.009 C 
BRANCH   9  10
HETATM   10  C   UNK N   1      35.610  12.375  16.352  0.00  0.00    -0.041 C 
HETATM   11  C   UNK N   1      35.727  11.203  17.001  0.00  0.00    -0.015 C 
HETATM   12  C   UNK N   1      35.544  11.061  18.488  0.00  0.00     0.032 C 
HETATM   13  C   UNK N   1      35.338  12.370  19.263  0.00  0.00     0.031 C 
HETATM   14  C   UNK N   1      35.155  13.608  18.425  0.00  0.00    -0.026 C 
HETATM   15  C   UNK N   1      35.289  13.607  17.094  0.00  0.00     0.007 C 
ENDBRANCH   9  10
ENDBRANCH   3   8
BRANCH   5  16
HETATM   16  O   UNK N   1      35.860  16.640  10.416  0.00  0.00    -0.360 OA
HETATM   17  C   UNK N   1      34.696  16.730   9.686  0.00  0.00     0.209 C 
ENDBRANCH   5  16
TORSDOF 3
ENDMDL
MODEL 3
REMARK VINA RESULT:      -6.3      3.288      5.271
REMARK  3 active torsions:
REMARK  status: ('A' for Active; 'I' for Inactive)
REMARK    1  A    between atoms: O_2  and  C_8 
REMARK    2  A    between atoms: C_4  and  C_6 
REMARK    3  A    between atoms: C_9  and  C_11 
ROOT
HETATM    1  O   UNK N   1      35.439  17.481   9.825  0.00  0.00    -0.308 OA
HETATM    2  O   UNK N   1      35.311  19.289   8.515  0.00  0.00    -0.260 OA
HETATM    3  C   UNK N   1      35.235  16.116   9.931  0.00  0.00     0.161 C 
HETATM    4  C   UNK N   1      33.774  15.748   9.666  0.00  0.00     0.101 C 
HETATM    5  C   UNK N   1      33.262  16.407   8.412  0.00  0.00     0.054 C 
HETATM    6  C   UNK N   1      33.802  17.574   8.003  0.00  0.00     0.114 C 
HETATM    7  C   UNK N   1      34.907  18.171   8.782  0.00  0.00     0.285 C 
ENDROOT
BRANCH   3   8
HETATM    8  C   UNK N   1      35.621  15.580  11.269  0.00  0.00     0.007 C 
HETATM    9  C   UNK N   1      35.310  14.350  11.685  0.00  0.00     0.009 C 
BRANCH   9  10
HETATM   10  C   UNK N   1      35.594  13.923  13.074  0.00  0.00    -0.041 C 
HETATM   11  C   UNK N   1      36.465  14.609  13.835  0.00  0.00    -0.015 C 
HETATM   12  C   UNK N   1      36.775  14.248  15.262  0.00  0.00     0.032 C 
HETATM   13  C   UNK N   1      35.936  13.110  15.861  0.00  0.00     0.031 C 
HETATM   14  C   UNK N   1      35.046  12.372  14.896  0.00  0.00    -0.026 C 
HETATM   15  C   UNK N   1      34.886  12.754  13.624  0.00  0.00     0.007 C 
ENDBRANCH   9  10
ENDBRANCH   3   8
BRANCH   5  16
HETATM   16  O   UNK N   1      32.235  15.820   7.747  0.00  0.00    -0.360 OA
HETATM   17  C   UNK N   1      31.190  16.520   7.186  0.00  0.00     0.209 C 
ENDBRANCH   5  16
TORSDOF 3
ENDMDL
MODEL 4
REMARK VINA RESULT:      -6.1      1.763      2.585
REMARK  3 active torsions:
REMARK  status: ('A' for Active; 'I' for Inactive)
REMARK    1  A    between atoms: O_2  and  C_8 
REMARK    2  A    between atoms: C_4  and  C_6 
REMARK    3  A    between atoms: C_9  and  C_11 
ROOT
HETATM    1  O   UNK N   1      35.853  15.672  12.121  0.00  0.00    -0.308 OA
HETATM    2  O   UNK N   1      35.690  17.234  10.529  0.00  0.00    -0.260 OA
HETATM    3  C   UNK N   1      36.141  14.350  12.416  0.00  0.00     0.161 C 
HETATM    4  C   UNK N   1      35.217  13.396  11.657  0.00  0.00     0.101 C 
HETATM    5  C   UNK N   1      35.140  13.755  10.196  0.00  0.00     0.054 C 
HETATM    6  C   UNK N   1      35.336  15.033   9.812  0.00  0.00     0.114 C 
HETATM    7  C   UNK N   1      35.651  16.054  10.833  0.00  0.00     0.285 C 
ENDROOT
BRANCH   3   8
HETATM    8  C   UNK N   1      36.032  14.051  13.874  0.00  0.00     0.007 C 
HETATM    9  C   UNK N   1      36.198  12.829  14.387  0.00  0.00     0.009 C 
BRANCH   9  10
HETATM   10  C   UNK N   1      35.938  12.565  15.821  0.00  0.00    -0.041 C 
HETATM   11  C   UNK N   1      35.496  13.547  16.627  0.00  0.00    -0.015 C 
HETATM   12  C   UNK N   1      35.183  13.339  18.084  0.00  0.00     0.032 C 
HETATM   13  C   UNK N   1      35.273  11.891  18.587  0.00  0.00     0.031 C 
HETATM   14  C   UNK N   1      35.845  10.893  17.615  0.00  0.00    -0.026 C 
HETATM   15  C   UNK N   1      36.139  11.204  16.347  0.00  0.00     0.007 C 
ENDBRANCH   9  10
ENDBRANCH   3   8
BRANCH   5  16
HETATM   16  O   UNK N   1      34.831  12.778   9.306  0.00  0.00    -0.360 OA
HETATM   17  C   UNK N   1      33.683  12.772   8.547  0.00  0.00     0.209 C 
ENDBRANCH   5  16
TORSDOF 3
ENDMDL
MODEL 5
REMARK VINA RESULT:      -5.9     20.296     23.488
REMARK  3 active torsions:
REMARK  status: ('A' for Active; 'I' for Inactive)
REMARK    1  A    between atoms: O_2  and  C_8 
REMARK    2  A    between atoms: C_4  and  C_6 
REMARK    3  A    between atoms: C_9  and  C_11 
ROOT
HETATM    1  O   UNK N   1      30.366  22.884  -3.017  0.00  0.00    -0.308 OA
HETATM    2  O   UNK N   1      32.105  21.839  -2.076  0.00  0.00    -0.260 OA
HETATM    3  C   UNK N   1      29.250  22.767  -3.827  0.00  0.00     0.161 C 
HETATM    4  C   UNK N   1      29.624  22.261  -5.222  0.00  0.00     0.101 C 
HETATM    5  C   UNK N   1      30.526  21.057  -5.144  0.00  0.00     0.054 C 
HETATM    6  C   UNK N   1      31.329  20.894  -4.072  0.00  0.00     0.114 C 
HETATM    7  C   UNK N   1      31.290  21.889  -2.981  0.00  0.00     0.285 C 
ENDROOT
BRANCH   3   8
HETATM    8  C   UNK N   1      28.511  24.056  -3.976  0.00  0.00     0.007 C 
HETATM    9  C   UNK N   1      27.180  24.134  -4.047  0.00  0.00     0.009 C 
BRANCH   9  10
HETATM   10  C   UNK N   1      26.509  25.422  -4.337  0.00  0.00    -0.041 C 
HETATM   11  C   UNK N   1      25.838  25.598  -5.489  0.00  0.00    -0.015 C 
HETATM   12  C   UNK N   1      25.109  26.869  -5.832  0.00  0.00     0.032 C 
HETATM   13  C   UNK N   1      25.060  27.931  -4.725  0.00  0.00     0.031 C 
HETATM   14  C   UNK N   1      25.904  27.652  -3.509  0.00  0.00    -0.026 C 
HETATM   15  C   UNK N   1      26.558  26.499  -3.332  0.00  0.00     0.007 C 
ENDBRANCH   9  10
ENDBRANCH   3   8
BRANCH   5  16
HETATM   16  O   UNK N   1      30.531  20.185  -6.184  0.00  0.00    -0.360 OA
HETATM   17  C   UNK N   1      30.740  20.559  -7.492  0.00  0.00     0.209 C 
ENDBRANCH   5  16
TORSDOF 3
ENDMDL
MODEL 6
REMARK VINA RESULT:      -5.9      2.133      3.831
REMARK  3 active torsions:
REMARK  status: ('A' for Active; 'I' for Inactive)
REMARK    1  A    between atoms: O_2  and  C_8 
REMARK    2  A    between atoms: C_4  and  C_6 
REMARK    3  A    between atoms: C_9  and  C_11 
ROOT
HETATM    1  O   UNK N   1      36.473  13.695  16.542  0.00  0.00    -0.308 OA
HETATM    2  O   UNK N   1      37.710  15.391  15.770  0.00  0.00    -0.260 OA
HETATM    3  C   UNK N   1      35.846  12.496  16.249  0.00  0.00     0.161 C 
HETATM    4  C   UNK N   1      34.811  12.666  15.135  0.00  0.00     0.101 C 
HETATM    5  C   UNK N   1      35.383  13.427  13.968  0.00  0.00     0.054 C 
HETATM    6  C   UNK N   1      36.380  14.312  14.172  0.00  0.00     0.114 C 
HETATM    7  C   UNK N   1      36.912  14.499  15.538  0.00  0.00     0.285 C 
ENDROOT
BRANCH   3   8
HETATM    8  C   UNK N   1      35.167  11.898  17.436  0.00  0.00     0.007 C 
HETATM    9  C   UNK N   1      35.548  10.748  17.997  0.00  0.00     0.009 C 
BRANCH   9  10
HETATM   10  C   UNK N   1      34.751  10.132  19.082  0.00  0.00    -0.041 C 
HETATM   11  C   UNK N   1      34.791  10.634  20.329  0.00  0.00    -0.015 C 
HETATM   12  C   UNK N   1      33.984  10.075  21.469  0.00  0.00     0.032 C 
HETATM   13  C   UNK N   1      32.993   8.960  21.104  0.00  0.00     0.031 C 
HETATM   14  C   UNK N   1      33.088   8.434  19.696  0.00  0.00    -0.026 C 
HETATM   15  C   UNK N   1      33.887   8.979  18.772  0.00  0.00     0.007 C 
ENDBRANCH   9  10
ENDBRANCH   3   8
BRANCH   5  16
HETATM   16  O   UNK N   1      34.843  13.226  12.739  0.00  0.00    -0.360 OA
HETATM   17  C   UNK N   1      34.900  14.150  11.720  0.00  0.00     0.209 C 
ENDBRANCH   5  16
TORSDOF 3
ENDMDL
MODEL 7
REMARK VINA RESULT:      -5.7     15.455     17.690
REMARK  3 active torsions:
REMARK  status: ('A' for Active; 'I' for Inactive)
REMARK    1  A    between atoms: O_2  and  C_8 
REMARK    2  A    between atoms: C_4  and  C_6 
REMARK    3  A    between atoms: C_9  and  C_11 
ROOT
HETATM    1  O   UNK N   1      20.602  18.234   7.616  0.00  0.00    -0.308 OA
HETATM    2  O   UNK N   1      19.298  18.275   9.432  0.00  0.00    -0.260 OA
HETATM    3  C   UNK N   1      21.032  17.507   6.519  0.00  0.00     0.161 C 
HETATM    4  C   UNK N   1      21.684  16.190   6.945  0.00  0.00     0.101 C 
HETATM    5  C   UNK N   1      20.832  15.455   7.946  0.00  0.00     0.054 C 
HETATM    6  C   UNK N   1      20.003  16.148   8.753  0.00  0.00     0.114 C 
HETATM    7  C   UNK N   1      19.928  17.618   8.622  0.00  0.00     0.285 C 
ENDROOT
BRANCH   3   8
HETATM    8  C   UNK N   1      22.002  18.262   5.674  0.00  0.00     0.007 C 
HETATM    9  C   UNK N   1      23.130  17.729   5.197  0.00  0.00     0.009 C 
BRANCH   9  10
HETATM   10  C   UNK N   1      24.123  18.564   4.484  0.00  0.00    -0.041 C 
HETATM   11  C   UNK N   1      23.722  19.534   3.643  0.00  0.00    -0.015 C 
HETATM   12  C   UNK N   1      24.677  20.438   2.912  0.00  0.00     0.032 C 
HETATM   13  C   UNK N   1      26.160  20.280   3.278  0.00  0.00     0.031 C 
HETATM   14  C   UNK N   1      26.494  19.118   4.176  0.00  0.00    -0.026 C 
HETATM   15  C   UNK N   1      25.559  18.341   4.733  0.00  0.00     0.007 C 
ENDBRANCH   9  10
ENDBRANCH   3   8
BRANCH   5  16
HETATM   16  O   UNK N   1      20.955  14.106   8.032  0.00  0.00    -0.360 OA
HETATM   17  C   UNK N   1      21.240  13.439   9.203  0.00  0.00     0.209 C 
ENDBRANCH   5  16
TORSDOF 3
ENDMDL
MODEL 8
REMARK VINA RESULT:      -5.6      2.580      7.182
REMARK  3 active torsions:
REMARK  status: ('A' for Active; 'I' for Inactive)
REMARK    1  A    between atoms: O_2  and  C_8 
REMARK    2  A    between atoms: C_4  and  C_6 
REMARK    3  A    between atoms: C_9  and  C_11 
ROOT
HETATM    1  O   UNK N   1      35.312  13.726  16.880  0.00  0.00    -0.308 OA
HETATM    2  O   UNK N   1      35.223  14.618  18.929  0.00  0.00    -0.260 OA
HETATM    3  C   UNK N   1      34.988  12.647  16.076  0.00  0.00     0.161 C 
HETATM    4  C   UNK N   1      35.612  11.353  16.602  0.00  0.00     0.101 C 
HETATM    5  C   UNK N   1      35.365  11.187  18.078  0.00  0.00     0.054 C 
HETATM    6  C   UNK N   1      35.196  12.278  18.853  0.00  0.00     0.114 C 
HETATM    7  C   UNK N   1      35.230  13.618  18.232  0.00  0.00     0.285 C 
ENDROOT
BRANCH   3   8
HETATM    8  C   UNK N   1      35.420  12.837  14.660  0.00  0.00     0.007 C 
HETATM    9  C   UNK N   1      36.056  13.928  14.226  0.00  0.00     0.009 C 
BRANCH   9  10
HETATM   10  C   UNK N   1      36.333  14.123  12.785  0.00  0.00    -0.041 C 
HETATM   11  C   UNK N   1      35.970  15.262  12.168  0.00  0.00    -0.015 C 
HETATM   12  C   UNK N   1      36.249  15.537  10.715  0.00  0.00     0.032 C 
HETATM   13  C   UNK N   1      37.098  14.486   9.987  0.00  0.00     0.031 C 
HETATM   14  C   UNK N   1      37.385  13.225  10.758  0.00  0.00    -0.026 C 
HETATM   15  C   UNK N   1      37.041  13.067  12.040  0.00  0.00     0.007 C 
ENDBRANCH   9  10
ENDBRANCH   3   8
BRANCH   5  16
HETATM   16  O   UNK N   1      35.360   9.932  18.595  0.00  0.00    -0.360 OA
HETATM   17  C   UNK N   1      34.224   9.165  18.726  0.00  0.00     0.209 C 
ENDBRANCH   5  16
TORSDOF 3
ENDMDL
MODEL 9
REMARK VINA RESULT:      -5.6     15.458     17.459
REMARK  3 active torsions:
REMARK  status: ('A' for Active; 'I' for Inactive)
REMARK    1  A    between atoms: O_2  and  C_8 
REMARK    2  A    between atoms: C_4  and  C_6 
REMARK    3  A    between atoms: C_9  and  C_11 
ROOT
HETATM    1  O   UNK N   1      20.533  18.387   4.140  0.00  0.00    -0.308 OA
HETATM    2  O   UNK N   1      19.131  19.225   2.611  0.00  0.00    -0.260 OA
HETATM    3  C   UNK N   1      21.648  18.611   4.929  0.00  0.00     0.161 C 
HETATM    4  C   UNK N   1      22.873  18.954   4.079  0.00  0.00     0.101 C 
HETATM    5  C   UNK N   1      22.551  20.013   3.057  0.00  0.00     0.054 C 
HETATM    6  C   UNK N   1      21.290  20.131   2.593  0.00  0.00     0.114 C 
HETATM    7  C   UNK N   1      20.240  19.234   3.118  0.00  0.00     0.285 C 
ENDROOT
BRANCH   3   8
HETATM    8  C   UNK N   1      21.985  17.441   5.791  0.00  0.00     0.007 C 
HETATM    9  C   UNK N   1      21.075  16.758   6.490  0.00  0.00     0.009 C 
BRANCH   9  10
HETATM   10  C   UNK N   1      21.485  15.697   7.438  0.00  0.00    -0.041 C 
HETATM   11  C   UNK N   1      20.799  15.496   8.577  0.00  0.00    -0.015 C 
HETATM   12  C   UNK N   1      21.142  14.417   9.568  0.00  0.00     0.032 C 
HETATM   13  C   UNK N   1      22.260  13.453   9.145  0.00  0.00     0.031 C 
HETATM   14  C   UNK N   1      23.000  13.818   7.885  0.00  0.00    -0.026 C 
HETATM   15  C   UNK N   1      22.636  14.840   7.103  0.00  0.00     0.007 C 
ENDBRANCH   9  10
ENDBRANCH   3   8
BRANCH   5  16
HETATM   16  O   UNK N   1      23.560  20.797   2.600  0.00  0.00    -0.360 OA
HETATM   17  C   UNK N   1      24.892  20.464   2.702  0.00  0.00     0.209 C 
ENDBRANCH   5  16
TORSDOF 3
ENDMDL
