MODEL 1
REMARK VINA RESULT:      -1.2      0.000      0.000
REMARK  1 active torsions:
REMARK  status: ('A' for Active; 'I' for Inactive)
REMARK    1  A    between atoms: Mg_1  and  Mg_1 
ROOT
HETATM    1 Mg   UNK N   1      39.964  21.073  13.075  0.00  0.00     0.000 Mg
ENDROOT
TORSDOF 1
ENDMDL
MODEL 2
REMARK VINA RESULT:      -1.2      4.352      4.352
REMARK  1 active torsions:
REMARK  status: ('A' for Active; 'I' for Inactive)
REMARK    1  A    between atoms: Mg_1  and  Mg_1 
ROOT
HETATM    1 Mg   UNK N   1      35.636  21.382  12.738  0.00  0.00     0.000 Mg
ENDROOT
TORSDOF 1
ENDMDL
MODEL 3
REMARK VINA RESULT:      -1.2     26.829     26.829
REMARK  1 active torsions:
REMARK  status: ('A' for Active; 'I' for Inactive)
REMARK    1  A    between atoms: Mg_1  and  Mg_1 
ROOT
HETATM    1 Mg   UNK N   1      21.453  21.778  -6.332  0.00  0.00     0.000 Mg
ENDROOT
TORSDOF 1
ENDMDL
MODEL 4
REMARK VINA RESULT:      -1.1      9.592      9.592
REMARK  1 active torsions:
REMARK  status: ('A' for Active; 'I' for Inactive)
REMARK    1  A    between atoms: Mg_1  and  Mg_1 
ROOT
HETATM    1 Mg   UNK N   1      43.320  25.304   5.147  0.00  0.00     0.000 Mg
ENDROOT
TORSDOF 1
ENDMDL
MODEL 5
REMARK VINA RESULT:      -1.1     21.919     21.919
REMARK  1 active torsions:
REMARK  status: ('A' for Active; 'I' for Inactive)
REMARK    1  A    between atoms: Mg_1  and  Mg_1 
ROOT
HETATM    1 Mg   UNK N   1      21.566  31.011  19.649  0.00  0.00     0.000 Mg
ENDROOT
TORSDOF 1
ENDMDL
MODEL 6
REMARK VINA RESULT:      -1.1     14.861     14.861
REMARK  1 active torsions:
REMARK  status: ('A' for Active; 'I' for Inactive)
REMARK    1  A    between atoms: Mg_1  and  Mg_1 
ROOT
HETATM    1 Mg   UNK N   1      48.686  30.680   5.830  0.00  0.00     0.000 Mg
ENDROOT
TORSDOF 1
ENDMDL
MODEL 7
REMARK VINA RESULT:      -1.0      9.125      9.125
REMARK  1 active torsions:
REMARK  status: ('A' for Active; 'I' for Inactive)
REMARK    1  A    between atoms: Mg_1  and  Mg_1 
ROOT
HETATM    1 Mg   UNK N   1      41.691  21.639  22.017  0.00  0.00     0.000 Mg
ENDROOT
TORSDOF 1
ENDMDL
MODEL 8
REMARK VINA RESULT:      -0.9      8.588      8.588
REMARK  1 active torsions:
REMARK  status: ('A' for Active; 'I' for Inactive)
REMARK    1  A    between atoms: Mg_1  and  Mg_1 
ROOT
HETATM    1 Mg   UNK N   1      46.909  23.949  17.228  0.00  0.00     0.000 Mg
ENDROOT
TORSDOF 1
ENDMDL
MODEL 9
REMARK VINA RESULT:      -0.9     24.088     24.088
REMARK  1 active torsions:
REMARK  status: ('A' for Active; 'I' for Inactive)
REMARK    1  A    between atoms: Mg_1  and  Mg_1 
ROOT
HETATM    1 Mg   UNK N   1      19.507  21.381   0.361  0.00  0.00     0.000 Mg
ENDROOT
TORSDOF 1
ENDMDL
