MODEL 1
REMARK VINA RESULT:      -6.6      0.000      0.000
REMARK  4 active torsions:
REMARK  status: ('A' for Active; 'I' for Inactive)
REMARK    1  A    between atoms: O_1  and  C_13 
REMARK    2  A    between atoms: N_4  and  C_10 
REMARK       I    between atoms: N_4  and  C_15 
REMARK    3  A    between atoms: C_5  and  C_7 
REMARK    4  A    between atoms: C_7  and  C_10 
ROOT
HETATM    1  N   UNK N   1      25.350  24.533  -5.985  0.00  0.00    -0.365 N 
HETATM    2  C   UNK N   1      26.682  24.353  -4.183  0.00  0.00    -0.029 A 
HETATM    3  C   UNK N   1      26.248  25.643  -4.267  0.00  0.00     0.001 A 
HETATM    4  C   UNK N   1      25.445  25.724  -5.366  0.00  0.00     0.043 A 
HETATM    5  C   UNK N   1      26.114  23.673  -5.260  0.00  0.00     0.096 A 
HETATM    6  C   UNK N   1      26.508  26.737  -3.454  0.00  0.00     0.051 A 
HETATM    7  C   UNK N   1      24.836  26.918  -5.738  0.00  0.00     0.033 A 
HETATM    8  C   UNK N   1      25.915  27.966  -3.789  0.00  0.00     0.069 A 
HETATM    9  C   UNK N   1      25.077  28.051  -4.937  0.00  0.00     0.039 A 
HETATM   10  H   UNK N   1      24.834  24.327  -6.798  0.00  0.00     0.165 HD
ENDROOT
BRANCH   2  11
HETATM   11  C   UNK N   1      27.589  23.822  -3.120  0.00  0.00     0.060 C 
BRANCH  11  12
HETATM   12  C   UNK N   1      29.015  24.268  -3.335  0.00  0.00     0.127 C 
BRANCH  12  13
HETATM   13  N   UNK N   1      29.826  23.134  -3.685  0.00  0.00    -0.361 N 
HETATM   14  C   UNK N   1      30.640  22.552  -2.778  0.00  0.00     0.213 C 
HETATM   15  O   UNK N   1      30.706  22.979  -1.635  0.00  0.00    -0.274 OA
HETATM   16  C   UNK N   1      31.466  21.380  -3.174  0.00  0.00     0.117 C 
HETATM   17  H   UNK N   1      29.787  22.775  -4.602  0.00  0.00     0.162 HD
ENDBRANCH  12  13
ENDBRANCH  11  12
ENDBRANCH   2  11
BRANCH   8  18
HETATM   18  O   UNK N   1      26.162  29.038  -3.004  0.00  0.00    -0.356 OA
HETATM   19  C   UNK N   1      26.494  30.277  -3.501  0.00  0.00     0.210 C 
ENDBRANCH   8  18
TORSDOF 4
ENDMDL
MODEL 2
REMARK VINA RESULT:      -5.8     11.682     14.989
REMARK  4 active torsions:
REMARK  status: ('A' for Active; 'I' for Inactive)
REMARK    1  A    between atoms: O_1  and  C_13 
REMARK    2  A    between atoms: N_4  and  C_10 
REMARK       I    between atoms: N_4  and  C_15 
REMARK    3  A    between atoms: C_5  and  C_7 
REMARK    4  A    between atoms: C_7  and  C_10 
ROOT
HETATM    1  N   UNK N   1      31.448  16.965   4.918  0.00  0.00    -0.365 N 
HETATM    2  C   UNK N   1      30.333  17.236   6.851  0.00  0.00    -0.029 A 
HETATM    3  C   UNK N   1      31.669  17.288   7.117  0.00  0.00     0.001 A 
HETATM    4  C   UNK N   1      32.319  17.121   5.930  0.00  0.00     0.043 A 
HETATM    5  C   UNK N   1      30.210  17.034   5.477  0.00  0.00     0.096 A 
HETATM    6  C   UNK N   1      32.344  17.469   8.316  0.00  0.00     0.051 A 
HETATM    7  C   UNK N   1      33.709  17.123   5.853  0.00  0.00     0.033 A 
HETATM    8  C   UNK N   1      33.748  17.479   8.289  0.00  0.00     0.069 A 
HETATM    9  C   UNK N   1      34.429  17.305   7.051  0.00  0.00     0.039 A 
HETATM   10  H   UNK N   1      31.662  16.828   3.967  0.00  0.00     0.165 HD
ENDROOT
BRANCH   2  11
HETATM   11  C   UNK N   1      29.250  17.374   7.873  0.00  0.00     0.060 C 
BRANCH  11  12
HETATM   12  C   UNK N   1      27.920  17.691   7.232  0.00  0.00     0.127 C 
BRANCH  12  13
HETATM   13  N   UNK N   1      27.663  19.101   7.330  0.00  0.00    -0.361 N 
HETATM   14  C   UNK N   1      27.558  19.870   6.224  0.00  0.00     0.213 C 
HETATM   15  O   UNK N   1      27.681  19.380   5.112  0.00  0.00    -0.274 OA
HETATM   16  C   UNK N   1      27.292  21.327   6.362  0.00  0.00     0.117 C 
HETATM   17  H   UNK N   1      27.561  19.515   8.219  0.00  0.00     0.162 HD
ENDBRANCH  12  13
ENDBRANCH  11  12
ENDBRANCH   2  11
BRANCH   8  18
HETATM   18  O   UNK N   1      34.416  17.655   9.452  0.00  0.00    -0.356 OA
HETATM   19  C   UNK N   1      35.026  16.628  10.134  0.00  0.00     0.210 C 
ENDBRANCH   8  18
TORSDOF 4
ENDMDL
MODEL 3
REMARK VINA RESULT:      -5.7     11.554     14.523
REMARK  4 active torsions:
REMARK  status: ('A' for Active; 'I' for Inactive)
REMARK    1  A    between atoms: O_1  and  C_13 
REMARK    2  A    between atoms: N_4  and  C_10 
REMARK       I    between atoms: N_4  and  C_15 
REMARK    3  A    between atoms: C_5  and  C_7 
REMARK    4  A    between atoms: C_7  and  C_10 
ROOT
HETATM    1  N   UNK N   1      30.791  18.139   9.377  0.00  0.00    -0.365 N 
HETATM    2  C   UNK N   1      29.487  17.356   7.722  0.00  0.00    -0.029 A 
HETATM    3  C   UNK N   1      30.776  17.378   7.277  0.00  0.00     0.001 A 
HETATM    4  C   UNK N   1      31.542  17.855   8.299  0.00  0.00     0.043 A 
HETATM    5  C   UNK N   1      29.512  17.833   9.032  0.00  0.00     0.096 A 
HETATM    6  C   UNK N   1      31.314  17.011   6.052  0.00  0.00     0.051 A 
HETATM    7  C   UNK N   1      32.920  18.004   8.169  0.00  0.00     0.033 A 
HETATM    8  C   UNK N   1      32.701  17.143   5.873  0.00  0.00     0.069 A 
HETATM    9  C   UNK N   1      33.502  17.642   6.938  0.00  0.00     0.039 A 
HETATM   10  H   UNK N   1      31.103  18.495  10.240  0.00  0.00     0.165 HD
ENDROOT
BRANCH   2  11
HETATM   11  C   UNK N   1      28.312  16.899   6.919  0.00  0.00     0.060 C 
BRANCH  11  12
HETATM   12  C   UNK N   1      27.896  17.936   5.904  0.00  0.00     0.127 C 
BRANCH  12  13
HETATM   13  N   UNK N   1      27.235  19.024   6.572  0.00  0.00    -0.361 N 
HETATM   14  C   UNK N   1      27.264  20.276   6.064  0.00  0.00     0.213 C 
HETATM   15  O   UNK N   1      27.856  20.512   5.022  0.00  0.00    -0.274 OA
HETATM   16  C   UNK N   1      26.569  21.378   6.781  0.00  0.00     0.117 C 
HETATM   17  H   UNK N   1      26.752  18.854   7.414  0.00  0.00     0.162 HD
ENDBRANCH  12  13
ENDBRANCH  11  12
ENDBRANCH   2  11
BRANCH   8  18
HETATM   18  O   UNK N   1      33.235  16.788   4.683  0.00  0.00    -0.356 OA
HETATM   19  C   UNK N   1      32.688  17.149   3.473  0.00  0.00     0.210 C 
ENDBRANCH   8  18
TORSDOF 4
ENDMDL
MODEL 4
REMARK VINA RESULT:      -5.7     12.976     14.037
REMARK  4 active torsions:
REMARK  status: ('A' for Active; 'I' for Inactive)
REMARK    1  A    between atoms: O_1  and  C_13 
REMARK    2  A    between atoms: N_4  and  C_10 
REMARK       I    between atoms: N_4  and  C_15 
REMARK    3  A    between atoms: C_5  and  C_7 
REMARK    4  A    between atoms: C_7  and  C_10 
ROOT
HETATM    1  N   UNK N   1      19.205  16.706   3.738  0.00  0.00    -0.365 N 
HETATM    2  C   UNK N   1      20.927  16.939   5.164  0.00  0.00    -0.029 A 
HETATM    3  C   UNK N   1      21.005  17.933   4.233  0.00  0.00     0.001 A 
HETATM    4  C   UNK N   1      19.951  17.768   3.384  0.00  0.00     0.043 A 
HETATM    5  C   UNK N   1      19.801  16.183   4.842  0.00  0.00     0.096 A 
HETATM    6  C   UNK N   1      21.927  18.959   4.084  0.00  0.00     0.051 A 
HETATM    7  C   UNK N   1      19.738  18.627   2.310  0.00  0.00     0.033 A 
HETATM    8  C   UNK N   1      21.754  19.853   3.014  0.00  0.00     0.069 A 
HETATM    9  C   UNK N   1      20.654  19.681   2.126  0.00  0.00     0.039 A 
HETATM   10  H   UNK N   1      18.393  16.376   3.289  0.00  0.00     0.165 HD
ENDROOT
BRANCH   2  11
HETATM   11  C   UNK N   1      21.890  16.744   6.290  0.00  0.00     0.060 C 
BRANCH  11  12
HETATM   12  C   UNK N   1      21.224  16.105   7.485  0.00  0.00     0.127 C 
BRANCH  12  13
HETATM   13  N   UNK N   1      20.280  17.025   8.057  0.00  0.00    -0.361 N 
HETATM   14  C   UNK N   1      19.231  16.585   8.787  0.00  0.00     0.213 C 
HETATM   15  O   UNK N   1      19.063  15.390   8.977  0.00  0.00    -0.274 OA
HETATM   16  C   UNK N   1      18.272  17.565   9.365  0.00  0.00     0.117 C 
HETATM   17  H   UNK N   1      20.398  17.993   7.915  0.00  0.00     0.162 HD
ENDBRANCH  12  13
ENDBRANCH  11  12
ENDBRANCH   2  11
BRANCH   8  18
HETATM   18  O   UNK N   1      22.646  20.856   2.860  0.00  0.00    -0.356 OA
HETATM   19  C   UNK N   1      24.008  20.673   2.934  0.00  0.00     0.210 C 
ENDBRANCH   8  18
TORSDOF 4
ENDMDL
MODEL 5
REMARK VINA RESULT:      -5.5     15.325     18.891
REMARK  4 active torsions:
REMARK  status: ('A' for Active; 'I' for Inactive)
REMARK    1  A    between atoms: O_1  and  C_13 
REMARK    2  A    between atoms: N_4  and  C_10 
REMARK       I    between atoms: N_4  and  C_15 
REMARK    3  A    between atoms: C_5  and  C_7 
REMARK    4  A    between atoms: C_7  and  C_10 
ROOT
HETATM    1  N   UNK N   1      35.257  17.505  10.202  0.00  0.00    -0.365 N 
HETATM    2  C   UNK N   1      34.649  15.341  10.192  0.00  0.00    -0.029 A 
HETATM    3  C   UNK N   1      34.181  15.922   9.050  0.00  0.00     0.001 A 
HETATM    4  C   UNK N   1      34.564  17.230   9.082  0.00  0.00     0.043 A 
HETATM    5  C   UNK N   1      35.317  16.340  10.899  0.00  0.00     0.096 A 
HETATM    6  C   UNK N   1      33.452  15.385   7.998  0.00  0.00     0.051 A 
HETATM    7  C   UNK N   1      34.242  18.110   8.053  0.00  0.00     0.033 A 
HETATM    8  C   UNK N   1      33.103  16.234   6.935  0.00  0.00     0.069 A 
HETATM    9  C   UNK N   1      33.502  17.601   6.968  0.00  0.00     0.039 A 
HETATM   10  H   UNK N   1      35.643  18.373  10.462  0.00  0.00     0.165 HD
ENDROOT
BRANCH   2  11
HETATM   11  C   UNK N   1      34.454  13.906  10.564  0.00  0.00     0.060 C 
BRANCH  11  12
HETATM   12  C   UNK N   1      35.189  13.559  11.837  0.00  0.00     0.127 C 
BRANCH  12  13
HETATM   13  N   UNK N   1      34.700  12.308  12.348  0.00  0.00    -0.361 N 
HETATM   14  C   UNK N   1      34.486  12.130  13.670  0.00  0.00     0.213 C 
HETATM   15  O   UNK N   1      34.705  13.033  14.463  0.00  0.00    -0.274 OA
HETATM   16  C   UNK N   1      33.979  10.822  14.165  0.00  0.00     0.117 C 
HETATM   17  H   UNK N   1      34.518  11.567  11.724  0.00  0.00     0.162 HD
ENDBRANCH  12  13
ENDBRANCH  11  12
ENDBRANCH   2  11
BRANCH   8  18
HETATM   18  O   UNK N   1      32.393  15.722   5.906  0.00  0.00    -0.356 OA
HETATM   19  C   UNK N   1      31.018  15.698   5.876  0.00  0.00     0.210 C 
ENDBRANCH   8  18
TORSDOF 4
ENDMDL
MODEL 6
REMARK VINA RESULT:      -5.4     24.459     27.849
REMARK  4 active torsions:
REMARK  status: ('A' for Active; 'I' for Inactive)
REMARK    1  A    between atoms: O_1  and  C_13 
REMARK    2  A    between atoms: N_4  and  C_10 
REMARK       I    between atoms: N_4  and  C_15 
REMARK    3  A    between atoms: C_5  and  C_7 
REMARK    4  A    between atoms: C_7  and  C_10 
ROOT
HETATM    1  N   UNK N   1      35.613  12.346  20.166  0.00  0.00    -0.365 N 
HETATM    2  C   UNK N   1      35.317  10.460  18.979  0.00  0.00    -0.029 A 
HETATM    3  C   UNK N   1      35.174  11.522  18.136  0.00  0.00     0.001 A 
HETATM    4  C   UNK N   1      35.357  12.650  18.881  0.00  0.00     0.043 A 
HETATM    5  C   UNK N   1      35.591  10.988  20.240  0.00  0.00     0.096 A 
HETATM    6  C   UNK N   1      34.896  11.565  16.777  0.00  0.00     0.051 A 
HETATM    7  C   UNK N   1      35.276  13.919  18.315  0.00  0.00     0.033 A 
HETATM    8  C   UNK N   1      34.804  12.824  16.161  0.00  0.00     0.069 A 
HETATM    9  C   UNK N   1      34.996  14.002  16.937  0.00  0.00     0.039 A 
HETATM   10  H   UNK N   1      35.781  12.977  20.902  0.00  0.00     0.165 HD
ENDROOT
BRANCH   2  11
HETATM   11  C   UNK N   1      35.196   9.025  18.576  0.00  0.00     0.060 C 
BRANCH  11  12
HETATM   12  C   UNK N   1      34.679   8.173  19.710  0.00  0.00     0.127 C 
BRANCH  12  13
HETATM   13  N   UNK N   1      33.290   7.876  19.494  0.00  0.00    -0.361 N 
HETATM   14  C   UNK N   1      32.327   8.467  20.235  0.00  0.00     0.213 C 
HETATM   15  O   UNK N   1      32.618   9.270  21.108  0.00  0.00    -0.274 OA
HETATM   16  C   UNK N   1      30.898   8.138  19.985  0.00  0.00     0.117 C 
HETATM   17  H   UNK N   1      33.035   7.231  18.794  0.00  0.00     0.162 HD
ENDBRANCH  12  13
ENDBRANCH  11  12
ENDBRANCH   2  11
BRANCH   8  18
HETATM   18  O   UNK N   1      34.534  12.877  14.838  0.00  0.00    -0.356 OA
HETATM   19  C   UNK N   1      35.334  12.296  13.881  0.00  0.00     0.210 C 
ENDBRANCH   8  18
TORSDOF 4
ENDMDL
MODEL 7
REMARK VINA RESULT:      -5.4      3.362      4.319
REMARK  4 active torsions:
REMARK  status: ('A' for Active; 'I' for Inactive)
REMARK    1  A    between atoms: O_1  and  C_13 
REMARK    2  A    between atoms: N_4  and  C_10 
REMARK       I    between atoms: N_4  and  C_15 
REMARK    3  A    between atoms: C_5  and  C_7 
REMARK    4  A    between atoms: C_7  and  C_10 
ROOT
HETATM    1  N   UNK N   1      27.850  27.604  -7.861  0.00  0.00    -0.365 N 
HETATM    2  C   UNK N   1      26.274  26.938  -6.403  0.00  0.00    -0.029 A 
HETATM    3  C   UNK N   1      26.829  28.092  -5.935  0.00  0.00     0.001 A 
HETATM    4  C   UNK N   1      27.779  28.472  -6.837  0.00  0.00     0.043 A 
HETATM    5  C   UNK N   1      26.920  26.646  -7.604  0.00  0.00     0.096 A 
HETATM    6  C   UNK N   1      26.559  28.822  -4.786  0.00  0.00     0.051 A 
HETATM    7  C   UNK N   1      28.538  29.624  -6.653  0.00  0.00     0.033 A 
HETATM    8  C   UNK N   1      27.301  29.993  -4.557  0.00  0.00     0.069 A 
HETATM    9  C   UNK N   1      28.293  30.391  -5.497  0.00  0.00     0.039 A 
HETATM   10  H   UNK N   1      28.452  27.653  -8.638  0.00  0.00     0.165 HD
ENDROOT
BRANCH   2  11
HETATM   11  C   UNK N   1      25.185  26.173  -5.721  0.00  0.00     0.060 C 
BRANCH  11  12
HETATM   12  C   UNK N   1      25.693  24.868  -5.157  0.00  0.00     0.127 C 
BRANCH  12  13
HETATM   13  N   UNK N   1      25.177  23.775  -5.935  0.00  0.00    -0.361 N 
HETATM   14  C   UNK N   1      26.000  22.983  -6.657  0.00  0.00     0.213 C 
HETATM   15  O   UNK N   1      27.206  23.178  -6.663  0.00  0.00    -0.274 OA
HETATM   16  C   UNK N   1      25.432  21.860  -7.451  0.00  0.00     0.117 C 
HETATM   17  H   UNK N   1      24.207  23.601  -5.943  0.00  0.00     0.162 HD
ENDBRANCH  12  13
ENDBRANCH  11  12
ENDBRANCH   2  11
BRANCH   8  18
HETATM   18  O   UNK N   1      27.046  30.711  -3.441  0.00  0.00    -0.356 OA
HETATM   19  C   UNK N   1      27.777  30.588  -2.282  0.00  0.00     0.210 C 
ENDBRANCH   8  18
TORSDOF 4
ENDMDL
MODEL 8
REMARK VINA RESULT:      -5.4     10.695     12.342
REMARK  4 active torsions:
REMARK  status: ('A' for Active; 'I' for Inactive)
REMARK    1  A    between atoms: O_1  and  C_13 
REMARK    2  A    between atoms: N_4  and  C_10 
REMARK       I    between atoms: N_4  and  C_15 
REMARK    3  A    between atoms: C_5  and  C_7 
REMARK    4  A    between atoms: C_7  and  C_10 
ROOT
HETATM    1  N   UNK N   1      28.296  17.903   3.579  0.00  0.00    -0.365 N 
HETATM    2  C   UNK N   1      29.269  17.598   5.582  0.00  0.00    -0.029 A 
HETATM    3  C   UNK N   1      28.406  18.650   5.681  0.00  0.00     0.001 A 
HETATM    4  C   UNK N   1      27.832  18.812   4.455  0.00  0.00     0.043 A 
HETATM    5  C   UNK N   1      29.189  17.143   4.267  0.00  0.00     0.096 A 
HETATM    6  C   UNK N   1      28.096  19.464   6.761  0.00  0.00     0.051 A 
HETATM    7  C   UNK N   1      26.894  19.812   4.215  0.00  0.00     0.033 A 
HETATM    8  C   UNK N   1      27.154  20.488   6.568  0.00  0.00     0.069 A 
HETATM    9  C   UNK N   1      26.554  20.658   5.289  0.00  0.00     0.039 A 
HETATM   10  H   UNK N   1      28.040  17.808   2.633  0.00  0.00     0.165 HD
ENDROOT
BRANCH   2  11
HETATM   11  C   UNK N   1      30.113  17.075   6.700  0.00  0.00     0.060 C 
BRANCH  11  12
HETATM   12  C   UNK N   1      31.559  16.945   6.288  0.00  0.00     0.127 C 
BRANCH  12  13
HETATM   13  N   UNK N   1      32.405  17.418   7.349  0.00  0.00    -0.361 N 
HETATM   14  C   UNK N   1      33.671  17.823   7.104  0.00  0.00     0.213 C 
HETATM   15  O   UNK N   1      34.126  17.795   5.971  0.00  0.00    -0.274 OA
HETATM   16  C   UNK N   1      34.519  18.308   8.226  0.00  0.00     0.117 C 
HETATM   17  H   UNK N   1      32.057  17.449   8.270  0.00  0.00     0.162 HD
ENDBRANCH  12  13
ENDBRANCH  11  12
ENDBRANCH   2  11
BRANCH   8  18
HETATM   18  O   UNK N   1      26.845  21.287   7.614  0.00  0.00    -0.356 OA
HETATM   19  C   UNK N   1      25.572  21.744   7.863  0.00  0.00     0.210 C 
ENDBRANCH   8  18
TORSDOF 4
ENDMDL
MODEL 9
REMARK VINA RESULT:      -5.3     10.832     14.877
REMARK  4 active torsions:
REMARK  status: ('A' for Active; 'I' for Inactive)
REMARK    1  A    between atoms: O_1  and  C_13 
REMARK    2  A    between atoms: N_4  and  C_10 
REMARK       I    between atoms: N_4  and  C_15 
REMARK    3  A    between atoms: C_5  and  C_7 
REMARK    4  A    between atoms: C_7  and  C_10 
ROOT
HETATM    1  N   UNK N   1      30.983  18.204   8.924  0.00  0.00    -0.365 N 
HETATM    2  C   UNK N   1      30.309  17.141   7.061  0.00  0.00    -0.029 A 
HETATM    3  C   UNK N   1      31.672  17.125   7.093  0.00  0.00     0.001 A 
HETATM    4  C   UNK N   1      32.052  17.774   8.230  0.00  0.00     0.043 A 
HETATM    5  C   UNK N   1      29.894  17.817   8.208  0.00  0.00     0.096 A 
HETATM    6  C   UNK N   1      32.590  16.585   6.203  0.00  0.00     0.051 A 
HETATM    7  C   UNK N   1      33.394  17.934   8.565  0.00  0.00     0.033 A 
HETATM    8  C   UNK N   1      33.956  16.721   6.498  0.00  0.00     0.069 A 
HETATM    9  C   UNK N   1      34.354  17.399   7.685  0.00  0.00     0.039 A 
HETATM   10  H   UNK N   1      30.988  18.698   9.775  0.00  0.00     0.165 HD
ENDROOT
BRANCH   2  11
HETATM   11  C   UNK N   1      29.471  16.536   5.981  0.00  0.00     0.060 C 
BRANCH  11  12
HETATM   12  C   UNK N   1      29.629  17.278   4.675  0.00  0.00     0.127 C 
BRANCH  12  13
HETATM   13  N   UNK N   1      29.030  18.579   4.786  0.00  0.00    -0.361 N 
HETATM   14  C   UNK N   1      27.808  18.831   4.266  0.00  0.00     0.213 C 
HETATM   15  O   UNK N   1      27.185  17.955   3.687  0.00  0.00    -0.274 OA
HETATM   16  C   UNK N   1      27.217  20.190   4.399  0.00  0.00     0.117 C 
HETATM   17  H   UNK N   1      29.517  19.300   5.249  0.00  0.00     0.162 HD
ENDBRANCH  12  13
ENDBRANCH  11  12
ENDBRANCH   2  11
BRANCH   8  18
HETATM   18  O   UNK N   1      34.858  16.198   5.637  0.00  0.00    -0.356 OA
HETATM   19  C   UNK N   1      35.442  14.965   5.813  0.00  0.00     0.210 C 
ENDBRANCH   8  18
TORSDOF 4
ENDMDL
