MODEL 1
REMARK VINA RESULT:      -7.5      0.000      0.000
REMARK  1 active torsions:
REMARK  status: ('A' for Active; 'I' for Inactive)
REMARK    1  A    between atoms: C_3  and  O_4 
ROOT
HETATM    1  C   UNK N   1      36.419  10.761  14.929  0.00  0.00     0.016 C 
HETATM    2  C   UNK N   1      36.719  11.467  13.595  0.00  0.00     0.033 C 
HETATM    3  C   UNK N   1      36.856  12.978  13.806  0.00  0.00     0.122 C 
HETATM    4  C   UNK N   1      35.583  13.552  14.436  0.00  0.00     0.066 C 
HETATM    5  C   UNK N   1      35.282  12.784  15.687  0.00  0.00    -0.072 C 
HETATM    6  C   UNK N   1      35.341  13.425  16.863  0.00  0.00    -0.023 C 
HETATM    7  C   UNK N   1      35.211  12.726  18.183  0.00  0.00     0.033 C 
HETATM    8  C   UNK N   1      35.548  11.231  18.107  0.00  0.00    -0.001 C 
HETATM    9  C   UNK N   1      34.801  10.578  16.932  0.00  0.00     0.003 C 
HETATM   10  C   UNK N   1      35.110  11.274  15.567  0.00  0.00    -0.017 C 
HETATM   11  C   UNK N   1      35.117   9.056  16.848  0.00  0.00     0.007 C 
HETATM   12  C   UNK N   1      35.611   8.430  18.169  0.00  0.00     0.018 C 
HETATM   13  C   UNK N   1      34.883   9.045  19.360  0.00  0.00     0.021 C 
HETATM   14  C   UNK N   1      35.135  10.566  19.449  0.00  0.00     0.006 C 
HETATM   15  C   UNK N   1      36.212  10.766  20.520  0.00  0.00     0.013 C 
HETATM   16  C   UNK N   1      36.070   9.600  21.490  0.00  0.00     0.079 C 
HETATM   17  C   UNK N   1      35.413   8.560  20.660  0.00  0.00     0.135 C 
HETATM   18  O   UNK N   1      35.337   7.396  21.018  0.00  0.00    -0.297 OA
HETATM   19  C   UNK N   1      33.390   8.726  19.251  0.00  0.00     0.024 C 
HETATM   20  C   UNK N   1      33.953  10.959  14.617  0.00  0.00     0.020 C 
ENDROOT
BRANCH   3  21
HETATM   21  O   UNK N   1      37.088  13.600  12.580  0.00  0.00    -0.395 OA
HETATM   22  H   UNK N   1      37.518  13.112  11.861  0.00  0.00     0.210 HD
ENDBRANCH   3  21
TORSDOF 1
ENDMDL
MODEL 2
REMARK VINA RESULT:      -7.3     27.189     29.223
REMARK  1 active torsions:
REMARK  status: ('A' for Active; 'I' for Inactive)
REMARK    1  A    between atoms: C_3  and  O_4 
ROOT
HETATM    1  C   UNK N   1      26.934  27.752  -5.971  0.00  0.00     0.016 C 
HETATM    2  C   UNK N   1      26.857  29.039  -5.130  0.00  0.00     0.033 C 
HETATM    3  C   UNK N   1      27.135  28.733  -3.656  0.00  0.00     0.122 C 
HETATM    4  C   UNK N   1      26.145  27.691  -3.124  0.00  0.00     0.066 C 
HETATM    5  C   UNK N   1      26.193  26.489  -4.019  0.00  0.00    -0.072 C 
HETATM    6  C   UNK N   1      26.639  25.331  -3.513  0.00  0.00    -0.023 C 
HETATM    7  C   UNK N   1      26.874  24.109  -4.350  0.00  0.00     0.033 C 
HETATM    8  C   UNK N   1      27.088  24.431  -5.835  0.00  0.00    -0.001 C 
HETATM    9  C   UNK N   1      25.987  25.379  -6.336  0.00  0.00     0.003 C 
HETATM   10  C   UNK N   1      25.909  26.698  -5.502  0.00  0.00    -0.017 C 
HETATM   11  C   UNK N   1      26.178  25.704  -7.847  0.00  0.00     0.007 C 
HETATM   12  C   UNK N   1      27.011  24.665  -8.626  0.00  0.00     0.018 C 
HETATM   13  C   UNK N   1      26.711  23.255  -8.129  0.00  0.00     0.021 C 
HETATM   14  C   UNK N   1      27.063  23.098  -6.633  0.00  0.00     0.006 C 
HETATM   15  C   UNK N   1      28.422  22.393  -6.578  0.00  0.00     0.013 C 
HETATM   16  C   UNK N   1      28.514  21.546  -7.840  0.00  0.00     0.079 C 
HETATM   17  C   UNK N   1      27.580  22.232  -8.766  0.00  0.00     0.135 C 
HETATM   18  O   UNK N   1      27.550  21.984  -9.961  0.00  0.00    -0.297 OA
HETATM   19  C   UNK N   1      25.239  22.932  -8.399  0.00  0.00     0.024 C 
HETATM   20  C   UNK N   1      24.503  27.275  -5.683  0.00  0.00     0.020 C 
ENDROOT
BRANCH   3  21
HETATM   21  O   UNK N   1      27.021  29.904  -2.908  0.00  0.00    -0.395 OA
HETATM   22  H   UNK N   1      27.806  30.295  -2.494  0.00  0.00     0.210 HD
ENDBRANCH   3  21
TORSDOF 1
ENDMDL
MODEL 3
REMARK VINA RESULT:      -7.1     23.492     27.365
REMARK  1 active torsions:
REMARK  status: ('A' for Active; 'I' for Inactive)
REMARK    1  A    between atoms: C_3  and  O_4 
ROOT
HETATM    1  C   UNK N   1      29.080  22.680  -3.615  0.00  0.00     0.016 C 
HETATM    2  C   UNK N   1      30.117  21.645  -3.144  0.00  0.00     0.033 C 
HETATM    3  C   UNK N   1      31.390  22.344  -2.658  0.00  0.00     0.122 C 
HETATM    4  C   UNK N   1      31.981  23.221  -3.767  0.00  0.00     0.066 C 
HETATM    5  C   UNK N   1      30.915  24.157  -4.252  0.00  0.00    -0.072 C 
HETATM    6  C   UNK N   1      31.079  25.473  -4.057  0.00  0.00    -0.023 C 
HETATM    7  C   UNK N   1      30.015  26.484  -4.360  0.00  0.00     0.033 C 
HETATM    8  C   UNK N   1      28.604  25.883  -4.383  0.00  0.00    -0.001 C 
HETATM    9  C   UNK N   1      28.583  24.613  -5.251  0.00  0.00     0.003 C 
HETATM   10  C   UNK N   1      29.619  23.546  -4.773  0.00  0.00    -0.017 C 
HETATM   11  C   UNK N   1      27.154  23.997  -5.300  0.00  0.00     0.007 C 
HETATM   12  C   UNK N   1      26.015  24.989  -4.980  0.00  0.00     0.018 C 
HETATM   13  C   UNK N   1      26.327  26.366  -5.556  0.00  0.00     0.021 C 
HETATM   14  C   UNK N   1      27.626  26.947  -4.954  0.00  0.00     0.006 C 
HETATM   15  C   UNK N   1      27.197  27.942  -3.871  0.00  0.00     0.013 C 
HETATM   16  C   UNK N   1      25.831  28.467  -4.293  0.00  0.00     0.079 C 
HETATM   17  C   UNK N   1      25.317  27.384  -5.168  0.00  0.00     0.135 C 
HETATM   18  O   UNK N   1      24.149  27.331  -5.519  0.00  0.00    -0.297 OA
HETATM   19  C   UNK N   1      26.408  26.264  -7.081  0.00  0.00     0.024 C 
HETATM   20  C   UNK N   1      29.920  22.631  -5.963  0.00  0.00     0.020 C 
ENDROOT
BRANCH   3  21
HETATM   21  O   UNK N   1      32.329  21.388  -2.275  0.00  0.00    -0.395 OA
HETATM   22  H   UNK N   1      33.222  21.404  -2.653  0.00  0.00     0.210 HD
ENDBRANCH   3  21
TORSDOF 1
ENDMDL
MODEL 4
REMARK VINA RESULT:      -7.0     28.085     29.774
REMARK  1 active torsions:
REMARK  status: ('A' for Active; 'I' for Inactive)
REMARK    1  A    between atoms: C_3  and  O_4 
ROOT
HETATM    1  C   UNK N   1      26.275  25.082  -8.363  0.00  0.00     0.016 C 
HETATM    2  C   UNK N   1      25.847  23.812  -9.118  0.00  0.00     0.033 C 
HETATM    3  C   UNK N   1      25.053  22.880  -8.197  0.00  0.00     0.122 C 
HETATM    4  C   UNK N   1      25.882  22.509  -6.962  0.00  0.00     0.066 C 
HETATM    5  C   UNK N   1      26.348  23.773  -6.304  0.00  0.00    -0.072 C 
HETATM    6  C   UNK N   1      25.895  24.061  -5.075  0.00  0.00    -0.023 C 
HETATM    7  C   UNK N   1      26.169  25.364  -4.386  0.00  0.00     0.033 C 
HETATM    8  C   UNK N   1      26.516  26.497  -5.360  0.00  0.00    -0.001 C 
HETATM    9  C   UNK N   1      27.591  26.031  -6.355  0.00  0.00     0.003 C 
HETATM   10  C   UNK N   1      27.162  24.752  -7.143  0.00  0.00    -0.017 C 
HETATM   11  C   UNK N   1      27.969  27.174  -7.343  0.00  0.00     0.007 C 
HETATM   12  C   UNK N   1      27.652  28.595  -6.830  0.00  0.00     0.018 C 
HETATM   13  C   UNK N   1      27.915  28.696  -5.332  0.00  0.00     0.021 C 
HETATM   14  C   UNK N   1      27.028  27.712  -4.537  0.00  0.00     0.006 C 
HETATM   15  C   UNK N   1      25.861  28.533  -3.979  0.00  0.00     0.013 C 
HETATM   16  C   UNK N   1      26.384  29.952  -3.805  0.00  0.00     0.079 C 
HETATM   17  C   UNK N   1      27.508  30.010  -4.772  0.00  0.00     0.135 C 
HETATM   18  O   UNK N   1      28.037  31.062  -5.092  0.00  0.00    -0.297 OA
HETATM   19  C   UNK N   1      29.403  28.452  -5.068  0.00  0.00     0.024 C 
HETATM   20  C   UNK N   1      28.437  24.068  -7.642  0.00  0.00     0.020 C 
ENDROOT
BRANCH   3  21
HETATM   21  O   UNK N   1      24.710  21.721  -8.889  0.00  0.00    -0.395 OA
HETATM   22  H   UNK N   1      24.896  20.851  -8.503  0.00  0.00     0.210 HD
ENDBRANCH   3  21
TORSDOF 1
ENDMDL
MODEL 5
REMARK VINA RESULT:      -6.9      1.453      6.161
REMARK  1 active torsions:
REMARK  status: ('A' for Active; 'I' for Inactive)
REMARK    1  A    between atoms: C_3  and  O_4 
ROOT
HETATM    1  C   UNK N   1      34.513   9.095  18.099  0.00  0.00     0.016 C 
HETATM    2  C   UNK N   1      33.984   8.543  19.435  0.00  0.00     0.033 C 
HETATM    3  C   UNK N   1      33.569   9.689  20.363  0.00  0.00     0.122 C 
HETATM    4  C   UNK N   1      34.748  10.637  20.609  0.00  0.00     0.066 C 
HETATM    5  C   UNK N   1      35.284  11.085  19.283  0.00  0.00    -0.072 C 
HETATM    6  C   UNK N   1      35.186  12.383  18.957  0.00  0.00    -0.023 C 
HETATM    7  C   UNK N   1      35.546  12.915  17.603  0.00  0.00     0.033 C 
HETATM    8  C   UNK N   1      35.505  11.843  16.506  0.00  0.00    -0.001 C 
HETATM    9  C   UNK N   1      36.277  10.593  16.956  0.00  0.00     0.003 C 
HETATM   10  C   UNK N   1      35.739  10.011  18.303  0.00  0.00    -0.017 C 
HETATM   11  C   UNK N   1      36.260   9.499  15.848  0.00  0.00     0.007 C 
HETATM   12  C   UNK N   1      35.996  10.033  14.424  0.00  0.00     0.018 C 
HETATM   13  C   UNK N   1      36.674  11.383  14.223  0.00  0.00     0.021 C 
HETATM   14  C   UNK N   1      36.136  12.437  15.216  0.00  0.00     0.006 C 
HETATM   15  C   UNK N   1      35.122  13.286  14.443  0.00  0.00     0.013 C 
HETATM   16  C   UNK N   1      35.560  13.248  12.985  0.00  0.00     0.079 C 
HETATM   17  C   UNK N   1      36.346  11.992  12.909  0.00  0.00     0.135 C 
HETATM   18  O   UNK N   1      36.675  11.494  11.843  0.00  0.00    -0.297 OA
HETATM   19  C   UNK N   1      38.189  11.206  14.354  0.00  0.00     0.024 C 
HETATM   20  C   UNK N   1      36.863   9.183  18.928  0.00  0.00     0.020 C 
ENDROOT
BRANCH   3  21
HETATM   21  O   UNK N   1      33.132   9.168  21.579  0.00  0.00    -0.395 OA
HETATM   22  H   UNK N   1      32.477   9.652  22.107  0.00  0.00     0.210 HD
ENDBRANCH   3  21
TORSDOF 1
ENDMDL
MODEL 6
REMARK VINA RESULT:      -6.7     23.856     27.331
REMARK  1 active torsions:
REMARK  status: ('A' for Active; 'I' for Inactive)
REMARK    1  A    between atoms: C_3  and  O_4 
ROOT
HETATM    1  C   UNK N   1      28.629  27.975  -4.708  0.00  0.00     0.016 C 
HETATM    2  C   UNK N   1      27.842  29.296  -4.654  0.00  0.00     0.033 C 
HETATM    3  C   UNK N   1      26.658  29.177  -3.691  0.00  0.00     0.122 C 
HETATM    4  C   UNK N   1      25.736  28.026  -4.110  0.00  0.00     0.066 C 
HETATM    5  C   UNK N   1      26.557  26.778  -4.230  0.00  0.00    -0.072 C 
HETATM    6  C   UNK N   1      26.312  25.766  -3.385  0.00  0.00    -0.023 C 
HETATM    7  C   UNK N   1      27.168  24.537  -3.313  0.00  0.00     0.033 C 
HETATM    8  C   UNK N   1      28.586  24.758  -3.854  0.00  0.00    -0.001 C 
HETATM    9  C   UNK N   1      28.527  25.448  -5.227  0.00  0.00     0.003 C 
HETATM   10  C   UNK N   1      27.746  26.801  -5.183  0.00  0.00    -0.017 C 
HETATM   11  C   UNK N   1      29.958  25.667  -5.802  0.00  0.00     0.007 C 
HETATM   12  C   UNK N   1      31.034  24.728  -5.218  0.00  0.00     0.018 C 
HETATM   13  C   UNK N   1      30.459  23.336  -4.978  0.00  0.00     0.021 C 
HETATM   14  C   UNK N   1      29.288  23.377  -3.970  0.00  0.00     0.006 C 
HETATM   15  C   UNK N   1      29.860  22.932  -2.621  0.00  0.00     0.013 C 
HETATM   16  C   UNK N   1      31.028  22.007  -2.938  0.00  0.00     0.079 C 
HETATM   17  C   UNK N   1      31.424  22.432  -4.302  0.00  0.00     0.135 C 
HETATM   18  O   UNK N   1      32.475  22.078  -4.814  0.00  0.00    -0.297 OA
HETATM   19  C   UNK N   1      30.028  22.735  -6.318  0.00  0.00     0.024 C 
HETATM   20  C   UNK N   1      27.265  27.101  -6.604  0.00  0.00     0.020 C 
ENDROOT
BRANCH   3  21
HETATM   21  O   UNK N   1      25.938  30.370  -3.687  0.00  0.00    -0.395 OA
HETATM   22  H   UNK N   1      26.377  31.203  -3.917  0.00  0.00     0.210 HD
ENDBRANCH   3  21
TORSDOF 1
ENDMDL
MODEL 7
REMARK VINA RESULT:      -6.6     28.472     29.533
REMARK  1 active torsions:
REMARK  status: ('A' for Active; 'I' for Inactive)
REMARK    1  A    between atoms: C_3  and  O_4 
ROOT
HETATM    1  C   UNK N   1      28.632  27.727  -4.504  0.00  0.00     0.016 C 
HETATM    2  C   UNK N   1      28.817  28.903  -3.530  0.00  0.00     0.033 C 
HETATM    3  C   UNK N   1      27.502  29.214  -2.808  0.00  0.00     0.122 C 
HETATM    4  C   UNK N   1      26.394  29.530  -3.818  0.00  0.00     0.066 C 
HETATM    5  C   UNK N   1      26.304  28.397  -4.796  0.00  0.00    -0.072 C 
HETATM    6  C   UNK N   1      25.184  27.660  -4.822  0.00  0.00    -0.023 C 
HETATM    7  C   UNK N   1      25.043  26.416  -5.646  0.00  0.00     0.033 C 
HETATM    8  C   UNK N   1      26.391  25.776  -6.003  0.00  0.00    -0.001 C 
HETATM    9  C   UNK N   1      27.351  26.839  -6.562  0.00  0.00     0.003 C 
HETATM   10  C   UNK N   1      27.562  28.032  -5.575  0.00  0.00    -0.017 C 
HETATM   11  C   UNK N   1      28.720  26.205  -6.946  0.00  0.00     0.007 C 
HETATM   12  C   UNK N   1      28.671  24.686  -7.213  0.00  0.00     0.018 C 
HETATM   13  C   UNK N   1      27.374  24.306  -7.918  0.00  0.00     0.021 C 
HETATM   14  C   UNK N   1      26.141  24.662  -7.058  0.00  0.00     0.006 C 
HETATM   15  C   UNK N   1      25.686  23.361  -6.390  0.00  0.00     0.013 C 
HETATM   16  C   UNK N   1      26.107  22.234  -7.324  0.00  0.00     0.079 C 
HETATM   17  C   UNK N   1      27.228  22.838  -8.085  0.00  0.00     0.135 C 
HETATM   18  O   UNK N   1      27.980  22.169  -8.777  0.00  0.00    -0.297 OA
HETATM   19  C   UNK N   1      27.326  24.997  -9.283  0.00  0.00     0.024 C 
HETATM   20  C   UNK N   1      28.029  29.234  -6.398  0.00  0.00     0.020 C 
ENDROOT
BRANCH   3  21
HETATM   21  O   UNK N   1      27.682  30.306  -1.961  0.00  0.00    -0.395 OA
HETATM   22  H   UNK N   1      27.079  31.064  -2.010  0.00  0.00     0.210 HD
ENDBRANCH   3  21
TORSDOF 1
ENDMDL
MODEL 8
REMARK VINA RESULT:      -6.6     27.664     29.526
REMARK  1 active torsions:
REMARK  status: ('A' for Active; 'I' for Inactive)
REMARK    1  A    between atoms: C_3  and  O_4 
ROOT
HETATM    1  C   UNK N   1      26.022  26.993  -4.192  0.00  0.00     0.016 C 
HETATM    2  C   UNK N   1      25.971  28.279  -3.349  0.00  0.00     0.033 C 
HETATM    3  C   UNK N   1      26.176  29.511  -4.235  0.00  0.00     0.122 C 
HETATM    4  C   UNK N   1      27.510  29.421  -4.984  0.00  0.00     0.066 C 
HETATM    5  C   UNK N   1      27.552  28.118  -5.725  0.00  0.00    -0.072 C 
HETATM    6  C   UNK N   1      27.577  28.144  -7.066  0.00  0.00    -0.023 C 
HETATM    7  C   UNK N   1      27.465  26.909  -7.909  0.00  0.00     0.033 C 
HETATM    8  C   UNK N   1      26.796  25.739  -7.176  0.00  0.00    -0.001 C 
HETATM    9  C   UNK N   1      27.437  25.544  -5.792  0.00  0.00     0.003 C 
HETATM   10  C   UNK N   1      27.376  26.837  -4.918  0.00  0.00    -0.017 C 
HETATM   11  C   UNK N   1      26.781  24.349  -5.039  0.00  0.00     0.007 C 
HETATM   12  C   UNK N   1      26.080  23.321  -5.953  0.00  0.00     0.018 C 
HETATM   13  C   UNK N   1      26.862  23.135  -7.249  0.00  0.00     0.021 C 
HETATM   14  C   UNK N   1      26.966  24.458  -8.039  0.00  0.00     0.006 C 
HETATM   15  C   UNK N   1      25.905  24.390  -9.143  0.00  0.00     0.013 C 
HETATM   16  C   UNK N   1      25.717  22.912  -9.461  0.00  0.00     0.079 C 
HETATM   17  C   UNK N   1      26.161  22.247  -8.211  0.00  0.00     0.135 C 
HETATM   18  O   UNK N   1      25.944  21.066  -7.991  0.00  0.00    -0.297 OA
HETATM   19  C   UNK N   1      28.244  22.565  -6.921  0.00  0.00     0.024 C 
HETATM   20  C   UNK N   1      28.481  26.733  -3.864  0.00  0.00     0.020 C 
ENDROOT
BRANCH   3  21
HETATM   21  O   UNK N   1      26.166  30.660  -3.446  0.00  0.00    -0.395 OA
HETATM   22  H   UNK N   1      26.379  30.603  -2.501  0.00  0.00     0.210 HD
ENDBRANCH   3  21
TORSDOF 1
ENDMDL
MODEL 9
REMARK VINA RESULT:      -6.5     27.767     29.555
REMARK  1 active torsions:
REMARK  status: ('A' for Active; 'I' for Inactive)
REMARK    1  A    between atoms: C_3  and  O_4 
ROOT
HETATM    1  C   UNK N   1      27.873  23.139  -6.891  0.00  0.00     0.016 C 
HETATM    2  C   UNK N   1      27.923  21.828  -7.695  0.00  0.00     0.033 C 
HETATM    3  C   UNK N   1      27.554  22.081  -9.159  0.00  0.00     0.122 C 
HETATM    4  C   UNK N   1      26.163  22.715  -9.264  0.00  0.00     0.066 C 
HETATM    5  C   UNK N   1      26.133  23.942  -8.402  0.00  0.00    -0.072 C 
HETATM    6  C   UNK N   1      25.977  25.136  -8.992  0.00  0.00    -0.023 C 
HETATM    7  C   UNK N   1      26.086  26.435  -8.251  0.00  0.00     0.033 C 
HETATM    8  C   UNK N   1      26.897  26.320  -6.954  0.00  0.00    -0.001 C 
HETATM    9  C   UNK N   1      26.406  25.121  -6.126  0.00  0.00     0.003 C 
HETATM   10  C   UNK N   1      26.468  23.779  -6.924  0.00  0.00    -0.017 C 
HETATM   11  C   UNK N   1      27.207  24.998  -4.796  0.00  0.00     0.007 C 
HETATM   12  C   UNK N   1      27.881  26.305  -4.329  0.00  0.00     0.018 C 
HETATM   13  C   UNK N   1      26.991  27.505  -4.635  0.00  0.00     0.021 C 
HETATM   14  C   UNK N   1      26.727  27.640  -6.151  0.00  0.00     0.006 C 
HETATM   15  C   UNK N   1      27.678  28.726  -6.663  0.00  0.00     0.013 C 
HETATM   16  C   UNK N   1      27.930  29.661  -5.488  0.00  0.00     0.079 C 
HETATM   17  C   UNK N   1      27.651  28.797  -4.314  0.00  0.00     0.135 C 
HETATM   18  O   UNK N   1      27.964  29.121  -3.179  0.00  0.00    -0.297 OA
HETATM   19  C   UNK N   1      25.686  27.374  -3.845  0.00  0.00     0.024 C 
HETATM   20  C   UNK N   1      25.479  22.810  -6.274  0.00  0.00     0.020 C 
ENDROOT
BRANCH   3  21
HETATM   21  O   UNK N   1      27.567  20.876  -9.859  0.00  0.00    -0.395 OA
HETATM   22  H   UNK N   1      28.056  20.803 -10.693  0.00  0.00     0.210 HD
ENDBRANCH   3  21
TORSDOF 1
ENDMDL
