MODEL 1
REMARK VINA RESULT:      -5.1      0.000      0.000
REMARK  9 active torsions:
REMARK  status: ('A' for Active; 'I' for Inactive)
REMARK    1  A    between atoms: N_1  and  C_9 
REMARK       I    between atoms: C_2  and  N_1 
REMARK    2  A    between atoms: C_3  and  C_2 
REMARK    3  A    between atoms: C_3  and  O_6 
REMARK    4  A    between atoms: C_3  and  C_5 
REMARK    5  A    between atoms: C_4  and  O_8 
REMARK    6  A    between atoms: C_5  and  C_4 
REMARK    7  A    between atoms: C_9  and  C_10 
REMARK    8  A    between atoms: C_10  and  C_11 
REMARK    9  A    between atoms: C_11  and  O_13 
ROOT
HETATM    1  N   UNK N   1      34.619  15.549   8.558  0.00  0.00    -0.358 N 
HETATM    2  C   UNK N   1      35.717  15.040   9.167  0.00  0.00     0.247 C 
HETATM    3  O   UNK N   1      36.533  14.439   8.488  0.00  0.00    -0.271 OA
HETATM    4  H   UNK N   1      34.552  15.468   7.580  0.00  0.00     0.162 HD
ENDROOT
BRANCH   2   5
HETATM    5  C   UNK N   1      35.950  15.215  10.662  0.00  0.00     0.219 C 
BRANCH   5   6
HETATM    6  O   UNK N   1      37.114  15.966  10.853  0.00  0.00    -0.385 OA
HETATM    7  H   UNK N   1      37.821  16.237  10.247  0.00  0.00     0.210 HD
ENDBRANCH   5   6
BRANCH   5   8
HETATM    8  C   UNK N   1      36.010  13.895  11.478  0.00  0.00     0.008 C 
HETATM    9  C   UNK N   1      34.940  12.941  10.973  0.00  0.00     0.020 C 
HETATM   10  C   UNK N   1      37.368  13.210  11.348  0.00  0.00     0.020 C 
BRANCH   8  11
HETATM   11  C   UNK N   1      35.714  14.136  12.960  0.00  0.00     0.175 C 
BRANCH  11  12
HETATM   12  O   UNK N   1      36.787  14.752  13.611  0.00  0.00    -0.400 OA
HETATM   13  H   UNK N   1      37.635  15.140  13.346  0.00  0.00     0.209 HD
ENDBRANCH  11  12
ENDBRANCH   8  11
ENDBRANCH   5   8
ENDBRANCH   2   5
BRANCH   1  14
HETATM   14  C   UNK N   1      33.543  16.205   9.260  0.00  0.00     0.133 C 
BRANCH  14  15
HETATM   15  C   UNK N   1      33.239  17.563   8.622  0.00  0.00     0.129 C 
BRANCH  15  16
HETATM   16  C   UNK N   1      34.375  18.188   7.852  0.00  0.00     0.140 C 
HETATM   17  O   UNK N   1      34.572  17.916   6.678  0.00  0.00    -0.650 OA
BRANCH  16  18
HETATM   18  O   UNK N   1      35.197  19.052   8.477  0.00  0.00    -0.776 OA
HETATM   19  H   UNK N   1      35.129  19.217   9.397  0.00  0.00     0.167 HD
ENDBRANCH  16  18
ENDBRANCH  15  16
ENDBRANCH  14  15
ENDBRANCH   1  14
TORSDOF 9
ENDMDL
MODEL 2
REMARK VINA RESULT:      -5.1     13.149     15.110
REMARK  9 active torsions:
REMARK  status: ('A' for Active; 'I' for Inactive)
REMARK    1  A    between atoms: N_1  and  C_9 
REMARK       I    between atoms: C_2  and  N_1 
REMARK    2  A    between atoms: C_3  and  C_2 
REMARK    3  A    between atoms: C_3  and  O_6 
REMARK    4  A    between atoms: C_3  and  C_5 
REMARK    5  A    between atoms: C_4  and  O_8 
REMARK    6  A    between atoms: C_5  and  C_4 
REMARK    7  A    between atoms: C_9  and  C_10 
REMARK    8  A    between atoms: C_10  and  C_11 
REMARK    9  A    between atoms: C_11  and  O_13 
ROOT
HETATM    1  N   UNK N   1      20.932  13.448  10.232  0.00  0.00    -0.358 N 
HETATM    2  C   UNK N   1      20.316  14.424   9.523  0.00  0.00     0.247 C 
HETATM    3  O   UNK N   1      19.103  14.520   9.597  0.00  0.00    -0.271 OA
HETATM    4  H   UNK N   1      20.381  12.890  10.827  0.00  0.00     0.162 HD
ENDROOT
BRANCH   2   5
HETATM    5  C   UNK N   1      21.108  15.399   8.660  0.00  0.00     0.219 C 
BRANCH   5   6
HETATM    6  O   UNK N   1      20.654  16.698   8.913  0.00  0.00    -0.385 OA
HETATM    7  H   UNK N   1      21.106  17.496   9.231  0.00  0.00     0.210 HD
ENDBRANCH   5   6
BRANCH   5   8
HETATM    8  C   UNK N   1      21.083  15.098   7.136  0.00  0.00     0.008 C 
HETATM    9  C   UNK N   1      22.464  15.347   6.552  0.00  0.00     0.020 C 
HETATM   10  C   UNK N   1      20.692  13.651   6.851  0.00  0.00     0.020 C 
BRANCH   8  11
HETATM   11  C   UNK N   1      20.122  16.029   6.396  0.00  0.00     0.175 C 
BRANCH  11  12
HETATM   12  O   UNK N   1      18.803  15.870   6.831  0.00  0.00    -0.400 OA
HETATM   13  H   UNK N   1      18.348  15.326   7.492  0.00  0.00     0.209 HD
ENDBRANCH  11  12
ENDBRANCH   8  11
ENDBRANCH   5   8
ENDBRANCH   2   5
BRANCH   1  14
HETATM   14  C   UNK N   1      22.347  13.178  10.166  0.00  0.00     0.133 C 
BRANCH  14  15
HETATM   15  C   UNK N   1      22.690  11.928  10.981  0.00  0.00     0.129 C 
BRANCH  15  16
HETATM   16  C   UNK N   1      23.806  12.093  11.983  0.00  0.00     0.140 C 
HETATM   17  O   UNK N   1      23.596  12.015  13.185  0.00  0.00    -0.650 OA
BRANCH  16  18
HETATM   18  O   UNK N   1      25.053  12.345  11.545  0.00  0.00    -0.776 OA
HETATM   19  H   UNK N   1      25.233  13.044  10.948  0.00  0.00     0.167 HD
ENDBRANCH  16  18
ENDBRANCH  15  16
ENDBRANCH  14  15
ENDBRANCH   1  14
TORSDOF 9
ENDMDL
MODEL 3
REMARK VINA RESULT:      -5.0      2.333      5.602
REMARK  9 active torsions:
REMARK  status: ('A' for Active; 'I' for Inactive)
REMARK    1  A    between atoms: N_1  and  C_9 
REMARK       I    between atoms: C_2  and  N_1 
REMARK    2  A    between atoms: C_3  and  C_2 
REMARK    3  A    between atoms: C_3  and  O_6 
REMARK    4  A    between atoms: C_3  and  C_5 
REMARK    5  A    between atoms: C_4  and  O_8 
REMARK    6  A    between atoms: C_5  and  C_4 
REMARK    7  A    between atoms: C_9  and  C_10 
REMARK    8  A    between atoms: C_10  and  C_11 
REMARK    9  A    between atoms: C_11  and  O_13 
ROOT
HETATM    1  N   UNK N   1      32.893  16.244   9.379  0.00  0.00    -0.358 N 
HETATM    2  C   UNK N   1      32.924  17.020   8.269  0.00  0.00     0.247 C 
HETATM    3  O   UNK N   1      32.057  17.866   8.126  0.00  0.00    -0.271 OA
HETATM    4  H   UNK N   1      32.205  16.434  10.058  0.00  0.00     0.162 HD
ENDROOT
BRANCH   2   5
HETATM    5  C   UNK N   1      34.018  16.863   7.220  0.00  0.00     0.219 C 
BRANCH   5   6
HETATM    6  O   UNK N   1      34.500  18.130   6.878  0.00  0.00    -0.385 OA
HETATM    7  H   UNK N   1      35.372  18.438   6.584  0.00  0.00     0.210 HD
ENDBRANCH   5   6
BRANCH   5   8
HETATM    8  C   UNK N   1      33.601  16.074   5.949  0.00  0.00     0.008 C 
HETATM    9  C   UNK N   1      34.782  15.253   5.457  0.00  0.00     0.020 C 
HETATM   10  C   UNK N   1      32.436  15.128   6.225  0.00  0.00     0.020 C 
BRANCH   8  11
HETATM   11  C   UNK N   1      33.218  17.014   4.804  0.00  0.00     0.175 C 
BRANCH  11  12
HETATM   12  O   UNK N   1      31.987  17.636   5.031  0.00  0.00    -0.400 OA
HETATM   13  H   UNK N   1      31.243  17.509   5.640  0.00  0.00     0.209 HD
ENDBRANCH  11  12
ENDBRANCH   8  11
ENDBRANCH   5   8
ENDBRANCH   2   5
BRANCH   1  14
HETATM   14  C   UNK N   1      33.807  15.157   9.625  0.00  0.00     0.133 C 
BRANCH  14  15
HETATM   15  C   UNK N   1      34.639  15.433  10.881  0.00  0.00     0.129 C 
BRANCH  15  16
HETATM   16  C   UNK N   1      35.764  16.423  10.710  0.00  0.00     0.140 C 
HETATM   17  O   UNK N   1      35.546  17.583  10.395  0.00  0.00    -0.650 OA
BRANCH  16  18
HETATM   18  O   UNK N   1      37.033  16.016  10.895  0.00  0.00    -0.776 OA
HETATM   19  H   UNK N   1      37.465  15.455  10.281  0.00  0.00     0.167 HD
ENDBRANCH  16  18
ENDBRANCH  15  16
ENDBRANCH  14  15
ENDBRANCH   1  14
TORSDOF 9
ENDMDL
MODEL 4
REMARK VINA RESULT:      -5.0      3.302      5.158
REMARK  9 active torsions:
REMARK  status: ('A' for Active; 'I' for Inactive)
REMARK    1  A    between atoms: N_1  and  C_9 
REMARK       I    between atoms: C_2  and  N_1 
REMARK    2  A    between atoms: C_3  and  C_2 
REMARK    3  A    between atoms: C_3  and  O_6 
REMARK    4  A    between atoms: C_3  and  C_5 
REMARK    5  A    between atoms: C_4  and  O_8 
REMARK    6  A    between atoms: C_5  and  C_4 
REMARK    7  A    between atoms: C_9  and  C_10 
REMARK    8  A    between atoms: C_10  and  C_11 
REMARK    9  A    between atoms: C_11  and  O_13 
ROOT
HETATM    1  N   UNK N   1      36.694  14.252  13.452  0.00  0.00    -0.358 N 
HETATM    2  C   UNK N   1      36.346  13.779  14.673  0.00  0.00     0.247 C 
HETATM    3  O   UNK N   1      36.947  14.192  15.650  0.00  0.00    -0.271 OA
HETATM    4  H   UNK N   1      37.379  14.957  13.407  0.00  0.00     0.162 HD
ENDROOT
BRANCH   2   5
HETATM    5  C   UNK N   1      35.221  12.765  14.841  0.00  0.00     0.219 C 
BRANCH   5   6
HETATM    6  O   UNK N   1      34.282  13.277  15.742  0.00  0.00    -0.385 OA
HETATM    7  H   UNK N   1      34.343  13.959  16.430  0.00  0.00     0.210 HD
ENDBRANCH   5   6
BRANCH   5   8
HETATM    8  C   UNK N   1      35.676  11.344  15.274  0.00  0.00     0.008 C 
HETATM    9  C   UNK N   1      37.043  11.051  14.680  0.00  0.00     0.020 C 
HETATM   10  C   UNK N   1      35.771  11.218  16.792  0.00  0.00     0.020 C 
BRANCH   8  11
HETATM   11  C   UNK N   1      34.730  10.266  14.743  0.00  0.00     0.175 C 
BRANCH  11  12
HETATM   12  O   UNK N   1      33.400  10.696  14.738  0.00  0.00    -0.400 OA
HETATM   13  H   UNK N   1      32.726  10.870  14.063  0.00  0.00     0.209 HD
ENDBRANCH  11  12
ENDBRANCH   8  11
ENDBRANCH   5   8
ENDBRANCH   2   5
BRANCH   1  14
HETATM   14  C   UNK N   1      36.119  13.783  12.216  0.00  0.00     0.133 C 
BRANCH  14  15
HETATM   15  C   UNK N   1      35.161  14.831  11.642  0.00  0.00     0.129 C 
BRANCH  15  16
HETATM   16  C   UNK N   1      35.813  16.066  11.074  0.00  0.00     0.140 C 
HETATM   17  O   UNK N   1      35.161  17.066  10.814  0.00  0.00    -0.650 OA
BRANCH  16  18
HETATM   18  O   UNK N   1      37.138  16.061  10.835  0.00  0.00    -0.776 OA
HETATM   19  H   UNK N   1      37.691  15.372  11.146  0.00  0.00     0.167 HD
ENDBRANCH  16  18
ENDBRANCH  15  16
ENDBRANCH  14  15
ENDBRANCH   1  14
TORSDOF 9
ENDMDL
MODEL 5
REMARK VINA RESULT:      -4.9      2.116      5.457
REMARK  9 active torsions:
REMARK  status: ('A' for Active; 'I' for Inactive)
REMARK    1  A    between atoms: N_1  and  C_9 
REMARK       I    between atoms: C_2  and  N_1 
REMARK    2  A    between atoms: C_3  and  C_2 
REMARK    3  A    between atoms: C_3  and  O_6 
REMARK    4  A    between atoms: C_3  and  C_5 
REMARK    5  A    between atoms: C_4  and  O_8 
REMARK    6  A    between atoms: C_5  and  C_4 
REMARK    7  A    between atoms: C_9  and  C_10 
REMARK    8  A    between atoms: C_10  and  C_11 
REMARK    9  A    between atoms: C_11  and  O_13 
ROOT
HETATM    1  N   UNK N   1      35.089  15.070   8.448  0.00  0.00    -0.358 N 
HETATM    2  C   UNK N   1      34.580  15.494   7.267  0.00  0.00     0.247 C 
HETATM    3  O   UNK N   1      35.349  15.908   6.416  0.00  0.00    -0.271 OA
HETATM    4  H   UNK N   1      36.067  15.056   8.552  0.00  0.00     0.162 HD
ENDROOT
BRANCH   2   5
HETATM    5  C   UNK N   1      33.083  15.448   6.984  0.00  0.00     0.219 C 
BRANCH   5   6
HETATM    6  O   UNK N   1      32.871  14.771   5.779  0.00  0.00    -0.385 OA
HETATM    7  H   UNK N   1      32.347  14.989   4.992  0.00  0.00     0.210 HD
ENDBRANCH   5   6
BRANCH   5   8
HETATM    8  C   UNK N   1      32.375  16.831   6.966  0.00  0.00     0.008 C 
HETATM    9  C   UNK N   1      30.948  16.672   7.465  0.00  0.00     0.020 C 
HETATM   10  C   UNK N   1      33.088  17.845   7.856  0.00  0.00     0.020 C 
BRANCH   8  11
HETATM   11  C   UNK N   1      32.279  17.395   5.547  0.00  0.00     0.175 C 
BRANCH  11  12
HETATM   12  O   UNK N   1      33.520  17.832   5.076  0.00  0.00    -0.400 OA
HETATM   13  H   UNK N   1      34.249  17.446   4.566  0.00  0.00     0.209 HD
ENDBRANCH  11  12
ENDBRANCH   8  11
ENDBRANCH   5   8
ENDBRANCH   2   5
BRANCH   1  14
HETATM   14  C   UNK N   1      34.281  14.639   9.562  0.00  0.00     0.133 C 
BRANCH  14  15
HETATM   15  C   UNK N   1      34.597  15.474  10.806  0.00  0.00     0.129 C 
BRANCH  15  16
HETATM   16  C   UNK N   1      35.743  16.444  10.663  0.00  0.00     0.140 C 
HETATM   17  O   UNK N   1      35.556  17.602  10.323  0.00  0.00    -0.650 OA
BRANCH  16  18
HETATM   18  O   UNK N   1      36.998  16.019  10.899  0.00  0.00    -0.776 OA
HETATM   19  H   UNK N   1      37.477  15.521  10.267  0.00  0.00     0.167 HD
ENDBRANCH  16  18
ENDBRANCH  15  16
ENDBRANCH  14  15
ENDBRANCH   1  14
TORSDOF 9
ENDMDL
MODEL 6
REMARK VINA RESULT:      -4.8      1.919      5.497
REMARK  9 active torsions:
REMARK  status: ('A' for Active; 'I' for Inactive)
REMARK    1  A    between atoms: N_1  and  C_9 
REMARK       I    between atoms: C_2  and  N_1 
REMARK    2  A    between atoms: C_3  and  C_2 
REMARK    3  A    between atoms: C_3  and  O_6 
REMARK    4  A    between atoms: C_3  and  C_5 
REMARK    5  A    between atoms: C_4  and  O_8 
REMARK    6  A    between atoms: C_5  and  C_4 
REMARK    7  A    between atoms: C_9  and  C_10 
REMARK    8  A    between atoms: C_10  and  C_11 
REMARK    9  A    between atoms: C_11  and  O_13 
ROOT
HETATM    1  N   UNK N   1      34.616  17.078   9.601  0.00  0.00    -0.358 N 
HETATM    2  C   UNK N   1      34.385  17.742   8.443  0.00  0.00     0.247 C 
HETATM    3  O   UNK N   1      34.591  18.943   8.410  0.00  0.00    -0.271 OA
HETATM    4  H   UNK N   1      34.999  17.582  10.355  0.00  0.00     0.162 HD
ENDROOT
BRANCH   2   5
HETATM    5  C   UNK N   1      33.892  17.017   7.197  0.00  0.00     0.219 C 
BRANCH   5   6
HETATM    6  O   UNK N   1      34.389  17.673   6.066  0.00  0.00    -0.385 OA
HETATM    7  H   UNK N   1      34.645  18.596   5.908  0.00  0.00     0.210 HD
ENDBRANCH   5   6
BRANCH   5   8
HETATM    8  C   UNK N   1      32.351  16.850   7.099  0.00  0.00     0.008 C 
HETATM    9  C   UNK N   1      31.879  17.324   5.735  0.00  0.00     0.020 C 
HETATM   10  C   UNK N   1      31.926  15.395   7.279  0.00  0.00     0.020 C 
BRANCH   8  11
HETATM   11  C   UNK N   1      31.626  17.711   8.135  0.00  0.00     0.175 C 
BRANCH  11  12
HETATM   12  O   UNK N   1      31.236  16.966   9.251  0.00  0.00    -0.400 OA
HETATM   13  H   UNK N   1      30.449  16.911   9.814  0.00  0.00     0.209 HD
ENDBRANCH  11  12
ENDBRANCH   8  11
ENDBRANCH   5   8
ENDBRANCH   2   5
BRANCH   1  14
HETATM   14  C   UNK N   1      34.333  15.678   9.795  0.00  0.00     0.133 C 
BRANCH  14  15
HETATM   15  C   UNK N   1      34.556  15.285  11.258  0.00  0.00     0.129 C 
BRANCH  15  16
HETATM   16  C   UNK N   1      35.955  15.496  11.781  0.00  0.00     0.140 C 
HETATM   17  O   UNK N   1      36.257  15.192  12.925  0.00  0.00    -0.650 OA
BRANCH  16  18
HETATM   18  O   UNK N   1      36.884  16.042  10.975  0.00  0.00    -0.776 OA
HETATM   19  H   UNK N   1      37.135  15.638  10.168  0.00  0.00     0.167 HD
ENDBRANCH  16  18
ENDBRANCH  15  16
ENDBRANCH  14  15
ENDBRANCH   1  14
TORSDOF 9
ENDMDL
MODEL 7
REMARK VINA RESULT:      -4.7      2.361      2.664
REMARK  9 active torsions:
REMARK  status: ('A' for Active; 'I' for Inactive)
REMARK    1  A    between atoms: N_1  and  C_9 
REMARK       I    between atoms: C_2  and  N_1 
REMARK    2  A    between atoms: C_3  and  C_2 
REMARK    3  A    between atoms: C_3  and  O_6 
REMARK    4  A    between atoms: C_3  and  C_5 
REMARK    5  A    between atoms: C_4  and  O_8 
REMARK    6  A    between atoms: C_5  and  C_4 
REMARK    7  A    between atoms: C_9  and  C_10 
REMARK    8  A    between atoms: C_10  and  C_11 
REMARK    9  A    between atoms: C_11  and  O_13 
ROOT
HETATM    1  N   UNK N   1      34.801  17.477   9.421  0.00  0.00    -0.358 N 
HETATM    2  C   UNK N   1      34.858  16.596  10.448  0.00  0.00     0.247 C 
HETATM    3  O   UNK N   1      35.333  16.968  11.508  0.00  0.00    -0.271 OA
HETATM    4  H   UNK N   1      35.091  18.403   9.588  0.00  0.00     0.162 HD
ENDROOT
BRANCH   2   5
HETATM    5  C   UNK N   1      34.331  15.173  10.305  0.00  0.00     0.219 C 
BRANCH   5   6
HETATM    6  O   UNK N   1      33.154  15.050  11.050  0.00  0.00    -0.385 OA
HETATM    7  H   UNK N   1      32.230  14.905  10.790  0.00  0.00     0.210 HD
ENDBRANCH   5   6
BRANCH   5   8
HETATM    8  C   UNK N   1      35.340  14.056  10.688  0.00  0.00     0.008 C 
HETATM    9  C   UNK N   1      34.845  12.725  10.150  0.00  0.00     0.020 C 
HETATM   10  C   UNK N   1      36.728  14.325  10.113  0.00  0.00     0.020 C 
BRANCH   8  11
HETATM   11  C   UNK N   1      35.453  13.898  12.206  0.00  0.00     0.175 C 
BRANCH  11  12
HETATM   12  O   UNK N   1      34.420  13.111  12.725  0.00  0.00    -0.400 OA
HETATM   13  H   UNK N   1      33.770  12.488  12.366  0.00  0.00     0.209 HD
ENDBRANCH  11  12
ENDBRANCH   8  11
ENDBRANCH   5   8
ENDBRANCH   2   5
BRANCH   1  14
HETATM   14  C   UNK N   1      34.341  17.138   8.097  0.00  0.00     0.133 C 
BRANCH  14  15
HETATM   15  C   UNK N   1      33.024  17.855   7.790  0.00  0.00     0.129 C 
BRANCH  15  16
HETATM   16  C   UNK N   1      31.811  17.324   8.513  0.00  0.00     0.140 C 
HETATM   17  O   UNK N   1      31.556  16.129   8.531  0.00  0.00    -0.650 OA
BRANCH  16  18
HETATM   18  O   UNK N   1      30.987  18.186   9.137  0.00  0.00    -0.776 OA
HETATM   19  H   UNK N   1      31.088  19.113   9.052  0.00  0.00     0.167 HD
ENDBRANCH  16  18
ENDBRANCH  15  16
ENDBRANCH  14  15
ENDBRANCH   1  14
TORSDOF 9
ENDMDL
MODEL 8
REMARK VINA RESULT:      -4.7      2.743      4.242
REMARK  9 active torsions:
REMARK  status: ('A' for Active; 'I' for Inactive)
REMARK    1  A    between atoms: N_1  and  C_9 
REMARK       I    between atoms: C_2  and  N_1 
REMARK    2  A    between atoms: C_3  and  C_2 
REMARK    3  A    between atoms: C_3  and  O_6 
REMARK    4  A    between atoms: C_3  and  C_5 
REMARK    5  A    between atoms: C_4  and  O_8 
REMARK    6  A    between atoms: C_5  and  C_4 
REMARK    7  A    between atoms: C_9  and  C_10 
REMARK    8  A    between atoms: C_10  and  C_11 
REMARK    9  A    between atoms: C_11  and  O_13 
ROOT
HETATM    1  N   UNK N   1      36.045  13.447  12.047  0.00  0.00    -0.358 N 
HETATM    2  C   UNK N   1      36.689  12.895  13.103  0.00  0.00     0.247 C 
HETATM    3  O   UNK N   1      37.548  12.057  12.888  0.00  0.00    -0.271 OA
HETATM    4  H   UNK N   1      36.337  13.193  11.142  0.00  0.00     0.162 HD
ENDROOT
BRANCH   2   5
HETATM    5  C   UNK N   1      36.371  13.312  14.534  0.00  0.00     0.219 C 
BRANCH   5   6
HETATM    6  O   UNK N   1      37.559  13.686  15.170  0.00  0.00    -0.385 OA
HETATM    7  H   UNK N   1      37.741  14.287  15.910  0.00  0.00     0.210 HD
ENDBRANCH   5   6
BRANCH   5   8
HETATM    8  C   UNK N   1      35.611  12.250  15.374  0.00  0.00     0.008 C 
HETATM    9  C   UNK N   1      34.499  11.645  14.534  0.00  0.00     0.020 C 
HETATM   10  C   UNK N   1      36.534  11.126  15.837  0.00  0.00     0.020 C 
BRANCH   8  11
HETATM   11  C   UNK N   1      34.940  12.877  16.598  0.00  0.00     0.175 C 
BRANCH  11  12
HETATM   12  O   UNK N   1      35.659  13.975  17.080  0.00  0.00    -0.400 OA
HETATM   13  H   UNK N   1      35.796  14.394  17.944  0.00  0.00     0.209 HD
ENDBRANCH  11  12
ENDBRANCH   8  11
ENDBRANCH   5   8
ENDBRANCH   2   5
BRANCH   1  14
HETATM   14  C   UNK N   1      34.956  14.384  12.170  0.00  0.00     0.133 C 
BRANCH  14  15
HETATM   15  C   UNK N   1      34.809  15.203  10.886  0.00  0.00     0.129 C 
BRANCH  15  16
HETATM   16  C   UNK N   1      35.838  16.288  10.685  0.00  0.00     0.140 C 
HETATM   17  O   UNK N   1      35.510  17.424  10.380  0.00  0.00    -0.650 OA
BRANCH  16  18
HETATM   18  O   UNK N   1      37.143  15.992  10.832  0.00  0.00    -0.776 OA
HETATM   19  H   UNK N   1      37.784  16.658  10.983  0.00  0.00     0.167 HD
ENDBRANCH  16  18
ENDBRANCH  15  16
ENDBRANCH  14  15
ENDBRANCH   1  14
TORSDOF 9
ENDMDL
MODEL 9
REMARK VINA RESULT:      -4.6      1.685      2.088
REMARK  9 active torsions:
REMARK  status: ('A' for Active; 'I' for Inactive)
REMARK    1  A    between atoms: N_1  and  C_9 
REMARK       I    between atoms: C_2  and  N_1 
REMARK    2  A    between atoms: C_3  and  C_2 
REMARK    3  A    between atoms: C_3  and  O_6 
REMARK    4  A    between atoms: C_3  and  C_5 
REMARK    5  A    between atoms: C_4  and  O_8 
REMARK    6  A    between atoms: C_5  and  C_4 
REMARK    7  A    between atoms: C_9  and  C_10 
REMARK    8  A    between atoms: C_10  and  C_11 
REMARK    9  A    between atoms: C_11  and  O_13 
ROOT
HETATM    1  N   UNK N   1      34.155  16.409  10.023  0.00  0.00    -0.358 N 
HETATM    2  C   UNK N   1      34.824  15.620  10.898  0.00  0.00     0.247 C 
HETATM    3  O   UNK N   1      35.588  16.146  11.689  0.00  0.00    -0.271 OA
HETATM    4  H   UNK N   1      34.265  17.384  10.100  0.00  0.00     0.162 HD
ENDROOT
BRANCH   2   5
HETATM    5  C   UNK N   1      34.628  14.109  10.916  0.00  0.00     0.219 C 
BRANCH   5   6
HETATM    6  O   UNK N   1      34.388  13.700  12.231  0.00  0.00    -0.385 OA
HETATM    7  H   UNK N   1      33.934  12.927  12.601  0.00  0.00     0.210 HD
ENDBRANCH   5   6
BRANCH   5   8
HETATM    8  C   UNK N   1      35.789  13.288  10.291  0.00  0.00     0.008 C 
HETATM    9  C   UNK N   1      35.216  12.101   9.534  0.00  0.00     0.020 C 
HETATM   10  C   UNK N   1      36.618  14.125   9.321  0.00  0.00     0.020 C 
BRANCH   8  11
HETATM   11  C   UNK N   1      36.713  12.713  11.367  0.00  0.00     0.175 C 
BRANCH  11  12
HETATM   12  O   UNK N   1      37.270  13.716  12.165  0.00  0.00    -0.400 OA
HETATM   13  H   UNK N   1      36.974  14.566  12.525  0.00  0.00     0.209 HD
ENDBRANCH  11  12
ENDBRANCH   8  11
ENDBRANCH   5   8
ENDBRANCH   2   5
BRANCH   1  14
HETATM   14  C   UNK N   1      33.290  15.904   8.986  0.00  0.00     0.133 C 
BRANCH  14  15
HETATM   15  C   UNK N   1      33.917  16.135   7.608  0.00  0.00     0.129 C 
BRANCH  15  16
HETATM   16  C   UNK N   1      33.997  17.575   7.165  0.00  0.00     0.140 C 
HETATM   17  O   UNK N   1      34.152  17.869   5.989  0.00  0.00    -0.650 OA
BRANCH  16  18
HETATM   18  O   UNK N   1      33.909  18.553   8.085  0.00  0.00    -0.776 OA
HETATM   19  H   UNK N   1      34.150  19.437   7.888  0.00  0.00     0.167 HD
ENDBRANCH  16  18
ENDBRANCH  15  16
ENDBRANCH  14  15
ENDBRANCH   1  14
TORSDOF 9
ENDMDL
