MODEL 1
REMARK VINA RESULT:      -6.9      0.000      0.000
REMARK  8 active torsions:
REMARK  status: ('A' for Active; 'I' for Inactive)
REMARK    1  A    between atoms: C_26  and  O_1 
REMARK    2  A    between atoms: C_27  and  O_2 
REMARK    3  A    between atoms: C_4  and  C_9 
REMARK    4  A    between atoms: C_9  and  C_14 
REMARK    5  A    between atoms: C_14  and  C_17 
REMARK    6  A    between atoms: C_16  and  C_19 
REMARK    7  A    between atoms: C_17  and  C_18 
REMARK    8  A    between atoms: C_18  and  C_20 
ROOT
HETATM    1  C   UNK N   1      26.881  27.630  -5.569  0.00  0.00    -0.033 C 
HETATM    2  C   UNK N   1      27.436  28.546  -4.470  0.00  0.00    -0.002 C 
HETATM    3  C   UNK N   1      27.385  26.289  -5.040  0.00  0.00     0.023 C 
HETATM    4  C   UNK N   1      27.038  27.804  -3.181  0.00  0.00     0.006 C 
HETATM    5  C   UNK N   1      26.922  26.314  -3.585  0.00  0.00     0.010 C 
HETATM    6  C   UNK N   1      27.414  27.843  -6.991  0.00  0.00     0.010 C 
HETATM    7  C   UNK N   1      26.987  25.137  -5.940  0.00  0.00    -0.075 C 
HETATM    8  C   UNK N   1      25.338  27.681  -5.612  0.00  0.00     0.016 C 
HETATM    9  C   UNK N   1      27.093  26.644  -7.931  0.00  0.00     0.005 C 
HETATM   10  C   UNK N   1      26.344  25.467  -7.259  0.00  0.00     0.034 C 
HETATM   11  C   UNK N   1      27.309  23.867  -5.659  0.00  0.00     0.004 C 
ENDROOT
BRANCH  11  12
HETATM   12  C   UNK N   1      28.032  23.518  -4.422  0.00  0.00     0.008 C 
HETATM   13  C   UNK N   1      29.160  22.800  -4.385  0.00  0.00    -0.048 C 
HETATM   14  C   UNK N   1      29.764  22.263  -5.657  0.00  0.00     0.071 C 
HETATM   15  C   UNK N   1      29.795  22.463  -3.074  0.00  0.00    -0.033 C 
HETATM   16  C   UNK N   1      30.423  20.916  -5.400  0.00  0.00     0.125 C 
HETATM   17  C   UNK N   1      31.528  21.114  -4.374  0.00  0.00     0.068 C 
HETATM   18  C   UNK N   1      30.973  21.521  -3.005  0.00  0.00     0.153 C 
HETATM   19  C   UNK N   1      29.247  22.888  -1.926  0.00  0.00     0.022 C 
BRANCH  16  20
HETATM   20  O   UNK N   1      30.974  20.442  -6.589  0.00  0.00    -0.395 OA
HETATM   21  H   UNK N   1      31.087  19.493  -6.758  0.00  0.00     0.210 HD
ENDBRANCH  16  20
BRANCH  18  22
HETATM   22  O   UNK N   1      32.006  22.085  -2.254  0.00  0.00    -0.391 OA
HETATM   23  H   UNK N   1      32.777  22.675  -2.263  0.00  0.00     0.210 HD
ENDBRANCH  18  22
ENDBRANCH  11  12
BRANCH   2  24
HETATM   24  C   UNK N   1      27.048  30.037  -4.542  0.00  0.00    -0.014 C 
HETATM   25  C   UNK N   1      26.319  30.586  -3.321  0.00  0.00     0.010 C 
BRANCH  24  26
HETATM   26  C   UNK N   1      28.207  30.945  -4.958  0.00  0.00     0.005 C 
BRANCH  26  27
HETATM   27  C   UNK N   1      29.580  30.420  -4.558  0.00  0.00     0.001 C 
BRANCH  27  28
HETATM   28  C   UNK N   1      30.010  31.062  -3.246  0.00  0.00     0.004 C 
BRANCH  28  29
HETATM   29  C   UNK N   1      30.443  30.029  -2.205  0.00  0.00    -0.023 C 
HETATM   30  C   UNK N   1      30.644  28.655  -2.820  0.00  0.00     0.009 C 
HETATM   31  C   UNK N   1      29.375  29.921  -1.139  0.00  0.00     0.009 C 
ENDBRANCH  28  29
ENDBRANCH  27  28
ENDBRANCH  26  27
ENDBRANCH  24  26
ENDBRANCH   2  24
TORSDOF 8
ENDMDL
MODEL 2
REMARK VINA RESULT:      -6.6     23.758     28.057
REMARK  8 active torsions:
REMARK  status: ('A' for Active; 'I' for Inactive)
REMARK    1  A    between atoms: C_26  and  O_1 
REMARK    2  A    between atoms: C_27  and  O_2 
REMARK    3  A    between atoms: C_4  and  C_9 
REMARK    4  A    between atoms: C_9  and  C_14 
REMARK    5  A    between atoms: C_14  and  C_17 
REMARK    6  A    between atoms: C_16  and  C_19 
REMARK    7  A    between atoms: C_17  and  C_18 
REMARK    8  A    between atoms: C_18  and  C_20 
ROOT
HETATM    1  C   UNK N   1      35.277  10.958  15.729  0.00  0.00    -0.033 C 
HETATM    2  C   UNK N   1      34.958   9.729  14.866  0.00  0.00    -0.002 C 
HETATM    3  C   UNK N   1      34.953  10.376  17.103  0.00  0.00     0.023 C 
HETATM    4  C   UNK N   1      35.666   8.592  15.626  0.00  0.00     0.006 C 
HETATM    5  C   UNK N   1      35.736   9.065  17.098  0.00  0.00     0.010 C 
HETATM    6  C   UNK N   1      34.424  12.212  15.499  0.00  0.00     0.010 C 
HETATM    7  C   UNK N   1      35.173  11.384  18.213  0.00  0.00    -0.075 C 
HETATM    8  C   UNK N   1      36.766  11.350  15.613  0.00  0.00     0.016 C 
HETATM    9  C   UNK N   1      34.562  13.243  16.658  0.00  0.00     0.005 C 
HETATM   10  C   UNK N   1      35.485  12.802  17.821  0.00  0.00     0.034 C 
HETATM   11  C   UNK N   1      34.967  11.082  19.502  0.00  0.00     0.004 C 
ENDROOT
BRANCH  11  12
HETATM   12  C   UNK N   1      34.560   9.726  19.914  0.00  0.00     0.008 C 
HETATM   13  C   UNK N   1      33.745   9.464  20.942  0.00  0.00    -0.048 C 
HETATM   14  C   UNK N   1      33.198  10.585  21.788  0.00  0.00     0.071 C 
HETATM   15  C   UNK N   1      33.425   8.050  21.306  0.00  0.00    -0.033 C 
HETATM   16  C   UNK N   1      33.058  10.135  23.234  0.00  0.00     0.125 C 
HETATM   17  C   UNK N   1      32.086   8.965  23.276  0.00  0.00     0.068 C 
HETATM   18  C   UNK N   1      32.641   7.732  22.557  0.00  0.00     0.153 C 
HETATM   19  C   UNK N   1      33.941   7.034  20.599  0.00  0.00     0.022 C 
BRANCH  16  20
HETATM   20  O   UNK N   1      32.551  11.187  23.994  0.00  0.00    -0.395 OA
HETATM   21  H   UNK N   1      32.998  12.046  24.042  0.00  0.00     0.210 HD
ENDBRANCH  16  20
BRANCH  18  22
HETATM   22  O   UNK N   1      31.582   6.871  22.265  0.00  0.00    -0.391 OA
HETATM   23  H   UNK N   1      31.071   6.434  21.565  0.00  0.00     0.210 HD
ENDBRANCH  18  22
ENDBRANCH  11  12
BRANCH   2  24
HETATM   24  C   UNK N   1      35.268   9.834  13.359  0.00  0.00    -0.014 C 
HETATM   25  C   UNK N   1      35.809   8.566  12.710  0.00  0.00     0.010 C 
BRANCH  24  26
HETATM   26  C   UNK N   1      34.121  10.435  12.545  0.00  0.00     0.005 C 
BRANCH  26  27
HETATM   27  C   UNK N   1      34.578  11.322  11.394  0.00  0.00     0.001 C 
BRANCH  27  28
HETATM   28  C   UNK N   1      35.674  12.263  11.878  0.00  0.00     0.004 C 
BRANCH  28  29
HETATM   29  C   UNK N   1      35.116  13.580  12.418  0.00  0.00    -0.023 C 
HETATM   30  C   UNK N   1      34.613  14.482  11.304  0.00  0.00     0.009 C 
HETATM   31  C   UNK N   1      36.209  14.312  13.166  0.00  0.00     0.009 C 
ENDBRANCH  28  29
ENDBRANCH  27  28
ENDBRANCH  26  27
ENDBRANCH  24  26
ENDBRANCH   2  24
TORSDOF 8
ENDMDL
MODEL 3
REMARK VINA RESULT:      -6.6     17.217     22.038
REMARK  8 active torsions:
REMARK  status: ('A' for Active; 'I' for Inactive)
REMARK    1  A    between atoms: C_26  and  O_1 
REMARK    2  A    between atoms: C_27  and  O_2 
REMARK    3  A    between atoms: C_4  and  C_9 
REMARK    4  A    between atoms: C_9  and  C_14 
REMARK    5  A    between atoms: C_14  and  C_17 
REMARK    6  A    between atoms: C_16  and  C_19 
REMARK    7  A    between atoms: C_17  and  C_18 
REMARK    8  A    between atoms: C_18  and  C_20 
ROOT
HETATM    1  C   UNK N   1      35.951  12.654  11.808  0.00  0.00    -0.033 C 
HETATM    2  C   UNK N   1      35.488  13.455  13.034  0.00  0.00    -0.002 C 
HETATM    3  C   UNK N   1      35.584  13.656  10.716  0.00  0.00     0.023 C 
HETATM    4  C   UNK N   1      36.078  14.851  12.765  0.00  0.00     0.006 C 
HETATM    5  C   UNK N   1      36.221  14.948  11.227  0.00  0.00     0.010 C 
HETATM    6  C   UNK N   1      35.237  11.325  11.533  0.00  0.00     0.010 C 
HETATM    7  C   UNK N   1      35.929  13.140   9.333  0.00  0.00    -0.075 C 
HETATM    8  C   UNK N   1      37.472  12.393  11.854  0.00  0.00     0.016 C 
HETATM    9  C   UNK N   1      35.503  10.797  10.092  0.00  0.00     0.005 C 
HETATM   10  C   UNK N   1      36.387  11.713   9.211  0.00  0.00     0.034 C 
HETATM   11  C   UNK N   1      35.709  13.863   8.226  0.00  0.00     0.004 C 
ENDROOT
BRANCH  11  12
HETATM   12  C   UNK N   1      35.162  15.230   8.302  0.00  0.00     0.008 C 
HETATM   13  C   UNK N   1      33.894  15.552   8.024  0.00  0.00    -0.048 C 
HETATM   14  C   UNK N   1      32.921  14.494   7.570  0.00  0.00     0.071 C 
HETATM   15  C   UNK N   1      33.447  16.976   8.091  0.00  0.00    -0.033 C 
HETATM   16  C   UNK N   1      31.933  15.078   6.573  0.00  0.00     0.125 C 
HETATM   17  C   UNK N   1      31.163  16.194   7.263  0.00  0.00     0.068 C 
HETATM   18  C   UNK N   1      32.067  17.376   7.624  0.00  0.00     0.153 C 
HETATM   19  C   UNK N   1      34.309  17.942   8.442  0.00  0.00     0.022 C 
BRANCH  16  20
HETATM   20  O   UNK N   1      31.045  14.082   6.170  0.00  0.00    -0.395 OA
HETATM   21  H   UNK N   1      31.346  13.285   5.706  0.00  0.00     0.210 HD
ENDBRANCH  16  20
BRANCH  18  22
HETATM   22  O   UNK N   1      31.427  18.148   8.596  0.00  0.00    -0.391 OA
HETATM   23  H   UNK N   1      31.114  19.032   8.842  0.00  0.00     0.210 HD
ENDBRANCH  18  22
ENDBRANCH  11  12
BRANCH   2  24
HETATM   24  C   UNK N   1      35.786  12.846  14.419  0.00  0.00    -0.014 C 
HETATM   25  C   UNK N   1      36.802  13.606  15.265  0.00  0.00     0.010 C 
BRANCH  24  26
HETATM   26  C   UNK N   1      34.526  12.514  15.219  0.00  0.00     0.005 C 
BRANCH  26  27
HETATM   27  C   UNK N   1      33.868  11.199  14.820  0.00  0.00     0.001 C 
BRANCH  27  28
HETATM   28  C   UNK N   1      34.626  10.037  15.450  0.00  0.00     0.004 C 
BRANCH  28  29
HETATM   29  C   UNK N   1      35.170  10.379  16.837  0.00  0.00    -0.023 C 
HETATM   30  C   UNK N   1      36.667  10.140  16.934  0.00  0.00     0.009 C 
HETATM   31  C   UNK N   1      34.482   9.512  17.868  0.00  0.00     0.009 C 
ENDBRANCH  28  29
ENDBRANCH  27  28
ENDBRANCH  26  27
ENDBRANCH  24  26
ENDBRANCH   2  24
TORSDOF 8
ENDMDL
MODEL 4
REMARK VINA RESULT:      -6.5      2.920      7.070
REMARK  8 active torsions:
REMARK  status: ('A' for Active; 'I' for Inactive)
REMARK    1  A    between atoms: C_26  and  O_1 
REMARK    2  A    between atoms: C_27  and  O_2 
REMARK    3  A    between atoms: C_4  and  C_9 
REMARK    4  A    between atoms: C_9  and  C_14 
REMARK    5  A    between atoms: C_14  and  C_17 
REMARK    6  A    between atoms: C_16  and  C_19 
REMARK    7  A    between atoms: C_17  and  C_18 
REMARK    8  A    between atoms: C_18  and  C_20 
ROOT
HETATM    1  C   UNK N   1      28.190  23.202  -7.341  0.00  0.00    -0.033 C 
HETATM    2  C   UNK N   1      29.616  23.119  -6.776  0.00  0.00    -0.002 C 
HETATM    3  C   UNK N   1      28.014  24.718  -7.322  0.00  0.00     0.023 C 
HETATM    4  C   UNK N   1      30.363  24.189  -7.593  0.00  0.00     0.006 C 
HETATM    5  C   UNK N   1      29.279  25.206  -8.026  0.00  0.00     0.010 C 
HETATM    6  C   UNK N   1      27.073  22.554  -6.514  0.00  0.00     0.010 C 
HETATM    7  C   UNK N   1      26.652  25.139  -7.840  0.00  0.00    -0.075 C 
HETATM    8  C   UNK N   1      28.125  22.639  -8.777  0.00  0.00     0.016 C 
HETATM    9  C   UNK N   1      25.657  23.020  -6.963  0.00  0.00     0.005 C 
HETATM   10  C   UNK N   1      25.642  24.058  -8.112  0.00  0.00     0.034 C 
HETATM   11  C   UNK N   1      26.288  26.425  -7.928  0.00  0.00     0.004 C 
ENDROOT
BRANCH  11  12
HETATM   12  C   UNK N   1      27.221  27.510  -7.570  0.00  0.00     0.008 C 
HETATM   13  C   UNK N   1      27.331  28.035  -6.345  0.00  0.00    -0.048 C 
HETATM   14  C   UNK N   1      26.451  27.547  -5.224  0.00  0.00     0.071 C 
HETATM   15  C   UNK N   1      28.279  29.163  -6.093  0.00  0.00    -0.033 C 
HETATM   16  C   UNK N   1      26.113  28.692  -4.281  0.00  0.00     0.125 C 
HETATM   17  C   UNK N   1      27.411  29.225  -3.694  0.00  0.00     0.068 C 
HETATM   18  C   UNK N   1      28.299  29.874  -4.760  0.00  0.00     0.153 C 
HETATM   19  C   UNK N   1      29.037  29.648  -7.088  0.00  0.00     0.022 C 
BRANCH  16  20
HETATM   20  O   UNK N   1      25.300  28.215  -3.254  0.00  0.00    -0.395 OA
HETATM   21  H   UNK N   1      25.446  28.465  -2.328  0.00  0.00     0.210 HD
ENDBRANCH  16  20
BRANCH  18  22
HETATM   22  O   UNK N   1      29.603  29.953  -4.268  0.00  0.00    -0.391 OA
HETATM   23  H   UNK N   1      30.547  29.886  -4.479  0.00  0.00     0.210 HD
ENDBRANCH  18  22
ENDBRANCH  11  12
BRANCH   2  24
HETATM   24  C   UNK N   1      30.267  21.722  -6.730  0.00  0.00    -0.014 C 
HETATM   25  C   UNK N   1      31.549  21.568  -7.542  0.00  0.00     0.010 C 
BRANCH  24  26
HETATM   26  C   UNK N   1      30.435  21.178  -5.310  0.00  0.00     0.005 C 
BRANCH  26  27
HETATM   27  C   UNK N   1      30.866  22.227  -4.292  0.00  0.00     0.001 C 
BRANCH  27  28
HETATM   28  C   UNK N   1      29.736  22.468  -3.299  0.00  0.00     0.004 C 
BRANCH  28  29
HETATM   29  C   UNK N   1      29.483  23.955  -3.054  0.00  0.00    -0.023 C 
HETATM   30  C   UNK N   1      28.147  24.403  -3.620  0.00  0.00     0.009 C 
HETATM   31  C   UNK N   1      30.577  24.761  -3.720  0.00  0.00     0.009 C 
ENDBRANCH  28  29
ENDBRANCH  27  28
ENDBRANCH  26  27
ENDBRANCH  24  26
ENDBRANCH   2  24
TORSDOF 8
ENDMDL
MODEL 5
REMARK VINA RESULT:      -6.4      2.192      4.952
REMARK  8 active torsions:
REMARK  status: ('A' for Active; 'I' for Inactive)
REMARK    1  A    between atoms: C_26  and  O_1 
REMARK    2  A    between atoms: C_27  and  O_2 
REMARK    3  A    between atoms: C_4  and  C_9 
REMARK    4  A    between atoms: C_9  and  C_14 
REMARK    5  A    between atoms: C_14  and  C_17 
REMARK    6  A    between atoms: C_16  and  C_19 
REMARK    7  A    between atoms: C_17  and  C_18 
REMARK    8  A    between atoms: C_18  and  C_20 
ROOT
HETATM    1  C   UNK N   1      28.413  24.579  -4.851  0.00  0.00    -0.033 C 
HETATM    2  C   UNK N   1      27.605  25.046  -6.070  0.00  0.00    -0.002 C 
HETATM    3  C   UNK N   1      28.879  23.224  -5.378  0.00  0.00     0.023 C 
HETATM    4  C   UNK N   1      28.557  24.739  -7.241  0.00  0.00     0.006 C 
HETATM    5  C   UNK N   1      29.459  23.584  -6.745  0.00  0.00     0.010 C 
HETATM    6  C   UNK N   1      27.643  24.373  -3.541  0.00  0.00     0.010 C 
HETATM    7  C   UNK N   1      29.732  22.484  -4.366  0.00  0.00    -0.075 C 
HETATM    8  C   UNK N   1      29.604  25.523  -4.576  0.00  0.00     0.016 C 
HETATM    9  C   UNK N   1      28.456  23.548  -2.499  0.00  0.00     0.005 C 
HETATM   10  C   UNK N   1      29.845  23.067  -2.985  0.00  0.00     0.034 C 
HETATM   11  C   UNK N   1      30.263  21.281  -4.625  0.00  0.00     0.004 C 
ENDROOT
BRANCH  11  12
HETATM   12  C   UNK N   1      30.086  20.633  -5.937  0.00  0.00     0.008 C 
HETATM   13  C   UNK N   1      31.066  20.029  -6.618  0.00  0.00    -0.048 C 
HETATM   14  C   UNK N   1      32.470  20.003  -6.072  0.00  0.00     0.071 C 
HETATM   15  C   UNK N   1      30.793  19.436  -7.963  0.00  0.00    -0.033 C 
HETATM   16  C   UNK N   1      33.479  20.076  -7.207  0.00  0.00     0.125 C 
HETATM   17  C   UNK N   1      33.276  18.865  -8.105  0.00  0.00     0.068 C 
HETATM   18  C   UNK N   1      31.919  18.897  -8.814  0.00  0.00     0.153 C 
HETATM   19  C   UNK N   1      29.561  19.493  -8.492  0.00  0.00     0.022 C 
BRANCH  16  20
HETATM   20  O   UNK N   1      34.768  20.050  -6.678  0.00  0.00    -0.395 OA
HETATM   21  H   UNK N   1      34.976  20.445  -5.817  0.00  0.00     0.210 HD
ENDBRANCH  16  20
BRANCH  18  22
HETATM   22  O   UNK N   1      31.618  17.611  -9.264  0.00  0.00    -0.391 OA
HETATM   23  H   UNK N   1      31.838  16.667  -9.205  0.00  0.00     0.210 HD
ENDBRANCH  18  22
ENDBRANCH  11  12
BRANCH   2  24
HETATM   24  C   UNK N   1      27.029  26.475  -6.020  0.00  0.00    -0.014 C 
HETATM   25  C   UNK N   1      27.352  27.356  -7.222  0.00  0.00     0.010 C 
BRANCH  24  26
HETATM   26  C   UNK N   1      25.538  26.516  -5.680  0.00  0.00     0.005 C 
BRANCH  26  27
HETATM   27  C   UNK N   1      25.131  27.708  -4.823  0.00  0.00     0.001 C 
BRANCH  27  28
HETATM   28  C   UNK N   1      25.891  27.670  -3.502  0.00  0.00     0.004 C 
BRANCH  28  29
HETATM   29  C   UNK N   1      26.686  28.951  -3.251  0.00  0.00    -0.023 C 
HETATM   30  C   UNK N   1      26.604  29.909  -4.426  0.00  0.00     0.009 C 
HETATM   31  C   UNK N   1      28.140  28.597  -3.026  0.00  0.00     0.009 C 
ENDBRANCH  28  29
ENDBRANCH  27  28
ENDBRANCH  26  27
ENDBRANCH  24  26
ENDBRANCH   2  24
TORSDOF 8
ENDMDL
MODEL 6
REMARK VINA RESULT:      -6.4     11.896     15.962
REMARK  8 active torsions:
REMARK  status: ('A' for Active; 'I' for Inactive)
REMARK    1  A    between atoms: C_26  and  O_1 
REMARK    2  A    between atoms: C_27  and  O_2 
REMARK    3  A    between atoms: C_4  and  C_9 
REMARK    4  A    between atoms: C_9  and  C_14 
REMARK    5  A    between atoms: C_14  and  C_17 
REMARK    6  A    between atoms: C_16  and  C_19 
REMARK    7  A    between atoms: C_17  and  C_18 
REMARK    8  A    between atoms: C_18  and  C_20 
ROOT
HETATM    1  C   UNK N   1      30.986  16.817   5.748  0.00  0.00    -0.033 C 
HETATM    2  C   UNK N   1      30.063  17.471   6.786  0.00  0.00    -0.002 C 
HETATM    3  C   UNK N   1      32.249  16.691   6.596  0.00  0.00     0.023 C 
HETATM    4  C   UNK N   1      30.303  16.609   8.039  0.00  0.00     0.006 C 
HETATM    5  C   UNK N   1      31.726  16.024   7.867  0.00  0.00     0.010 C 
HETATM    6  C   UNK N   1      31.305  17.631   4.487  0.00  0.00     0.010 C 
HETATM    7  C   UNK N   1      33.390  16.058   5.825  0.00  0.00    -0.075 C 
HETATM    8  C   UNK N   1      30.449  15.435   5.316  0.00  0.00     0.016 C 
HETATM    9  C   UNK N   1      32.523  17.058   3.705  0.00  0.00     0.005 C 
HETATM   10  C   UNK N   1      33.196  15.823   4.353  0.00  0.00     0.034 C 
HETATM   11  C   UNK N   1      34.589  15.835   6.381  0.00  0.00     0.004 C 
ENDROOT
BRANCH  11  12
HETATM   12  C   UNK N   1      34.846  16.150   7.798  0.00  0.00     0.008 C 
HETATM   13  C   UNK N   1      35.065  15.233   8.746  0.00  0.00    -0.048 C 
HETATM   14  C   UNK N   1      35.032  13.764   8.409  0.00  0.00     0.071 C 
HETATM   15  C   UNK N   1      35.274  15.652  10.166  0.00  0.00    -0.033 C 
HETATM   16  C   UNK N   1      34.477  12.966   9.578  0.00  0.00     0.125 C 
HETATM   17  C   UNK N   1      35.390  13.177  10.776  0.00  0.00     0.068 C 
HETATM   18  C   UNK N   1      35.361  14.627  11.271  0.00  0.00     0.153 C 
HETATM   19  C   UNK N   1      35.257  16.952  10.498  0.00  0.00     0.022 C 
BRANCH  16  20
HETATM   20  O   UNK N   1      34.457  11.614   9.242  0.00  0.00    -0.395 OA
HETATM   21  H   UNK N   1      35.266  11.079   9.227  0.00  0.00     0.210 HD
ENDBRANCH  16  20
BRANCH  18  22
HETATM   22  O   UNK N   1      36.491  14.852  12.059  0.00  0.00    -0.391 OA
HETATM   23  H   UNK N   1      37.255  15.428  12.223  0.00  0.00     0.210 HD
ENDBRANCH  18  22
ENDBRANCH  11  12
BRANCH   2  24
HETATM   24  C   UNK N   1      28.591  17.680   6.378  0.00  0.00    -0.014 C 
HETATM   25  C   UNK N   1      27.574  16.821   7.123  0.00  0.00     0.010 C 
BRANCH  24  26
HETATM   26  C   UNK N   1      28.171  19.150   6.354  0.00  0.00     0.005 C 
BRANCH  26  27
HETATM   27  C   UNK N   1      28.077  19.745   4.954  0.00  0.00     0.001 C 
BRANCH  27  28
HETATM   28  C   UNK N   1      26.656  20.234   4.702  0.00  0.00     0.004 C 
BRANCH  28  29
HETATM   29  C   UNK N   1      26.077  19.694   3.395  0.00  0.00    -0.023 C 
HETATM   30  C   UNK N   1      24.802  20.417   2.997  0.00  0.00     0.009 C 
HETATM   31  C   UNK N   1      25.757  18.224   3.563  0.00  0.00     0.009 C 
ENDBRANCH  28  29
ENDBRANCH  27  28
ENDBRANCH  26  27
ENDBRANCH  24  26
ENDBRANCH   2  24
TORSDOF 8
ENDMDL
MODEL 7
REMARK VINA RESULT:      -6.4     13.527     17.684
REMARK  8 active torsions:
REMARK  status: ('A' for Active; 'I' for Inactive)
REMARK    1  A    between atoms: C_26  and  O_1 
REMARK    2  A    between atoms: C_27  and  O_2 
REMARK    3  A    between atoms: C_4  and  C_9 
REMARK    4  A    between atoms: C_9  and  C_14 
REMARK    5  A    between atoms: C_14  and  C_17 
REMARK    6  A    between atoms: C_16  and  C_19 
REMARK    7  A    between atoms: C_17  and  C_18 
REMARK    8  A    between atoms: C_18  and  C_20 
ROOT
HETATM    1  C   UNK N   1      32.155  16.728   7.034  0.00  0.00    -0.033 C 
HETATM    2  C   UNK N   1      30.923  15.847   6.779  0.00  0.00    -0.002 C 
HETATM    3  C   UNK N   1      32.978  15.750   7.869  0.00  0.00     0.023 C 
HETATM    4  C   UNK N   1      31.551  14.506   6.357  0.00  0.00     0.006 C 
HETATM    5  C   UNK N   1      32.952  14.484   7.014  0.00  0.00     0.010 C 
HETATM    6  C   UNK N   1      31.937  18.016   7.837  0.00  0.00     0.010 C 
HETATM    7  C   UNK N   1      34.306  16.345   8.296  0.00  0.00    -0.075 C 
HETATM    8  C   UNK N   1      32.867  17.089   5.713  0.00  0.00     0.016 C 
HETATM    9  C   UNK N   1      33.273  18.621   8.362  0.00  0.00     0.005 C 
HETATM   10  C   UNK N   1      34.542  17.804   8.016  0.00  0.00     0.034 C 
HETATM   11  C   UNK N   1      35.196  15.656   9.023  0.00  0.00     0.004 C 
ENDROOT
BRANCH  11  12
HETATM   12  C   UNK N   1      34.950  14.253   9.404  0.00  0.00     0.008 C 
HETATM   13  C   UNK N   1      35.064  13.779  10.649  0.00  0.00    -0.048 C 
HETATM   14  C   UNK N   1      35.496  14.685  11.773  0.00  0.00     0.071 C 
HETATM   15  C   UNK N   1      34.833  12.329  10.927  0.00  0.00    -0.033 C 
HETATM   16  C   UNK N   1      36.331  13.913  12.783  0.00  0.00     0.125 C 
HETATM   17  C   UNK N   1      35.473  12.793  13.353  0.00  0.00     0.068 C 
HETATM   18  C   UNK N   1      35.114  11.748  12.292  0.00  0.00     0.153 C 
HETATM   19  C   UNK N   1      34.497  11.493   9.933  0.00  0.00     0.022 C 
BRANCH  16  20
HETATM   20  O   UNK N   1      36.717  14.771  13.811  0.00  0.00    -0.395 OA
HETATM   21  H   UNK N   1      36.082  15.353  14.257  0.00  0.00     0.210 HD
ENDBRANCH  16  20
BRANCH  18  22
HETATM   22  O   UNK N   1      34.020  11.009  12.745  0.00  0.00    -0.391 OA
HETATM   23  H   UNK N   1      33.053  10.966  12.814  0.00  0.00     0.210 HD
ENDBRANCH  18  22
ENDBRANCH  11  12
BRANCH   2  24
HETATM   24  C   UNK N   1      29.841  16.416   5.839  0.00  0.00    -0.014 C 
HETATM   25  C   UNK N   1      29.547  15.583   4.596  0.00  0.00     0.010 C 
BRANCH  24  26
HETATM   26  C   UNK N   1      28.556  16.813   6.565  0.00  0.00     0.005 C 
BRANCH  26  27
HETATM   27  C   UNK N   1      28.397  18.315   6.767  0.00  0.00     0.001 C 
BRANCH  27  28
HETATM   28  C   UNK N   1      28.369  19.012   5.413  0.00  0.00     0.004 C 
BRANCH  28  29
HETATM   29  C   UNK N   1      27.112  19.861   5.220  0.00  0.00    -0.023 C 
HETATM   30  C   UNK N   1      26.845  20.153   3.754  0.00  0.00     0.009 C 
HETATM   31  C   UNK N   1      27.286  21.178   5.943  0.00  0.00     0.009 C 
ENDBRANCH  28  29
ENDBRANCH  27  28
ENDBRANCH  26  27
ENDBRANCH  24  26
ENDBRANCH   2  24
TORSDOF 8
ENDMDL
MODEL 8
REMARK VINA RESULT:      -6.4      1.990      3.015
REMARK  8 active torsions:
REMARK  status: ('A' for Active; 'I' for Inactive)
REMARK    1  A    between atoms: C_26  and  O_1 
REMARK    2  A    between atoms: C_27  and  O_2 
REMARK    3  A    between atoms: C_4  and  C_9 
REMARK    4  A    between atoms: C_9  and  C_14 
REMARK    5  A    between atoms: C_14  and  C_17 
REMARK    6  A    between atoms: C_16  and  C_19 
REMARK    7  A    between atoms: C_17  and  C_18 
REMARK    8  A    between atoms: C_18  and  C_20 
ROOT
HETATM    1  C   UNK N   1      26.532  26.542  -6.192  0.00  0.00    -0.033 C 
HETATM    2  C   UNK N   1      27.335  27.400  -5.204  0.00  0.00    -0.002 C 
HETATM    3  C   UNK N   1      27.299  25.230  -6.049  0.00  0.00     0.023 C 
HETATM    4  C   UNK N   1      27.452  26.477  -3.977  0.00  0.00     0.006 C 
HETATM    5  C   UNK N   1      27.342  25.037  -4.534  0.00  0.00     0.010 C 
HETATM    6  C   UNK N   1      26.544  26.977  -7.663  0.00  0.00     0.010 C 
HETATM    7  C   UNK N   1      26.730  24.139  -6.934  0.00  0.00    -0.075 C 
HETATM    8  C   UNK N   1      25.063  26.395  -5.738  0.00  0.00     0.016 C 
HETATM    9  C   UNK N   1      26.038  25.854  -8.616  0.00  0.00     0.005 C 
HETATM   10  C   UNK N   1      25.661  24.524  -7.920  0.00  0.00     0.034 C 
HETATM   11  C   UNK N   1      27.239  22.900  -6.956  0.00  0.00     0.004 C 
ENDROOT
BRANCH  11  12
HETATM   12  C   UNK N   1      28.357  22.517  -6.075  0.00  0.00     0.008 C 
HETATM   13  C   UNK N   1      29.312  21.641  -6.407  0.00  0.00    -0.048 C 
HETATM   14  C   UNK N   1      29.279  20.947  -7.744  0.00  0.00     0.071 C 
HETATM   15  C   UNK N   1      30.382  21.287  -5.425  0.00  0.00    -0.033 C 
HETATM   16  C   UNK N   1      29.826  19.534  -7.619  0.00  0.00     0.125 C 
HETATM   17  C   UNK N   1      31.268  19.621  -7.143  0.00  0.00     0.068 C 
HETATM   18  C   UNK N   1      31.370  20.184  -5.722  0.00  0.00     0.153 C 
HETATM   19  C   UNK N   1      30.402  21.854  -4.209  0.00  0.00     0.022 C 
BRANCH  16  20
HETATM   20  O   UNK N   1      29.786  18.915  -8.867  0.00  0.00    -0.395 OA
HETATM   21  H   UNK N   1      29.261  19.273  -9.600  0.00  0.00     0.210 HD
ENDBRANCH  16  20
BRANCH  18  22
HETATM   22  O   UNK N   1      32.676  20.628  -5.509  0.00  0.00    -0.391 OA
HETATM   23  H   UNK N   1      33.487  20.518  -4.988  0.00  0.00     0.210 HD
ENDBRANCH  18  22
ENDBRANCH  11  12
BRANCH   2  24
HETATM   24  C   UNK N   1      26.814  28.826  -4.933  0.00  0.00    -0.014 C 
HETATM   25  C   UNK N   1      26.312  29.084  -3.517  0.00  0.00     0.010 C 
BRANCH  24  26
HETATM   26  C   UNK N   1      27.778  29.920  -5.394  0.00  0.00     0.005 C 
BRANCH  26  27
HETATM   27  C   UNK N   1      29.079  29.391  -5.985  0.00  0.00     0.001 C 
BRANCH  27  28
HETATM   28  C   UNK N   1      29.105  29.662  -7.485  0.00  0.00     0.004 C 
BRANCH  28  29
HETATM   29  C   UNK N   1      30.013  28.689  -8.237  0.00  0.00    -0.023 C 
HETATM   30  C   UNK N   1      29.423  28.283  -9.576  0.00  0.00     0.009 C 
HETATM   31  C   UNK N   1      30.203  27.441  -7.402  0.00  0.00     0.009 C 
ENDBRANCH  28  29
ENDBRANCH  27  28
ENDBRANCH  26  27
ENDBRANCH  24  26
ENDBRANCH   2  24
TORSDOF 8
ENDMDL
MODEL 9
REMARK VINA RESULT:      -6.4     18.196     22.887
REMARK  8 active torsions:
REMARK  status: ('A' for Active; 'I' for Inactive)
REMARK    1  A    between atoms: C_26  and  O_1 
REMARK    2  A    between atoms: C_27  and  O_2 
REMARK    3  A    between atoms: C_4  and  C_9 
REMARK    4  A    between atoms: C_9  and  C_14 
REMARK    5  A    between atoms: C_14  and  C_17 
REMARK    6  A    between atoms: C_16  and  C_19 
REMARK    7  A    between atoms: C_17  and  C_18 
REMARK    8  A    between atoms: C_18  and  C_20 
ROOT
HETATM    1  C   UNK N   1      35.389  12.406  13.496  0.00  0.00    -0.033 C 
HETATM    2  C   UNK N   1      35.499  13.656  14.380  0.00  0.00    -0.002 C 
HETATM    3  C   UNK N   1      34.999  13.077  12.181  0.00  0.00     0.023 C 
HETATM    4  C   UNK N   1      36.324  14.616  13.503  0.00  0.00     0.006 C 
HETATM    5  C   UNK N   1      36.055  14.172  12.045  0.00  0.00     0.010 C 
HETATM    6  C   UNK N   1      34.316  11.376  13.874  0.00  0.00     0.010 C 
HETATM    7  C   UNK N   1      34.806  12.070  11.064  0.00  0.00    -0.075 C 
HETATM    8  C   UNK N   1      36.747  11.679  13.384  0.00  0.00     0.016 C 
HETATM    9  C   UNK N   1      34.032  10.367  12.723  0.00  0.00     0.005 C 
HETATM   10  C   UNK N   1      34.839  10.610  11.424  0.00  0.00     0.034 C 
HETATM   11  C   UNK N   1      34.478  12.440   9.819  0.00  0.00     0.004 C 
ENDROOT
BRANCH  11  12
HETATM   12  C   UNK N   1      34.336  13.862   9.456  0.00  0.00     0.008 C 
HETATM   13  C   UNK N   1      34.400  14.330   8.205  0.00  0.00    -0.048 C 
HETATM   14  C   UNK N   1      34.661  13.394   7.053  0.00  0.00     0.071 C 
HETATM   15  C   UNK N   1      34.285  15.797   7.944  0.00  0.00    -0.033 C 
HETATM   16  C   UNK N   1      35.486  14.092   5.982  0.00  0.00     0.125 C 
HETATM   17  C   UNK N   1      34.696  15.289   5.477  0.00  0.00     0.068 C 
HETATM   18  C   UNK N   1      34.517  16.357   6.560  0.00  0.00     0.153 C 
HETATM   19  C   UNK N   1      34.104  16.655   8.959  0.00  0.00     0.022 C 
BRANCH  16  20
HETATM   20  O   UNK N   1      35.713  13.207   4.929  0.00  0.00    -0.395 OA
HETATM   21  H   UNK N   1      35.290  12.335   4.893  0.00  0.00     0.210 HD
ENDBRANCH  16  20
BRANCH  18  22
HETATM   22  O   UNK N   1      33.465  17.197   6.190  0.00  0.00    -0.391 OA
HETATM   23  H   UNK N   1      33.198  18.107   5.984  0.00  0.00     0.210 HD
ENDBRANCH  18  22
ENDBRANCH  11  12
BRANCH   2  24
HETATM   24  C   UNK N   1      36.006  13.449  15.822  0.00  0.00    -0.014 C 
HETATM   25  C   UNK N   1      36.993  14.495  16.328  0.00  0.00     0.010 C 
BRANCH  24  26
HETATM   26  C   UNK N   1      34.883  13.204  16.830  0.00  0.00     0.005 C 
BRANCH  26  27
HETATM   27  C   UNK N   1      35.216  12.159  17.888  0.00  0.00     0.001 C 
BRANCH  27  28
HETATM   28  C   UNK N   1      35.874  10.955  17.226  0.00  0.00     0.004 C 
BRANCH  28  29
HETATM   29  C   UNK N   1      34.895   9.800  17.015  0.00  0.00    -0.023 C 
HETATM   30  C   UNK N   1      34.375   9.249  18.331  0.00  0.00     0.009 C 
HETATM   31  C   UNK N   1      35.598   8.682  16.276  0.00  0.00     0.009 C 
ENDBRANCH  28  29
ENDBRANCH  27  28
ENDBRANCH  26  27
ENDBRANCH  24  26
ENDBRANCH   2  24
TORSDOF 8
ENDMDL
