MODEL 1
REMARK VINA RESULT:      -6.3      0.000      0.000
REMARK  12 active torsions:
REMARK  status: ('A' for Active; 'I' for Inactive)
REMARK    1  A    between atoms: C_2  and  C_4 
REMARK    2  A    between atoms: C_6  and  C_4 
REMARK    3  A    between atoms: C_7  and  O_39 
REMARK    4  A    between atoms: C_8  and  C_34 
REMARK    5  A    between atoms: C_11  and  C_29 
REMARK    6  A    between atoms: C_15  and  C_24 
REMARK    7  A    between atoms: C_16  and  C_18 
REMARK    8  A    between atoms: C_18  and  C_19 
REMARK    9  A    between atoms: C_19  and  C_20 
REMARK   10  A    between atoms: C_24  and  C_25 
REMARK   11  A    between atoms: C_29  and  C_30 
REMARK   12  A    between atoms: C_34  and  C_35 
ROOT
HETATM    1  C   UNK N   1      29.421  25.845  -5.548  0.00  0.00     0.139 C 
HETATM    2  C   UNK N   1      28.580  26.517  -4.416  0.00  0.00     0.078 C 
HETATM    3  C   UNK N   1      27.218  26.496  -4.387  0.00  0.00     0.023 C 
HETATM    4  C   UNK N   1      26.465  25.712  -5.397  0.00  0.00     0.174 C 
HETATM    5  O   UNK N   1      25.255  25.850  -5.508  0.00  0.00    -0.291 OA
HETATM    6  C   UNK N   1      27.223  24.729  -6.250  0.00  0.00     0.091 C 
HETATM    7  C   UNK N   1      28.449  25.494  -6.679  0.00  0.00     0.167 C 
HETATM    8  O   UNK N   1      28.637  25.797  -7.849  0.00  0.00    -0.295 OA
HETATM    9  C   UNK N   1      27.655  23.574  -5.296  0.00  0.00     0.031 C 
HETATM   10  C   UNK N   1      29.144  23.207  -5.400  0.00  0.00     0.001 C 
HETATM   11  C   UNK N   1      30.066  24.450  -5.070  0.00  0.00    -0.012 C 
HETATM   12  C   UNK N   1      30.327  24.459  -3.564  0.00  0.00     0.018 C 
ENDROOT
BRANCH  11  13
HETATM   13  C   UNK N   1      31.443  24.246  -5.743  0.00  0.00     0.015 C 
BRANCH  13  14
HETATM   14  C   UNK N   1      32.503  23.548  -4.896  0.00  0.00     0.028 C 
BRANCH  14  15
HETATM   15  C   UNK N   1      32.866  22.238  -5.530  0.00  0.00    -0.025 C 
HETATM   16  C   UNK N   1      32.431  21.049  -5.086  0.00  0.00    -0.091 C 
HETATM   17  C   UNK N   1      32.840  19.813  -5.808  0.00  0.00     0.042 C 
HETATM   18  C   UNK N   1      31.536  20.925  -3.894  0.00  0.00     0.042 C 
ENDBRANCH  14  15
ENDBRANCH  13  14
ENDBRANCH  11  13
BRANCH  10  19
HETATM   19  C   UNK N   1      29.408  22.576  -6.780  0.00  0.00     0.033 C 
BRANCH  19  20
HETATM   20  C   UNK N   1      29.174  21.095  -6.768  0.00  0.00    -0.024 C 
HETATM   21  C   UNK N   1      29.579  20.292  -7.757  0.00  0.00    -0.091 C 
HETATM   22  C   UNK N   1      29.277  18.835  -7.680  0.00  0.00     0.042 C 
HETATM   23  C   UNK N   1      30.334  20.816  -8.937  0.00  0.00     0.042 C 
ENDBRANCH  19  20
ENDBRANCH  10  19
BRANCH   1  24
HETATM   24  C   UNK N   1      30.510  26.861  -5.987  0.00  0.00     0.153 C 
HETATM   25  O   UNK N   1      31.344  27.269  -5.190  0.00  0.00    -0.296 OA
BRANCH  24  26
HETATM   26  C   UNK N   1      30.561  27.378  -7.402  0.00  0.00     0.049 C 
HETATM   27  C   UNK N   1      30.247  28.858  -7.475  0.00  0.00     0.017 C 
HETATM   28  C   UNK N   1      31.939  27.125  -7.992  0.00  0.00     0.017 C 
ENDBRANCH  24  26
ENDBRANCH   1  24
BRANCH   2  29
HETATM   29  O   UNK N   1      29.226  27.152  -3.412  0.00  0.00    -0.363 OA
HETATM   30  H   UNK N   1      28.959  27.228  -2.517  0.00  0.00     0.217 HD
ENDBRANCH   2  29
BRANCH   6  31
HETATM   31  C   UNK N   1      26.382  24.269  -7.466  0.00  0.00     0.053 C 
BRANCH  31  32
HETATM   32  C   UNK N   1      25.854  22.864  -7.391  0.00  0.00    -0.023 C 
HETATM   33  C   UNK N   1      26.070  21.939  -8.329  0.00  0.00    -0.091 C 
HETATM   34  C   UNK N   1      25.514  20.572  -8.134  0.00  0.00     0.042 C 
HETATM   35  C   UNK N   1      26.841  22.241  -9.572  0.00  0.00     0.042 C 
ENDBRANCH  31  32
ENDBRANCH   6  31
BRANCH   3  36
HETATM   36  C   UNK N   1      26.467  27.243  -3.320  0.00  0.00     0.072 C 
BRANCH  36  37
HETATM   37  C   UNK N   1      26.148  28.633  -3.794  0.00  0.00    -0.020 C 
HETATM   38  C   UNK N   1      26.717  29.727  -3.278  0.00  0.00    -0.091 C 
HETATM   39  C   UNK N   1      26.340  31.062  -3.820  0.00  0.00     0.042 C 
HETATM   40  C   UNK N   1      27.737  29.644  -2.190  0.00  0.00     0.042 C 
ENDBRANCH  36  37
ENDBRANCH   3  36
TORSDOF 12
ENDMDL
MODEL 2
REMARK VINA RESULT:      -6.0     13.861     16.868
REMARK  12 active torsions:
REMARK  status: ('A' for Active; 'I' for Inactive)
REMARK    1  A    between atoms: C_2  and  C_4 
REMARK    2  A    between atoms: C_6  and  C_4 
REMARK    3  A    between atoms: C_7  and  O_39 
REMARK    4  A    between atoms: C_8  and  C_34 
REMARK    5  A    between atoms: C_11  and  C_29 
REMARK    6  A    between atoms: C_15  and  C_24 
REMARK    7  A    between atoms: C_16  and  C_18 
REMARK    8  A    between atoms: C_18  and  C_19 
REMARK    9  A    between atoms: C_19  and  C_20 
REMARK   10  A    between atoms: C_24  and  C_25 
REMARK   11  A    between atoms: C_29  and  C_30 
REMARK   12  A    between atoms: C_34  and  C_35 
ROOT
HETATM    1  C   UNK N   1      22.834  14.010   4.041  0.00  0.00     0.139 C 
HETATM    2  C   UNK N   1      22.409  13.024   5.176  0.00  0.00     0.078 C 
HETATM    3  C   UNK N   1      23.210  12.718   6.236  0.00  0.00     0.023 C 
HETATM    4  C   UNK N   1      24.504  13.420   6.417  0.00  0.00     0.174 C 
HETATM    5  O   UNK N   1      25.317  13.015   7.235  0.00  0.00    -0.291 OA
HETATM    6  C   UNK N   1      24.771  14.652   5.592  0.00  0.00     0.091 C 
HETATM    7  C   UNK N   1      24.337  14.258   4.203  0.00  0.00     0.167 C 
HETATM    8  O   UNK N   1      25.141  14.154   3.287  0.00  0.00    -0.295 OA
HETATM    9  C   UNK N   1      23.804  15.750   6.131  0.00  0.00     0.031 C 
HETATM   10  C   UNK N   1      23.005  16.469   5.032  0.00  0.00     0.001 C 
HETATM   11  C   UNK N   1      22.129  15.448   4.200  0.00  0.00    -0.012 C 
HETATM   12  C   UNK N   1      20.772  15.315   4.891  0.00  0.00     0.018 C 
ENDROOT
BRANCH  11  13
HETATM   13  C   UNK N   1      21.843  16.053   2.806  0.00  0.00     0.015 C 
BRANCH  13  14
HETATM   14  C   UNK N   1      20.468  16.691   2.625  0.00  0.00     0.028 C 
BRANCH  14  15
HETATM   15  C   UNK N   1      20.606  17.960   1.838  0.00  0.00    -0.025 C 
HETATM   16  C   UNK N   1      20.785  19.168   2.395  0.00  0.00    -0.091 C 
HETATM   17  C   UNK N   1      20.930  20.358   1.513  0.00  0.00     0.042 C 
HETATM   18  C   UNK N   1      20.854  19.355   3.877  0.00  0.00     0.042 C 
ENDBRANCH  14  15
ENDBRANCH  13  14
ENDBRANCH  11  13
BRANCH  10  19
HETATM   19  C   UNK N   1      23.974  17.309   4.179  0.00  0.00     0.033 C 
BRANCH  19  20
HETATM   20  C   UNK N   1      24.466  18.515   4.923  0.00  0.00    -0.024 C 
HETATM   21  C   UNK N   1      25.687  19.028   4.738  0.00  0.00    -0.091 C 
HETATM   22  C   UNK N   1      26.107  20.209   5.541  0.00  0.00     0.042 C 
HETATM   23  C   UNK N   1      26.639  18.453   3.738  0.00  0.00     0.042 C 
ENDBRANCH  19  20
ENDBRANCH  10  19
BRANCH   1  24
HETATM   24  C   UNK N   1      22.479  13.342   2.685  0.00  0.00     0.153 C 
HETATM   25  O   UNK N   1      21.319  13.077   2.402  0.00  0.00    -0.296 OA
BRANCH  24  26
HETATM   26  C   UNK N   1      23.555  12.995   1.688  0.00  0.00     0.049 C 
HETATM   27  C   UNK N   1      23.657  11.500   1.464  0.00  0.00     0.017 C 
HETATM   28  C   UNK N   1      23.271  13.685   0.364  0.00  0.00     0.017 C 
ENDBRANCH  24  26
ENDBRANCH   1  24
BRANCH   2  29
HETATM   29  O   UNK N   1      21.191  12.441   5.112  0.00  0.00    -0.363 OA
HETATM   30  H   UNK N   1      20.388  12.751   5.482  0.00  0.00     0.217 HD
ENDBRANCH   2  29
BRANCH   6  31
HETATM   31  C   UNK N   1      26.268  15.047   5.631  0.00  0.00     0.053 C 
BRANCH  31  32
HETATM   32  C   UNK N   1      26.641  16.059   6.678  0.00  0.00    -0.023 C 
HETATM   33  C   UNK N   1      27.836  16.650   6.746  0.00  0.00    -0.091 C 
HETATM   34  C   UNK N   1      28.083  17.655   7.816  0.00  0.00     0.042 C 
HETATM   35  C   UNK N   1      28.934  16.320   5.788  0.00  0.00     0.042 C 
ENDBRANCH  31  32
ENDBRANCH   6  31
BRANCH   3  36
HETATM   36  C   UNK N   1      22.779  11.689   7.243  0.00  0.00     0.072 C 
BRANCH  36  37
HETATM   37  C   UNK N   1      21.828  12.302   8.232  0.00  0.00    -0.020 C 
HETATM   38  C   UNK N   1      22.081  12.365   9.543  0.00  0.00    -0.091 C 
HETATM   39  C   UNK N   1      21.078  13.000  10.444  0.00  0.00     0.042 C 
HETATM   40  C   UNK N   1      23.351  11.835  10.125  0.00  0.00     0.042 C 
ENDBRANCH  36  37
ENDBRANCH   3  36
TORSDOF 12
ENDMDL
MODEL 3
REMARK VINA RESULT:      -5.9      2.271      3.402
REMARK  12 active torsions:
REMARK  status: ('A' for Active; 'I' for Inactive)
REMARK    1  A    between atoms: C_2  and  C_4 
REMARK    2  A    between atoms: C_6  and  C_4 
REMARK    3  A    between atoms: C_7  and  O_39 
REMARK    4  A    between atoms: C_8  and  C_34 
REMARK    5  A    between atoms: C_11  and  C_29 
REMARK    6  A    between atoms: C_15  and  C_24 
REMARK    7  A    between atoms: C_16  and  C_18 
REMARK    8  A    between atoms: C_18  and  C_19 
REMARK    9  A    between atoms: C_19  and  C_20 
REMARK   10  A    between atoms: C_24  and  C_25 
REMARK   11  A    between atoms: C_29  and  C_30 
REMARK   12  A    between atoms: C_34  and  C_35 
ROOT
HETATM    1  C   UNK N   1      30.188  23.716  -4.928  0.00  0.00     0.139 C 
HETATM    2  C   UNK N   1      28.709  23.795  -4.433  0.00  0.00     0.078 C 
HETATM    3  C   UNK N   1      27.637  23.641  -5.260  0.00  0.00     0.023 C 
HETATM    4  C   UNK N   1      27.841  23.268  -6.681  0.00  0.00     0.174 C 
HETATM    5  O   UNK N   1      26.913  23.330  -7.475  0.00  0.00    -0.291 OA
HETATM    6  C   UNK N   1      29.204  22.786  -7.104  0.00  0.00     0.091 C 
HETATM    7  C   UNK N   1      30.150  23.766  -6.459  0.00  0.00     0.167 C 
HETATM    8  O   UNK N   1      30.832  24.532  -7.126  0.00  0.00    -0.295 OA
HETATM    9  C   UNK N   1      29.392  21.388  -6.440  0.00  0.00     0.031 C 
HETATM   10  C   UNK N   1      30.727  21.230  -5.694  0.00  0.00     0.001 C 
HETATM   11  C   UNK N   1      30.875  22.311  -4.549  0.00  0.00    -0.012 C 
HETATM   12  C   UNK N   1      30.264  21.734  -3.272  0.00  0.00     0.018 C 
ENDROOT
BRANCH  11  13
HETATM   13  C   UNK N   1      32.377  22.521  -4.248  0.00  0.00     0.015 C 
BRANCH  13  14
HETATM   14  C   UNK N   1      33.063  21.408  -3.461  0.00  0.00     0.028 C 
BRANCH  14  15
HETATM   15  C   UNK N   1      34.394  21.103  -4.083  0.00  0.00    -0.025 C 
HETATM   16  C   UNK N   1      34.800  19.867  -4.410  0.00  0.00    -0.091 C 
HETATM   17  C   UNK N   1      36.135  19.686  -5.041  0.00  0.00     0.042 C 
HETATM   18  C   UNK N   1      33.946  18.662  -4.169  0.00  0.00     0.042 C 
ENDBRANCH  14  15
ENDBRANCH  13  14
ENDBRANCH  11  13
BRANCH  10  19
HETATM   19  C   UNK N   1      31.877  21.237  -6.719  0.00  0.00     0.033 C 
BRANCH  19  20
HETATM   20  C   UNK N   1      32.215  19.851  -7.183  0.00  0.00    -0.024 C 
HETATM   21  C   UNK N   1      33.325  19.573  -7.875  0.00  0.00    -0.091 C 
HETATM   22  C   UNK N   1      33.570  18.175  -8.324  0.00  0.00     0.042 C 
HETATM   23  C   UNK N   1      34.332  20.629  -8.204  0.00  0.00     0.042 C 
ENDBRANCH  19  20
ENDBRANCH  10  19
BRANCH   1  24
HETATM   24  C   UNK N   1      30.953  24.915  -4.308  0.00  0.00     0.153 C 
HETATM   25  O   UNK N   1      31.025  25.053  -3.095  0.00  0.00    -0.296 OA
BRANCH  24  26
HETATM   26  C   UNK N   1      31.618  25.947  -5.184  0.00  0.00     0.049 C 
HETATM   27  C   UNK N   1      31.072  27.338  -4.934  0.00  0.00     0.017 C 
HETATM   28  C   UNK N   1      33.117  25.942  -4.937  0.00  0.00     0.017 C 
ENDBRANCH  24  26
ENDBRANCH   1  24
BRANCH   2  29
HETATM   29  O   UNK N   1      28.471  24.025  -3.122  0.00  0.00    -0.363 OA
HETATM   30  H   UNK N   1      27.722  24.438  -2.740  0.00  0.00     0.217 HD
ENDBRANCH   2  29
BRANCH   6  31
HETATM   31  C   UNK N   1      29.350  22.783  -8.647  0.00  0.00     0.053 C 
BRANCH  31  32
HETATM   32  C   UNK N   1      29.288  21.430  -9.298  0.00  0.00    -0.023 C 
HETATM   33  C   UNK N   1      30.252  20.939 -10.079  0.00  0.00    -0.091 C 
HETATM   34  C   UNK N   1      30.090  19.574 -10.652  0.00  0.00     0.042 C 
HETATM   35  C   UNK N   1      31.481  21.724 -10.404  0.00  0.00     0.042 C 
ENDBRANCH  31  32
ENDBRANCH   6  31
BRANCH   3  36
HETATM   36  C   UNK N   1      26.239  23.823  -4.736  0.00  0.00     0.072 C 
BRANCH  36  37
HETATM   37  C   UNK N   1      25.572  24.971  -5.439  0.00  0.00    -0.020 C 
HETATM   38  C   UNK N   1      25.572  26.219  -4.960  0.00  0.00    -0.091 C 
HETATM   39  C   UNK N   1      24.889  27.292  -5.735  0.00  0.00     0.042 C 
HETATM   40  C   UNK N   1      26.259  26.569  -3.680  0.00  0.00     0.042 C 
ENDBRANCH  36  37
ENDBRANCH   3  36
TORSDOF 12
ENDMDL
MODEL 4
REMARK VINA RESULT:      -5.9      2.452      7.827
REMARK  12 active torsions:
REMARK  status: ('A' for Active; 'I' for Inactive)
REMARK    1  A    between atoms: C_2  and  C_4 
REMARK    2  A    between atoms: C_6  and  C_4 
REMARK    3  A    between atoms: C_7  and  O_39 
REMARK    4  A    between atoms: C_8  and  C_34 
REMARK    5  A    between atoms: C_11  and  C_29 
REMARK    6  A    between atoms: C_15  and  C_24 
REMARK    7  A    between atoms: C_16  and  C_18 
REMARK    8  A    between atoms: C_18  and  C_19 
REMARK    9  A    between atoms: C_19  and  C_20 
REMARK   10  A    between atoms: C_24  and  C_25 
REMARK   11  A    between atoms: C_29  and  C_30 
REMARK   12  A    between atoms: C_34  and  C_35 
ROOT
HETATM    1  C   UNK N   1      27.154  24.044  -7.901  0.00  0.00     0.139 C 
HETATM    2  C   UNK N   1      27.438  22.530  -7.640  0.00  0.00     0.078 C 
HETATM    3  C   UNK N   1      28.690  21.991  -7.665  0.00  0.00     0.023 C 
HETATM    4  C   UNK N   1      29.874  22.869  -7.831  0.00  0.00     0.174 C 
HETATM    5  O   UNK N   1      30.974  22.386  -8.062  0.00  0.00    -0.291 OA
HETATM    6  C   UNK N   1      29.689  24.356  -7.679  0.00  0.00     0.091 C 
HETATM    7  C   UNK N   1      28.441  24.648  -8.472  0.00  0.00     0.167 C 
HETATM    8  O   UNK N   1      28.474  25.323  -9.492  0.00  0.00    -0.295 OA
HETATM    9  C   UNK N   1      29.396  24.601  -6.167  0.00  0.00     0.031 C 
HETATM   10  C   UNK N   1      28.163  25.483  -5.908  0.00  0.00     0.001 C 
HETATM   11  C   UNK N   1      26.860  24.844  -6.536  0.00  0.00    -0.012 C 
HETATM   12  C   UNK N   1      26.234  23.921  -5.489  0.00  0.00     0.018 C 
ENDROOT
BRANCH  11  13
HETATM   13  C   UNK N   1      25.825  25.964  -6.793  0.00  0.00     0.015 C 
BRANCH  13  14
HETATM   14  C   UNK N   1      24.923  26.322  -5.616  0.00  0.00     0.028 C 
BRANCH  14  15
HETATM   15  C   UNK N   1      25.232  27.716  -5.155  0.00  0.00    -0.025 C 
HETATM   16  C   UNK N   1      25.855  28.000  -4.001  0.00  0.00    -0.091 C 
HETATM   17  C   UNK N   1      26.128  29.422  -3.657  0.00  0.00     0.042 C 
HETATM   18  C   UNK N   1      26.295  26.930  -3.053  0.00  0.00     0.042 C 
ENDBRANCH  14  15
ENDBRANCH  13  14
ENDBRANCH  11  13
BRANCH  10  19
HETATM   19  C   UNK N   1      28.461  26.913  -6.396  0.00  0.00     0.033 C 
BRANCH  19  20
HETATM   20  C   UNK N   1      29.208  27.707  -5.366  0.00  0.00    -0.024 C 
HETATM   21  C   UNK N   1      29.305  29.040  -5.413  0.00  0.00    -0.091 C 
HETATM   22  C   UNK N   1      30.092  29.748  -4.365  0.00  0.00     0.042 C 
HETATM   23  C   UNK N   1      28.637  29.840  -6.485  0.00  0.00     0.042 C 
ENDBRANCH  19  20
ENDBRANCH  10  19
BRANCH   1  24
HETATM   24  C   UNK N   1      25.960  24.131  -8.888  0.00  0.00     0.153 C 
HETATM   25  O   UNK N   1      24.871  23.655  -8.599  0.00  0.00    -0.296 OA
BRANCH  24  26
HETATM   26  C   UNK N   1      26.114  24.797 -10.232  0.00  0.00     0.049 C 
HETATM   27  C   UNK N   1      26.029  23.801 -11.370  0.00  0.00     0.017 C 
HETATM   28  C   UNK N   1      25.037  25.856 -10.407  0.00  0.00     0.017 C 
ENDBRANCH  24  26
ENDBRANCH   1  24
BRANCH   2  29
HETATM   29  O   UNK N   1      26.399  21.707  -7.375  0.00  0.00    -0.363 OA
HETATM   30  H   UNK N   1      26.303  21.120  -6.651  0.00  0.00     0.217 HD
ENDBRANCH   2  29
BRANCH   6  31
HETATM   31  C   UNK N   1      30.909  25.138  -8.226  0.00  0.00     0.053 C 
BRANCH  31  32
HETATM   32  C   UNK N   1      31.809  25.741  -7.183  0.00  0.00    -0.023 C 
HETATM   33  C   UNK N   1      32.143  27.033  -7.151  0.00  0.00    -0.091 C 
HETATM   34  C   UNK N   1      33.025  27.521  -6.055  0.00  0.00     0.042 C 
HETATM   35  C   UNK N   1      31.670  27.997  -8.189  0.00  0.00     0.042 C 
ENDBRANCH  31  32
ENDBRANCH   6  31
BRANCH   3  36
HETATM   36  C   UNK N   1      28.885  20.509  -7.500  0.00  0.00     0.072 C 
BRANCH  36  37
HETATM   37  C   UNK N   1      28.956  19.847  -8.846  0.00  0.00    -0.020 C 
HETATM   38  C   UNK N   1      30.022  19.157  -9.264  0.00  0.00    -0.091 C 
HETATM   39  C   UNK N   1      29.995  18.529 -10.614  0.00  0.00     0.042 C 
HETATM   40  C   UNK N   1      31.229  18.979  -8.402  0.00  0.00     0.042 C 
ENDBRANCH  36  37
ENDBRANCH   3  36
TORSDOF 12
ENDMDL
MODEL 5
REMARK VINA RESULT:      -5.8     13.794     16.675
REMARK  12 active torsions:
REMARK  status: ('A' for Active; 'I' for Inactive)
REMARK    1  A    between atoms: C_2  and  C_4 
REMARK    2  A    between atoms: C_6  and  C_4 
REMARK    3  A    between atoms: C_7  and  O_39 
REMARK    4  A    between atoms: C_8  and  C_34 
REMARK    5  A    between atoms: C_11  and  C_29 
REMARK    6  A    between atoms: C_15  and  C_24 
REMARK    7  A    between atoms: C_16  and  C_18 
REMARK    8  A    between atoms: C_18  and  C_19 
REMARK    9  A    between atoms: C_19  and  C_20 
REMARK   10  A    between atoms: C_24  and  C_25 
REMARK   11  A    between atoms: C_29  and  C_30 
REMARK   12  A    between atoms: C_34  and  C_35 
ROOT
HETATM    1  C   UNK N   1      22.018  14.946   4.538  0.00  0.00     0.139 C 
HETATM    2  C   UNK N   1      21.443  14.125   5.736  0.00  0.00     0.078 C 
HETATM    3  C   UNK N   1      22.099  13.072   6.301  0.00  0.00     0.023 C 
HETATM    4  C   UNK N   1      23.474  12.731   5.863  0.00  0.00     0.174 C 
HETATM    5  O   UNK N   1      23.988  11.677   6.209  0.00  0.00    -0.291 OA
HETATM    6  C   UNK N   1      24.222  13.726   5.014  0.00  0.00     0.091 C 
HETATM    7  C   UNK N   1      23.209  14.155   3.985  0.00  0.00     0.167 C 
HETATM    8  O   UNK N   1      23.347  13.887   2.799  0.00  0.00    -0.295 OA
HETATM    9  C   UNK N   1      24.539  14.935   5.947  0.00  0.00     0.031 C 
HETATM   10  C   UNK N   1      24.157  16.298   5.347  0.00  0.00     0.001 C 
HETATM   11  C   UNK N   1      22.613  16.364   5.013  0.00  0.00    -0.012 C 
HETATM   12  C   UNK N   1      21.881  16.873   6.255  0.00  0.00     0.018 C 
ENDROOT
BRANCH  11  13
HETATM   13  C   UNK N   1      22.383  17.428   3.914  0.00  0.00     0.015 C 
BRANCH  13  14
HETATM   14  C   UNK N   1      21.809  18.761   4.385  0.00  0.00     0.028 C 
BRANCH  14  15
HETATM   15  C   UNK N   1      21.720  19.706   3.223  0.00  0.00    -0.025 C 
HETATM   16  C   UNK N   1      20.640  19.821   2.436  0.00  0.00    -0.091 C 
HETATM   17  C   UNK N   1      20.658  20.808   1.323  0.00  0.00     0.042 C 
HETATM   18  C   UNK N   1      19.411  18.995   2.649  0.00  0.00     0.042 C 
ENDBRANCH  14  15
ENDBRANCH  13  14
ENDBRANCH  11  13
BRANCH  10  19
HETATM   19  C   UNK N   1      25.076  16.591   4.146  0.00  0.00     0.033 C 
BRANCH  19  20
HETATM   20  C   UNK N   1      26.266  17.411   4.544  0.00  0.00    -0.024 C 
HETATM   21  C   UNK N   1      26.446  18.670   4.131  0.00  0.00    -0.091 C 
HETATM   22  C   UNK N   1      27.674  19.402   4.549  0.00  0.00     0.042 C 
HETATM   23  C   UNK N   1      25.443  19.365   3.267  0.00  0.00     0.042 C 
ENDBRANCH  19  20
ENDBRANCH  10  19
BRANCH   1  24
HETATM   24  C   UNK N   1      20.878  15.119   3.500  0.00  0.00     0.153 C 
HETATM   25  O   UNK N   1      19.815  15.635   3.816  0.00  0.00    -0.296 OA
BRANCH  24  26
HETATM   26  C   UNK N   1      21.047  14.647   2.078  0.00  0.00     0.049 C 
HETATM   27  C   UNK N   1      20.113  13.501   1.747  0.00  0.00     0.017 C 
HETATM   28  C   UNK N   1      20.791  15.798   1.120  0.00  0.00     0.017 C 
ENDBRANCH  24  26
ENDBRANCH   1  24
BRANCH   2  29
HETATM   29  O   UNK N   1      20.237  14.468   6.243  0.00  0.00    -0.363 OA
HETATM   30  H   UNK N   1      19.983  14.500   7.144  0.00  0.00     0.217 HD
ENDBRANCH   2  29
BRANCH   6  31
HETATM   31  C   UNK N   1      25.468  13.085   4.356  0.00  0.00     0.053 C 
BRANCH  31  32
HETATM   32  C   UNK N   1      26.787  13.456   4.974  0.00  0.00    -0.023 C 
HETATM   33  C   UNK N   1      27.791  14.019   4.296  0.00  0.00    -0.091 C 
HETATM   34  C   UNK N   1      29.045  14.364   5.021  0.00  0.00     0.042 C 
HETATM   35  C   UNK N   1      27.696  14.298   2.832  0.00  0.00     0.042 C 
ENDBRANCH  31  32
ENDBRANCH   6  31
BRANCH   3  36
HETATM   36  C   UNK N   1      21.446  12.264   7.389  0.00  0.00     0.072 C 
BRANCH  36  37
HETATM   37  C   UNK N   1      22.345  12.199   8.591  0.00  0.00    -0.020 C 
HETATM   38  C   UNK N   1      22.029  12.746   9.768  0.00  0.00    -0.091 C 
HETATM   39  C   UNK N   1      22.984  12.621  10.904  0.00  0.00     0.042 C 
HETATM   40  C   UNK N   1      20.733  13.458   9.981  0.00  0.00     0.042 C 
ENDBRANCH  36  37
ENDBRANCH   3  36
TORSDOF 12
ENDMDL
MODEL 6
REMARK VINA RESULT:      -5.8     11.632     14.568
REMARK  12 active torsions:
REMARK  status: ('A' for Active; 'I' for Inactive)
REMARK    1  A    between atoms: C_2  and  C_4 
REMARK    2  A    between atoms: C_6  and  C_4 
REMARK    3  A    between atoms: C_7  and  O_39 
REMARK    4  A    between atoms: C_8  and  C_34 
REMARK    5  A    between atoms: C_11  and  C_29 
REMARK    6  A    between atoms: C_15  and  C_24 
REMARK    7  A    between atoms: C_16  and  C_18 
REMARK    8  A    between atoms: C_18  and  C_19 
REMARK    9  A    between atoms: C_19  and  C_20 
REMARK   10  A    between atoms: C_24  and  C_25 
REMARK   11  A    between atoms: C_29  and  C_30 
REMARK   12  A    between atoms: C_34  and  C_35 
ROOT
HETATM    1  C   UNK N   1      27.759  16.527   4.830  0.00  0.00     0.139 C 
HETATM    2  C   UNK N   1      29.107  16.916   4.143  0.00  0.00     0.078 C 
HETATM    3  C   UNK N   1      29.779  16.086   3.297  0.00  0.00     0.023 C 
HETATM    4  C   UNK N   1      29.179  14.789   2.895  0.00  0.00     0.174 C 
HETATM    5  O   UNK N   1      29.853  13.953   2.310  0.00  0.00    -0.291 OA
HETATM    6  C   UNK N   1      27.724  14.551   3.199  0.00  0.00     0.091 C 
HETATM    7  C   UNK N   1      27.570  15.021   4.622  0.00  0.00     0.167 C 
HETATM    8  O   UNK N   1      27.308  14.242   5.529  0.00  0.00    -0.295 OA
HETATM    9  C   UNK N   1      26.925  15.507   2.261  0.00  0.00     0.031 C 
HETATM   10  C   UNK N   1      25.855  16.338   2.987  0.00  0.00     0.001 C 
HETATM   11  C   UNK N   1      26.498  17.233   4.122  0.00  0.00    -0.012 C 
HETATM   12  C   UNK N   1      26.901  18.570   3.500  0.00  0.00     0.018 C 
ENDROOT
BRANCH  11  13
HETATM   13  C   UNK N   1      25.415  17.560   5.176  0.00  0.00     0.015 C 
BRANCH  13  14
HETATM   14  C   UNK N   1      24.626  18.845   4.946  0.00  0.00     0.028 C 
BRANCH  14  15
HETATM   15  C   UNK N   1      23.229  18.504   4.515  0.00  0.00    -0.025 C 
HETATM   16  C   UNK N   1      22.551  19.183   3.578  0.00  0.00    -0.091 C 
HETATM   17  C   UNK N   1      21.176  18.740   3.217  0.00  0.00     0.042 C 
HETATM   18  C   UNK N   1      23.136  20.366   2.875  0.00  0.00     0.042 C 
ENDBRANCH  14  15
ENDBRANCH  13  14
ENDBRANCH  11  13
BRANCH  10  19
HETATM   19  C   UNK N   1      24.741  15.397   3.481  0.00  0.00     0.033 C 
BRANCH  19  20
HETATM   20  C   UNK N   1      23.626  15.285   2.485  0.00  0.00    -0.024 C 
HETATM   21  C   UNK N   1      22.352  15.102   2.845  0.00  0.00    -0.091 C 
HETATM   22  C   UNK N   1      21.310  14.970   1.790  0.00  0.00     0.042 C 
HETATM   23  C   UNK N   1      21.943  15.033   4.283  0.00  0.00     0.042 C 
ENDBRANCH  19  20
ENDBRANCH  10  19
BRANCH   1  24
HETATM   24  C   UNK N   1      27.869  16.916   6.329  0.00  0.00     0.153 C 
HETATM   25  O   UNK N   1      27.216  16.328   7.179  0.00  0.00    -0.296 OA
BRANCH  24  26
HETATM   26  C   UNK N   1      28.776  18.036   6.773  0.00  0.00     0.049 C 
HETATM   27  C   UNK N   1      27.994  19.229   7.283  0.00  0.00     0.017 C 
HETATM   28  C   UNK N   1      29.709  17.539   7.865  0.00  0.00     0.017 C 
ENDBRANCH  24  26
ENDBRANCH   1  24
BRANCH   2  29
HETATM   29  O   UNK N   1      29.639  18.133   4.393  0.00  0.00    -0.363 OA
HETATM   30  H   UNK N   1      30.436  18.328   4.847  0.00  0.00     0.217 HD
ENDBRANCH   2  29
BRANCH   6  31
HETATM   31  C   UNK N   1      27.352  13.054   3.048  0.00  0.00     0.053 C 
BRANCH  31  32
HETATM   32  C   UNK N   1      26.518  12.715   1.845  0.00  0.00    -0.023 C 
HETATM   33  C   UNK N   1      25.323  12.122   1.915  0.00  0.00    -0.091 C 
HETATM   34  C   UNK N   1      24.577  11.855   0.655  0.00  0.00     0.042 C 
HETATM   35  C   UNK N   1      24.722  11.709   3.219  0.00  0.00     0.042 C 
ENDBRANCH  31  32
ENDBRANCH   6  31
BRANCH   3  36
HETATM   36  C   UNK N   1      31.119  16.484   2.744  0.00  0.00     0.072 C 
BRANCH  36  37
HETATM   37  C   UNK N   1      32.210  15.717   3.436  0.00  0.00    -0.020 C 
HETATM   38  C   UNK N   1      33.073  16.284   4.285  0.00  0.00    -0.091 C 
HETATM   39  C   UNK N   1      34.117  15.438   4.928  0.00  0.00     0.042 C 
HETATM   40  C   UNK N   1      33.005  17.738   4.622  0.00  0.00     0.042 C 
ENDBRANCH  36  37
ENDBRANCH   3  36
TORSDOF 12
ENDMDL
MODEL 7
REMARK VINA RESULT:      -5.7     13.581     15.642
REMARK  12 active torsions:
REMARK  status: ('A' for Active; 'I' for Inactive)
REMARK    1  A    between atoms: C_2  and  C_4 
REMARK    2  A    between atoms: C_6  and  C_4 
REMARK    3  A    between atoms: C_7  and  O_39 
REMARK    4  A    between atoms: C_8  and  C_34 
REMARK    5  A    between atoms: C_11  and  C_29 
REMARK    6  A    between atoms: C_15  and  C_24 
REMARK    7  A    between atoms: C_16  and  C_18 
REMARK    8  A    between atoms: C_18  and  C_19 
REMARK    9  A    between atoms: C_19  and  C_20 
REMARK   10  A    between atoms: C_24  and  C_25 
REMARK   11  A    between atoms: C_29  and  C_30 
REMARK   12  A    between atoms: C_34  and  C_35 
ROOT
HETATM    1  C   UNK N   1      24.310  15.556   4.120  0.00  0.00     0.139 C 
HETATM    2  C   UNK N   1      25.200  16.831   3.971  0.00  0.00     0.078 C 
HETATM    3  C   UNK N   1      24.687  18.082   3.795  0.00  0.00     0.023 C 
HETATM    4  C   UNK N   1      23.221  18.300   3.855  0.00  0.00     0.174 C 
HETATM    5  O   UNK N   1      22.740  19.365   3.496  0.00  0.00    -0.291 OA
HETATM    6  C   UNK N   1      22.355  17.192   4.395  0.00  0.00     0.091 C 
HETATM    7  C   UNK N   1      22.886  15.955   3.717  0.00  0.00     0.167 C 
HETATM    8  O   UNK N   1      22.213  15.328   2.910  0.00  0.00    -0.295 OA
HETATM    9  C   UNK N   1      22.667  17.106   5.920  0.00  0.00     0.031 C 
HETATM   10  C   UNK N   1      22.972  15.682   6.412  0.00  0.00     0.001 C 
HETATM   11  C   UNK N   1      24.214  15.066   5.650  0.00  0.00    -0.012 C 
HETATM   12  C   UNK N   1      25.478  15.443   6.422  0.00  0.00     0.018 C 
ENDROOT
BRANCH  11  13
HETATM   13  C   UNK N   1      24.122  13.523   5.705  0.00  0.00     0.015 C 
BRANCH  13  14
HETATM   14  C   UNK N   1      25.010  12.838   6.740  0.00  0.00     0.028 C 
BRANCH  14  15
HETATM   15  C   UNK N   1      24.155  12.050   7.688  0.00  0.00    -0.025 C 
HETATM   16  C   UNK N   1      24.110  12.269   9.011  0.00  0.00    -0.091 C 
HETATM   17  C   UNK N   1      23.208  11.436   9.853  0.00  0.00     0.042 C 
HETATM   18  C   UNK N   1      24.931  13.333   9.668  0.00  0.00     0.042 C 
ENDBRANCH  14  15
ENDBRANCH  13  14
ENDBRANCH  11  13
BRANCH  10  19
HETATM   19  C   UNK N   1      21.690  14.834   6.316  0.00  0.00     0.033 C 
BRANCH  19  20
HETATM   20  C   UNK N   1      21.376  14.152   7.614  0.00  0.00    -0.024 C 
HETATM   21  C   UNK N   1      20.677  14.742   8.589  0.00  0.00    -0.091 C 
HETATM   22  C   UNK N   1      20.437  14.005   9.860  0.00  0.00     0.042 C 
HETATM   23  C   UNK N   1      20.124  16.123   8.434  0.00  0.00     0.042 C 
ENDBRANCH  19  20
ENDBRANCH  10  19
BRANCH   1  24
HETATM   24  C   UNK N   1      24.908  14.458   3.201  0.00  0.00     0.153 C 
HETATM   25  O   UNK N   1      26.084  14.135   3.295  0.00  0.00    -0.296 OA
BRANCH  24  26
HETATM   26  C   UNK N   1      24.060  13.771   2.162  0.00  0.00     0.049 C 
HETATM   27  C   UNK N   1      24.391  14.240   0.760  0.00  0.00     0.017 C 
HETATM   28  C   UNK N   1      24.257  12.266   2.250  0.00  0.00     0.017 C 
ENDBRANCH  24  26
ENDBRANCH   1  24
BRANCH   2  29
HETATM   29  O   UNK N   1      26.544  16.698   4.019  0.00  0.00    -0.363 OA
HETATM   30  H   UNK N   1      27.043  15.906   3.974  0.00  0.00     0.217 HD
ENDBRANCH   2  29
BRANCH   6  31
HETATM   31  C   UNK N   1      20.861  17.428   4.063  0.00  0.00     0.053 C 
BRANCH  31  32
HETATM   32  C   UNK N   1      20.401  16.886   2.738  0.00  0.00    -0.023 C 
HETATM   33  C   UNK N   1      20.135  17.651   1.677  0.00  0.00    -0.091 C 
HETATM   34  C   UNK N   1      19.708  16.999   0.408  0.00  0.00     0.042 C 
HETATM   35  C   UNK N   1      20.240  19.140   1.731  0.00  0.00     0.042 C 
ENDBRANCH  31  32
ENDBRANCH   6  31
BRANCH   3  36
HETATM   36  C   UNK N   1      25.601  19.253   3.562  0.00  0.00     0.072 C 
BRANCH  36  37
HETATM   37  C   UNK N   1      25.717  20.071   4.817  0.00  0.00    -0.020 C 
HETATM   38  C   UNK N   1      26.889  20.375   5.383  0.00  0.00    -0.091 C 
HETATM   39  C   UNK N   1      26.903  21.198   6.624  0.00  0.00     0.042 C 
HETATM   40  C   UNK N   1      28.187  19.929   4.791  0.00  0.00     0.042 C 
ENDBRANCH  36  37
ENDBRANCH   3  36
TORSDOF 12
ENDMDL
MODEL 8
REMARK VINA RESULT:      -5.7      1.796      5.149
REMARK  12 active torsions:
REMARK  status: ('A' for Active; 'I' for Inactive)
REMARK    1  A    between atoms: C_2  and  C_4 
REMARK    2  A    between atoms: C_6  and  C_4 
REMARK    3  A    between atoms: C_7  and  O_39 
REMARK    4  A    between atoms: C_8  and  C_34 
REMARK    5  A    between atoms: C_11  and  C_29 
REMARK    6  A    between atoms: C_15  and  C_24 
REMARK    7  A    between atoms: C_16  and  C_18 
REMARK    8  A    between atoms: C_18  and  C_19 
REMARK    9  A    between atoms: C_19  and  C_20 
REMARK   10  A    between atoms: C_24  and  C_25 
REMARK   11  A    between atoms: C_29  and  C_30 
REMARK   12  A    between atoms: C_34  and  C_35 
ROOT
HETATM    1  C   UNK N   1      27.780  25.567  -5.255  0.00  0.00     0.139 C 
HETATM    2  C   UNK N   1      28.520  26.934  -5.092  0.00  0.00     0.078 C 
HETATM    3  C   UNK N   1      29.650  27.085  -4.345  0.00  0.00     0.023 C 
HETATM    4  C   UNK N   1      30.302  25.900  -3.735  0.00  0.00     0.174 C 
HETATM    5  O   UNK N   1      31.185  26.043  -2.901  0.00  0.00    -0.291 OA
HETATM    6  C   UNK N   1      29.870  24.531  -4.193  0.00  0.00     0.091 C 
HETATM    7  C   UNK N   1      28.365  24.614  -4.208  0.00  0.00     0.167 C 
HETATM    8  O   UNK N   1      27.680  23.957  -3.436  0.00  0.00    -0.295 OA
HETATM    9  C   UNK N   1      30.384  24.385  -5.658  0.00  0.00     0.031 C 
HETATM   10  C   UNK N   1      29.311  23.900  -6.646  0.00  0.00     0.001 C 
HETATM   11  C   UNK N   1      28.078  24.890  -6.684  0.00  0.00    -0.012 C 
HETATM   12  C   UNK N   1      28.359  25.955  -7.744  0.00  0.00     0.018 C 
ENDROOT
BRANCH  11  13
HETATM   13  C   UNK N   1      26.830  24.118  -7.174  0.00  0.00     0.015 C 
BRANCH  13  14
HETATM   14  C   UNK N   1      26.278  24.536  -8.534  0.00  0.00     0.028 C 
BRANCH  14  15
HETATM   15  C   UNK N   1      26.025  23.314  -9.367  0.00  0.00    -0.025 C 
HETATM   16  C   UNK N   1      26.923  22.788 -10.213  0.00  0.00    -0.091 C 
HETATM   17  C   UNK N   1      26.569  21.560 -10.974  0.00  0.00     0.042 C 
HETATM   18  C   UNK N   1      28.278  23.393 -10.408  0.00  0.00     0.042 C 
ENDBRANCH  14  15
ENDBRANCH  13  14
ENDBRANCH  11  13
BRANCH  10  19
HETATM   19  C   UNK N   1      28.940  22.444  -6.307  0.00  0.00     0.033 C 
BRANCH  19  20
HETATM   20  C   UNK N   1      29.745  21.464  -7.108  0.00  0.00    -0.024 C 
HETATM   21  C   UNK N   1      29.188  20.452  -7.780  0.00  0.00    -0.091 C 
HETATM   22  C   UNK N   1      30.064  19.506  -8.525  0.00  0.00     0.042 C 
HETATM   23  C   UNK N   1      27.706  20.247  -7.809  0.00  0.00     0.042 C 
ENDBRANCH  19  20
ENDBRANCH  10  19
BRANCH   1  24
HETATM   24  C   UNK N   1      26.265  25.829  -5.048  0.00  0.00     0.153 C 
HETATM   25  O   UNK N   1      25.479  24.900  -4.927  0.00  0.00    -0.296 OA
BRANCH  24  26
HETATM   26  C   UNK N   1      25.721  27.235  -5.001  0.00  0.00     0.049 C 
HETATM   27  C   UNK N   1      24.391  27.352  -5.717  0.00  0.00     0.017 C 
HETATM   28  C   UNK N   1      25.556  27.675  -3.556  0.00  0.00     0.017 C 
ENDBRANCH  24  26
ENDBRANCH   1  24
BRANCH   2  29
HETATM   29  O   UNK N   1      28.024  28.023  -5.720  0.00  0.00    -0.363 OA
HETATM   30  H   UNK N   1      28.500  28.683  -6.185  0.00  0.00     0.217 HD
ENDBRANCH   2  29
BRANCH   6  31
HETATM   31  C   UNK N   1      30.371  23.428  -3.228  0.00  0.00     0.053 C 
BRANCH  31  32
HETATM   32  C   UNK N   1      31.717  22.845  -3.559  0.00  0.00    -0.023 C 
HETATM   33  C   UNK N   1      31.917  21.555  -3.837  0.00  0.00    -0.091 C 
HETATM   34  C   UNK N   1      33.294  21.096  -4.172  0.00  0.00     0.042 C 
HETATM   35  C   UNK N   1      30.805  20.559  -3.808  0.00  0.00     0.042 C 
ENDBRANCH  31  32
ENDBRANCH   6  31
BRANCH   3  36
HETATM   36  C   UNK N   1      30.258  28.446  -4.152  0.00  0.00     0.072 C 
BRANCH  36  37
HETATM   37  C   UNK N   1      29.600  29.144  -2.996  0.00  0.00    -0.020 C 
HETATM   38  C   UNK N   1      30.249  29.458  -1.870  0.00  0.00    -0.091 C 
HETATM   39  C   UNK N   1      29.511  30.157  -0.781  0.00  0.00     0.042 C 
HETATM   40  C   UNK N   1      31.698  29.147  -1.685  0.00  0.00     0.042 C 
ENDBRANCH  36  37
ENDBRANCH   3  36
TORSDOF 12
ENDMDL
MODEL 9
REMARK VINA RESULT:      -5.7     12.964     15.510
REMARK  12 active torsions:
REMARK  status: ('A' for Active; 'I' for Inactive)
REMARK    1  A    between atoms: C_2  and  C_4 
REMARK    2  A    between atoms: C_6  and  C_4 
REMARK    3  A    between atoms: C_7  and  O_39 
REMARK    4  A    between atoms: C_8  and  C_34 
REMARK    5  A    between atoms: C_11  and  C_29 
REMARK    6  A    between atoms: C_15  and  C_24 
REMARK    7  A    between atoms: C_16  and  C_18 
REMARK    8  A    between atoms: C_18  and  C_19 
REMARK    9  A    between atoms: C_19  and  C_20 
REMARK   10  A    between atoms: C_24  and  C_25 
REMARK   11  A    between atoms: C_29  and  C_30 
REMARK   12  A    between atoms: C_34  and  C_35 
ROOT
HETATM    1  C   UNK N   1      22.404  15.169   5.002  0.00  0.00     0.139 C 
HETATM    2  C   UNK N   1      21.636  16.508   4.754  0.00  0.00     0.078 C 
HETATM    3  C   UNK N   1      22.236  17.730   4.802  0.00  0.00     0.023 C 
HETATM    4  C   UNK N   1      23.706  17.831   4.981  0.00  0.00     0.174 C 
HETATM    5  O   UNK N   1      24.224  18.910   5.231  0.00  0.00    -0.291 OA
HETATM    6  C   UNK N   1      24.533  16.584   4.817  0.00  0.00     0.091 C 
HETATM    7  C   UNK N   1      23.770  15.539   5.590  0.00  0.00     0.167 C 
HETATM    8  O   UNK N   1      24.226  15.033   6.606  0.00  0.00    -0.295 OA
HETATM    9  C   UNK N   1      24.481  16.229   3.299  0.00  0.00     0.031 C 
HETATM   10  C   UNK N   1      24.121  14.761   3.017  0.00  0.00     0.001 C 
HETATM   11  C   UNK N   1      22.711  14.390   3.628  0.00  0.00    -0.012 C 
HETATM   12  C   UNK N   1      21.643  14.698   2.577  0.00  0.00     0.018 C 
ENDROOT
BRANCH  11  13
HETATM   13  C   UNK N   1      22.652  12.862   3.863  0.00  0.00     0.015 C 
BRANCH  13  14
HETATM   14  C   UNK N   1      22.132  12.027   2.696  0.00  0.00     0.028 C 
BRANCH  14  15
HETATM   15  C   UNK N   1      23.241  11.167   2.165  0.00  0.00    -0.025 C 
HETATM   16  C   UNK N   1      23.868  11.393   1.000  0.00  0.00    -0.091 C 
HETATM   17  C   UNK N   1      24.969  10.483   0.583  0.00  0.00     0.042 C 
HETATM   18  C   UNK N   1      23.501  12.538   0.111  0.00  0.00     0.042 C 
ENDBRANCH  14  15
ENDBRANCH  13  14
ENDBRANCH  11  13
BRANCH  10  19
HETATM   19  C   UNK N   1      25.274  13.861   3.500  0.00  0.00     0.033 C 
BRANCH  19  20
HETATM   20  C   UNK N   1      26.335  13.706   2.452  0.00  0.00    -0.024 C 
HETATM   21  C   UNK N   1      27.254  12.736   2.493  0.00  0.00    -0.091 C 
HETATM   22  C   UNK N   1      28.291  12.673   1.426  0.00  0.00     0.042 C 
HETATM   23  C   UNK N   1      27.262  11.706   3.577  0.00  0.00     0.042 C 
ENDBRANCH  19  20
ENDBRANCH  10  19
BRANCH   1  24
HETATM   24  C   UNK N   1      21.546  14.312   5.971  0.00  0.00     0.153 C 
HETATM   25  O   UNK N   1      20.426  13.939   5.653  0.00  0.00    -0.296 OA
BRANCH  24  26
HETATM   26  C   UNK N   1      22.068  13.925   7.331  0.00  0.00     0.049 C 
HETATM   27  C   UNK N   1      21.338  14.648   8.444  0.00  0.00     0.017 C 
HETATM   28  C   UNK N   1      21.929  12.424   7.528  0.00  0.00     0.017 C 
ENDBRANCH  24  26
ENDBRANCH   1  24
BRANCH   2  29
HETATM   29  O   UNK N   1      20.314  16.460   4.479  0.00  0.00    -0.363 OA
HETATM   30  H   UNK N   1      19.905  16.425   3.636  0.00  0.00     0.217 HD
ENDBRANCH   2  29
BRANCH   6  31
HETATM   31  C   UNK N   1      25.964  16.776   5.377  0.00  0.00     0.053 C 
BRANCH  31  32
HETATM   32  C   UNK N   1      27.044  16.944   4.345  0.00  0.00    -0.023 C 
HETATM   33  C   UNK N   1      28.134  16.175   4.281  0.00  0.00    -0.091 C 
HETATM   34  C   UNK N   1      29.126  16.422   3.199  0.00  0.00     0.042 C 
HETATM   35  C   UNK N   1      28.392  15.087   5.271  0.00  0.00     0.042 C 
ENDBRANCH  31  32
ENDBRANCH   6  31
BRANCH   3  36
HETATM   36  C   UNK N   1      21.421  18.985   4.648  0.00  0.00     0.072 C 
BRANCH  36  37
HETATM   37  C   UNK N   1      21.643  19.579   3.286  0.00  0.00    -0.020 C 
HETATM   38  C   UNK N   1      20.682  19.656   2.360  0.00  0.00    -0.091 C 
HETATM   39  C   UNK N   1      20.997  20.270   1.040  0.00  0.00     0.042 C 
HETATM   40  C   UNK N   1      19.296  19.166   2.623  0.00  0.00     0.042 C 
ENDBRANCH  36  37
ENDBRANCH   3  36
TORSDOF 12
ENDMDL
