MODEL 1
REMARK VINA RESULT:      -6.7      0.000      0.000
REMARK  26 active torsions:
REMARK  status: ('A' for Active; 'I' for Inactive)
REMARK    1  A    between atoms: C_2  and  N_1 
REMARK    2  A    between atoms: C_6  and  O_14 
REMARK    3  A    between atoms: C_12  and  C_17 
REMARK    4  A    between atoms: C_13  and  O_18 
REMARK    5  A    between atoms: C_15  and  N_21 
REMARK    6  A    between atoms: C_17  and  O_22 
REMARK    7  A    between atoms: O_18  and  P_23 
REMARK    8  A    between atoms: O_22  and  P_24 
REMARK    9  A    between atoms: P_23  and  O_25 
REMARK   10  A    between atoms: P_23  and  O_26 
REMARK   11  A    between atoms: P_24  and  O_28 
REMARK   12  A    between atoms: P_24  and  O_29 
REMARK   13  A    between atoms: O_28  and  P_31 
REMARK   14  A    between atoms: P_31  and  O_32 
REMARK   15  A    between atoms: P_31  and  O_33 
REMARK   16  A    between atoms: O_32  and  C_35 
REMARK   17  A    between atoms: C_35  and  C_36 
REMARK   18  A    between atoms: C_36  and  C_37 
REMARK   19  A    between atoms: C_37  and  C_40 
REMARK   20  A    between atoms: C_37  and  O_41 
REMARK       I    between atoms: C_40  and  N_42 
REMARK   21  A    between atoms: N_42  and  C_44 
REMARK   22  A    between atoms: C_44  and  C_45 
REMARK   23  A    between atoms: C_45  and  C_46 
REMARK       I    between atoms: C_46  and  N_47 
REMARK   24  A    between atoms: N_47  and  C_49 
REMARK   25  A    between atoms: C_49  and  C_50 
REMARK   26  A    between atoms: C_50  and  S_51 
ROOT
HETATM    1  O   UNK N   1      34.858  13.683   7.825  0.00  0.00    -0.294 OA
ENDROOT
BRANCH   1   2
HETATM    2  C   UNK N   1      33.938  14.682   7.527  0.00  0.00     0.215 C 
BRANCH   2   3
HETATM    3  C   UNK N   1      34.565  16.064   7.516  0.00  0.00     0.180 C 
HETATM    4  O   UNK N   1      33.849  16.898   6.633  0.00  0.00    -0.353 OA
HETATM    5  C   UNK N   1      33.267  17.923   7.411  0.00  0.00     0.262 C 
HETATM    6  C   UNK N   1      34.068  18.070   8.688  0.00  0.00     0.199 C 
HETATM    7  C   UNK N   1      34.440  16.636   8.917  0.00  0.00     0.197 C 
BRANCH   5   8
HETATM    8  N   UNK N   1      31.839  17.654   7.617  0.00  0.00    -0.297 N 
HETATM    9  C   UNK N   1      30.920  17.102   6.806  0.00  0.00     0.142 A 
HETATM   10  C   UNK N   1      29.709  17.178   7.384  0.00  0.00     0.122 A 
HETATM   11  N   UNK N   1      31.098  16.561   5.576  0.00  0.00    -0.336 N 
HETATM   12  C   UNK N   1      28.585  16.719   6.714  0.00  0.00     0.131 A 
HETATM   13  N   UNK N   1      29.816  17.756   8.595  0.00  0.00    -0.346 N 
HETATM   14  N   UNK N   1      28.755  16.176   5.472  0.00  0.00    -0.337 N 
HETATM   15  C   UNK N   1      30.003  16.087   4.909  0.00  0.00     0.183 A 
ATOM     16  HN  UNK N   1      27.944  15.832   4.958  1.00  0.00     0.168 HD
HETATM   17  C   UNK N   1      31.143  18.040   8.717  0.00  0.00     0.188 A 
ATOM     18  HN  UNK N   1      29.072  17.941   9.268  1.00  0.00     0.167 HD
ATOM     19  HN  UNK N   1      32.027  16.507   5.159  1.00  0.00     0.168 HD
BRANCH  12  20
HETATM   20  N   UNK N   1      27.299  16.829   7.279  0.00  0.00    -0.383 N 
HETATM   21  H   UNK N   1      26.858  17.707   7.351  0.00  0.00     0.157 HD
HETATM   22  H   UNK N   1      26.839  16.023   7.605  0.00  0.00     0.157 HD
ENDBRANCH  12  20
ENDBRANCH   5   8
BRANCH   6  23
HETATM   23  O   UNK N   1      35.218  18.811   8.396  0.00  0.00    -0.388 OA
HETATM   24  H   UNK N   1      35.470  18.996   7.477  0.00  0.00     0.210 HD
ENDBRANCH   6  23
BRANCH   7  25
HETATM   25  O   UNK N   1      35.629  16.513   9.643  0.00  0.00    -0.286 OA
BRANCH  25  26
HETATM   26  P   UNK N   1      35.255  15.685  11.128  0.00  0.00     0.391 P 
HETATM   27  O   UNK N   1      33.957  14.838  11.223  0.00  0.00    -0.632 OA
BRANCH  26  28
HETATM   28  O   UNK N   1      36.401  15.521  12.419  0.00  0.00    -0.307 OA
HETATM   29  H   UNK N   1      37.330  15.798  12.462  0.00  0.00     0.222 HD
ENDBRANCH  26  28
BRANCH  26  30
HETATM   30  O   UNK N   1      36.010  14.318  10.426  0.00  0.00    -0.307 OA
HETATM   31  H   UNK N   1      36.821  13.784  10.412  0.00  0.00     0.222 HD
ENDBRANCH  26  30
ENDBRANCH  25  26
ENDBRANCH   7  25
ENDBRANCH   2   3
ENDBRANCH   1   2
BRANCH   1  32
HETATM   32  P   UNK N   1      33.918  12.481   8.666  0.00  0.00     0.401 P 
HETATM   33  O   UNK N   1      33.694  11.327   7.654  0.00  0.00    -0.631 OA
BRANCH  32  34
HETATM   34  O   UNK N   1      34.811  11.794  10.004  0.00  0.00    -0.195 OA
BRANCH  34  35
HETATM   35  P   UNK N   1      35.727  10.443   9.389  0.00  0.00     0.401 P 
HETATM   36  O   UNK N   1      36.759  11.576   9.636  0.00  0.00    -0.631 OA
BRANCH  35  37
HETATM   37  O   UNK N   1      34.890   9.894  10.835  0.00  0.00    -0.296 OA
BRANCH  37  38
HETATM   38  C   UNK N   1      35.848   9.941  11.866  0.00  0.00     0.192 C 
BRANCH  38  39
HETATM   39  C   UNK N   1      35.387  10.585  13.179  0.00  0.00     0.009 C 
HETATM   40  C   UNK N   1      33.881  10.381  13.199  0.00  0.00     0.020 C 
HETATM   41  C   UNK N   1      35.976   9.847  14.373  0.00  0.00     0.020 C 
BRANCH  39  42
HETATM   42  C   UNK N   1      35.715  12.097  13.226  0.00  0.00     0.219 C 
BRANCH  42  43
HETATM   43  C   UNK N   1      35.972  12.667  14.600  0.00  0.00     0.247 C 
HETATM   44  N   UNK N   1      34.906  12.853  15.428  0.00  0.00    -0.358 N 
HETATM   45  H   UNK N   1      34.029  12.615  15.048  0.00  0.00     0.162 HD
HETATM   46  O   UNK N   1      37.112  12.918  14.960  0.00  0.00    -0.271 OA
BRANCH  44  47
HETATM   47  C   UNK N   1      34.884  13.353  16.795  0.00  0.00     0.132 C 
BRANCH  47  48
HETATM   48  C   UNK N   1      35.236  12.355  17.895  0.00  0.00     0.122 C 
BRANCH  48  49
HETATM   49  C   UNK N   1      35.259  12.990  19.257  0.00  0.00     0.219 C 
HETATM   50  N   UNK N   1      35.588  12.293  20.374  0.00  0.00    -0.360 N 
HETATM   51  H   UNK N   1      35.590  12.766  21.237  0.00  0.00     0.162 HD
HETATM   52  O   UNK N   1      35.007  14.178  19.353  0.00  0.00    -0.274 OA
BRANCH  50  53
HETATM   53  C   UNK N   1      35.936  10.894  20.355  0.00  0.00     0.132 C 
BRANCH  53  54
HETATM   54  C   UNK N   1      34.771  10.072  20.870  0.00  0.00     0.090 C 
BRANCH  54  55
HETATM   55  S   UNK N   1      34.033   9.121  19.508  0.00  0.00    -0.181 SA
HETATM   56  H   UNK N   1      33.209   8.067  19.754  0.00  0.00     0.101 HD
ENDBRANCH  54  55
ENDBRANCH  53  54
ENDBRANCH  50  53
ENDBRANCH  48  49
ENDBRANCH  47  48
ENDBRANCH  44  47
ENDBRANCH  42  43
BRANCH  42  57
HETATM   57  O   UNK N   1      36.754  12.425  12.351  0.00  0.00    -0.385 OA
HETATM   58  H   UNK N   1      37.204  12.997  11.708  0.00  0.00     0.210 HD
ENDBRANCH  42  57
ENDBRANCH  39  42
ENDBRANCH  38  39
ENDBRANCH  37  38
ENDBRANCH  35  37
BRANCH  35  59
HETATM   59  O   UNK N   1      36.981   9.796  10.409  0.00  0.00    -0.307 OA
HETATM   60  H   UNK N   1      36.908   8.892  10.753  0.00  0.00     0.222 HD
ENDBRANCH  35  59
ENDBRANCH  34  35
ENDBRANCH  32  34
BRANCH  32  61
HETATM   61  O   UNK N   1      32.318  13.032   9.088  0.00  0.00    -0.307 OA
HETATM   62  H   UNK N   1      31.519  13.563   8.946  0.00  0.00     0.222 HD
ENDBRANCH  32  61
ENDBRANCH   1  32
TORSDOF 26
ENDMDL
MODEL 2
REMARK VINA RESULT:      -6.7      3.363      5.183
REMARK  26 active torsions:
REMARK  status: ('A' for Active; 'I' for Inactive)
REMARK    1  A    between atoms: C_2  and  N_1 
REMARK    2  A    between atoms: C_6  and  O_14 
REMARK    3  A    between atoms: C_12  and  C_17 
REMARK    4  A    between atoms: C_13  and  O_18 
REMARK    5  A    between atoms: C_15  and  N_21 
REMARK    6  A    between atoms: C_17  and  O_22 
REMARK    7  A    between atoms: O_18  and  P_23 
REMARK    8  A    between atoms: O_22  and  P_24 
REMARK    9  A    between atoms: P_23  and  O_25 
REMARK   10  A    between atoms: P_23  and  O_26 
REMARK   11  A    between atoms: P_24  and  O_28 
REMARK   12  A    between atoms: P_24  and  O_29 
REMARK   13  A    between atoms: O_28  and  P_31 
REMARK   14  A    between atoms: P_31  and  O_32 
REMARK   15  A    between atoms: P_31  and  O_33 
REMARK   16  A    between atoms: O_32  and  C_35 
REMARK   17  A    between atoms: C_35  and  C_36 
REMARK   18  A    between atoms: C_36  and  C_37 
REMARK   19  A    between atoms: C_37  and  C_40 
REMARK   20  A    between atoms: C_37  and  O_41 
REMARK       I    between atoms: C_40  and  N_42 
REMARK   21  A    between atoms: N_42  and  C_44 
REMARK   22  A    between atoms: C_44  and  C_45 
REMARK   23  A    between atoms: C_45  and  C_46 
REMARK       I    between atoms: C_46  and  N_47 
REMARK   24  A    between atoms: N_47  and  C_49 
REMARK   25  A    between atoms: C_49  and  C_50 
REMARK   26  A    between atoms: C_50  and  S_51 
ROOT
HETATM    1  O   UNK N   1      34.699  13.649   7.984  0.00  0.00    -0.294 OA
ENDROOT
BRANCH   1   2
HETATM    2  C   UNK N   1      33.864  14.630   7.462  0.00  0.00     0.215 C 
BRANCH   2   3
HETATM    3  C   UNK N   1      34.512  16.002   7.459  0.00  0.00     0.180 C 
HETATM    4  O   UNK N   1      33.810  16.853   6.580  0.00  0.00    -0.353 OA
HETATM    5  C   UNK N   1      33.243  17.882   7.364  0.00  0.00     0.262 C 
HETATM    6  C   UNK N   1      34.046  18.009   8.642  0.00  0.00     0.199 C 
HETATM    7  C   UNK N   1      34.396  16.569   8.863  0.00  0.00     0.197 C 
BRANCH   5   8
HETATM    8  N   UNK N   1      31.812  17.634   7.568  0.00  0.00    -0.297 N 
HETATM    9  C   UNK N   1      30.890  17.078   6.763  0.00  0.00     0.142 A 
HETATM   10  C   UNK N   1      29.677  17.179   7.334  0.00  0.00     0.122 A 
HETATM   11  N   UNK N   1      31.068  16.510   5.545  0.00  0.00    -0.336 N 
HETATM   12  C   UNK N   1      28.551  16.721   6.668  0.00  0.00     0.131 A 
HETATM   13  N   UNK N   1      29.786  17.780   8.533  0.00  0.00    -0.346 N 
HETATM   14  N   UNK N   1      28.720  16.151   5.437  0.00  0.00    -0.337 N 
HETATM   15  C   UNK N   1      29.970  16.037   4.882  0.00  0.00     0.183 A 
ATOM     16  HN  UNK N   1      27.908  15.807   4.925  1.00  0.00     0.168 HD
HETATM   17  C   UNK N   1      31.115  18.050   8.657  0.00  0.00     0.188 A 
ATOM     18  HN  UNK N   1      29.041  17.986   9.199  1.00  0.00     0.167 HD
ATOM     19  HN  UNK N   1      31.997  16.437   5.133  1.00  0.00     0.168 HD
BRANCH  12  20
HETATM   20  N   UNK N   1      27.264  16.857   7.224  0.00  0.00    -0.383 N 
HETATM   21  H   UNK N   1      26.881  17.750   7.383  0.00  0.00     0.157 HD
HETATM   22  H   UNK N   1      26.744  16.054   7.454  0.00  0.00     0.157 HD
ENDBRANCH  12  20
ENDBRANCH   5   8
BRANCH   6  23
HETATM   23  O   UNK N   1      35.208  18.734   8.354  0.00  0.00    -0.388 OA
HETATM   24  H   UNK N   1      35.544  18.794   7.445  0.00  0.00     0.210 HD
ENDBRANCH   6  23
BRANCH   7  25
HETATM   25  O   UNK N   1      35.583  16.423   9.588  0.00  0.00    -0.286 OA
BRANCH  25  26
HETATM   26  P   UNK N   1      35.173  15.732  11.133  0.00  0.00     0.391 P 
HETATM   27  O   UNK N   1      33.789  15.053  11.322  0.00  0.00    -0.632 OA
BRANCH  26  28
HETATM   28  O   UNK N   1      36.342  15.506  12.394  0.00  0.00    -0.307 OA
HETATM   29  H   UNK N   1      36.697  16.145  13.032  0.00  0.00     0.222 HD
ENDBRANCH  26  28
BRANCH  26  30
HETATM   30  O   UNK N   1      35.733  14.246  10.491  0.00  0.00    -0.307 OA
HETATM   31  H   UNK N   1      35.826  13.296  10.666  0.00  0.00     0.222 HD
ENDBRANCH  26  30
ENDBRANCH  25  26
ENDBRANCH   7  25
ENDBRANCH   2   3
ENDBRANCH   1   2
BRANCH   1  32
HETATM   32  P   UNK N   1      33.609  12.550   8.785  0.00  0.00     0.401 P 
HETATM   33  O   UNK N   1      33.111  11.568   7.691  0.00  0.00    -0.631 OA
BRANCH  32  34
HETATM   34  O   UNK N   1      34.442  11.579   9.976  0.00  0.00    -0.195 OA
BRANCH  34  35
HETATM   35  P   UNK N   1      33.800   9.960   9.879  0.00  0.00     0.401 P 
HETATM   36  O   UNK N   1      35.304   9.841   9.516  0.00  0.00    -0.631 OA
BRANCH  35  37
HETATM   37  O   UNK N   1      33.490  10.551  11.507  0.00  0.00    -0.296 OA
BRANCH  37  38
HETATM   38  C   UNK N   1      34.331   9.795  12.349  0.00  0.00     0.192 C 
BRANCH  38  39
HETATM   39  C   UNK N   1      34.765  10.480  13.650  0.00  0.00     0.009 C 
HETATM   40  C   UNK N   1      33.467  10.750  14.394  0.00  0.00     0.020 C 
HETATM   41  C   UNK N   1      35.604   9.534  14.498  0.00  0.00     0.020 C 
BRANCH  39  42
HETATM   42  C   UNK N   1      35.506  11.812  13.381  0.00  0.00     0.219 C 
BRANCH  42  43
HETATM   43  C   UNK N   1      36.872  11.685  12.752  0.00  0.00     0.247 C 
HETATM   44  N   UNK N   1      36.962  11.740  11.394  0.00  0.00    -0.358 N 
HETATM   45  H   UNK N   1      36.106  11.839  10.917  0.00  0.00     0.162 HD
HETATM   46  O   UNK N   1      37.865  11.572  13.454  0.00  0.00    -0.271 OA
BRANCH  44  47
HETATM   47  C   UNK N   1      38.147  11.673  10.550  0.00  0.00     0.132 C 
BRANCH  47  48
HETATM   48  C   UNK N   1      37.973  12.090   9.093  0.00  0.00     0.122 C 
BRANCH  48  49
HETATM   49  C   UNK N   1      38.539  13.455   8.819  0.00  0.00     0.219 C 
HETATM   50  N   UNK N   1      39.143  13.764   7.643  0.00  0.00    -0.360 N 
HETATM   51  H   UNK N   1      39.490  14.678   7.521  0.00  0.00     0.162 HD
HETATM   52  O   UNK N   1      38.420  14.321   9.668  0.00  0.00    -0.274 OA
BRANCH  50  53
HETATM   53  C   UNK N   1      39.299  12.820   6.566  0.00  0.00     0.132 C 
BRANCH  53  54
HETATM   54  C   UNK N   1      38.462  13.257   5.379  0.00  0.00     0.090 C 
BRANCH  54  55
HETATM   55  S   UNK N   1      36.889  12.346   5.360  0.00  0.00    -0.181 SA
HETATM   56  H   UNK N   1      36.299  11.941   6.517  0.00  0.00     0.101 HD
ENDBRANCH  54  55
ENDBRANCH  53  54
ENDBRANCH  50  53
ENDBRANCH  48  49
ENDBRANCH  47  48
ENDBRANCH  44  47
ENDBRANCH  42  43
BRANCH  42  57
HETATM   57  O   UNK N   1      34.709  12.707  12.661  0.00  0.00    -0.385 OA
HETATM   58  H   UNK N   1      33.862  13.061  12.348  0.00  0.00     0.210 HD
ENDBRANCH  42  57
ENDBRANCH  39  42
ENDBRANCH  38  39
ENDBRANCH  37  38
ENDBRANCH  35  37
BRANCH  35  59
HETATM   59  O   UNK N   1      34.499   8.759  10.928  0.00  0.00    -0.307 OA
HETATM   60  H   UNK N   1      34.473   8.881  11.890  0.00  0.00     0.222 HD
ENDBRANCH  35  59
ENDBRANCH  34  35
ENDBRANCH  32  34
BRANCH  32  61
HETATM   61  O   UNK N   1      32.167  13.328   9.385  0.00  0.00    -0.307 OA
HETATM   62  H   UNK N   1      31.667  14.093   9.710  0.00  0.00     0.222 HD
ENDBRANCH  32  61
ENDBRANCH   1  32
TORSDOF 26
ENDMDL
MODEL 3
REMARK VINA RESULT:      -6.3      6.119     11.622
REMARK  26 active torsions:
REMARK  status: ('A' for Active; 'I' for Inactive)
REMARK    1  A    between atoms: C_2  and  N_1 
REMARK    2  A    between atoms: C_6  and  O_14 
REMARK    3  A    between atoms: C_12  and  C_17 
REMARK    4  A    between atoms: C_13  and  O_18 
REMARK    5  A    between atoms: C_15  and  N_21 
REMARK    6  A    between atoms: C_17  and  O_22 
REMARK    7  A    between atoms: O_18  and  P_23 
REMARK    8  A    between atoms: O_22  and  P_24 
REMARK    9  A    between atoms: P_23  and  O_25 
REMARK   10  A    between atoms: P_23  and  O_26 
REMARK   11  A    between atoms: P_24  and  O_28 
REMARK   12  A    between atoms: P_24  and  O_29 
REMARK   13  A    between atoms: O_28  and  P_31 
REMARK   14  A    between atoms: P_31  and  O_32 
REMARK   15  A    between atoms: P_31  and  O_33 
REMARK   16  A    between atoms: O_32  and  C_35 
REMARK   17  A    between atoms: C_35  and  C_36 
REMARK   18  A    between atoms: C_36  and  C_37 
REMARK   19  A    between atoms: C_37  and  C_40 
REMARK   20  A    between atoms: C_37  and  O_41 
REMARK       I    between atoms: C_40  and  N_42 
REMARK   21  A    between atoms: N_42  and  C_44 
REMARK   22  A    between atoms: C_44  and  C_45 
REMARK   23  A    between atoms: C_45  and  C_46 
REMARK       I    between atoms: C_46  and  N_47 
REMARK   24  A    between atoms: N_47  and  C_49 
REMARK   25  A    between atoms: C_49  and  C_50 
REMARK   26  A    between atoms: C_50  and  S_51 
ROOT
HETATM    1  O   UNK N   1      32.021  16.393   6.848  0.00  0.00    -0.294 OA
ENDROOT
BRANCH   1   2
HETATM    2  C   UNK N   1      32.891  17.276   6.220  0.00  0.00     0.215 C 
BRANCH   2   3
HETATM    3  C   UNK N   1      33.623  16.640   5.053  0.00  0.00     0.180 C 
HETATM    4  O   UNK N   1      34.801  16.019   5.516  0.00  0.00    -0.353 OA
HETATM    5  C   UNK N   1      34.657  14.633   5.289  0.00  0.00     0.262 C 
HETATM    6  C   UNK N   1      33.649  14.432   4.176  0.00  0.00     0.199 C 
HETATM    7  C   UNK N   1      32.717  15.568   4.473  0.00  0.00     0.197 C 
BRANCH   5   8
HETATM    8  N   UNK N   1      34.324  13.946   6.541  0.00  0.00    -0.297 N 
HETATM    9  C   UNK N   1      34.639  14.234   7.816  0.00  0.00     0.142 A 
HETATM   10  C   UNK N   1      34.215  13.241   8.618  0.00  0.00     0.122 A 
HETATM   11  N   UNK N   1      35.300  15.315   8.296  0.00  0.00    -0.336 N 
HETATM   12  C   UNK N   1      34.471  13.285   9.979  0.00  0.00     0.131 A 
HETATM   13  N   UNK N   1      33.592  12.299   7.887  0.00  0.00    -0.346 N 
HETATM   14  N   UNK N   1      35.142  14.370  10.472  0.00  0.00    -0.337 N 
HETATM   15  C   UNK N   1      35.546  15.383   9.640  0.00  0.00     0.183 A 
ATOM     16  HN  UNK N   1      35.344  14.427  11.470  1.00  0.00     0.168 HD
HETATM   17  C   UNK N   1      33.670  12.757   6.606  0.00  0.00     0.188 A 
ATOM     18  HN  UNK N   1      33.160  11.435   8.217  1.00  0.00     0.167 HD
ATOM     19  HN  UNK N   1      35.607  16.060   7.672  1.00  0.00     0.168 HD
BRANCH  12  20
HETATM   20  N   UNK N   1      34.078  12.237  10.834  0.00  0.00    -0.383 N 
HETATM   21  H   UNK N   1      34.752  11.646  11.242  0.00  0.00     0.157 HD
HETATM   22  H   UNK N   1      33.124  12.094  11.023  0.00  0.00     0.157 HD
ENDBRANCH  12  20
ENDBRANCH   5   8
BRANCH   6  23
HETATM   23  O   UNK N   1      34.297  14.664   2.958  0.00  0.00    -0.388 OA
HETATM   24  H   UNK N   1      34.908  14.009   2.586  0.00  0.00     0.210 HD
ENDBRANCH   6  23
BRANCH   7  25
HETATM   25  O   UNK N   1      32.047  16.008   3.327  0.00  0.00    -0.286 OA
BRANCH  25  26
HETATM   26  P   UNK N   1      30.356  16.134   3.724  0.00  0.00     0.391 P 
HETATM   27  O   UNK N   1      29.323  16.375   2.590  0.00  0.00    -0.632 OA
BRANCH  26  28
HETATM   28  O   UNK N   1      29.731  15.716   5.286  0.00  0.00    -0.307 OA
HETATM   29  H   UNK N   1      29.859  14.908   5.809  0.00  0.00     0.222 HD
ENDBRANCH  26  28
BRANCH  26  30
HETATM   30  O   UNK N   1      30.261  14.464   3.356  0.00  0.00    -0.307 OA
HETATM   31  H   UNK N   1      30.637  13.590   3.549  0.00  0.00     0.222 HD
ENDBRANCH  26  30
ENDBRANCH  25  26
ENDBRANCH   7  25
ENDBRANCH   2   3
ENDBRANCH   1   2
BRANCH   1  32
HETATM   32  P   UNK N   1      31.886  17.015   8.470  0.00  0.00     0.401 P 
HETATM   33  O   UNK N   1      33.241  17.707   8.777  0.00  0.00    -0.631 OA
BRANCH  32  34
HETATM   34  O   UNK N   1      30.663  18.260   8.578  0.00  0.00    -0.195 OA
BRANCH  34  35
HETATM   35  P   UNK N   1      29.225  17.529   9.240  0.00  0.00     0.401 P 
HETATM   36  O   UNK N   1      29.429  18.851  10.028  0.00  0.00    -0.631 OA
BRANCH  35  37
HETATM   37  O   UNK N   1      28.956  17.745   7.515  0.00  0.00    -0.296 OA
BRANCH  37  38
HETATM   38  C   UNK N   1      28.166  18.907   7.399  0.00  0.00     0.192 C 
BRANCH  38  39
HETATM   39  C   UNK N   1      27.447  19.095   6.059  0.00  0.00     0.009 C 
HETATM   40  C   UNK N   1      26.683  20.400   6.212  0.00  0.00     0.020 C 
HETATM   41  C   UNK N   1      28.454  19.270   4.931  0.00  0.00     0.020 C 
BRANCH  39  42
HETATM   42  C   UNK N   1      26.461  17.938   5.765  0.00  0.00     0.219 C 
BRANCH  42  43
HETATM   43  C   UNK N   1      25.380  18.241   4.756  0.00  0.00     0.247 C 
HETATM   44  N   UNK N   1      24.092  18.305   5.194  0.00  0.00    -0.358 N 
HETATM   45  H   UNK N   1      23.961  18.123   6.153  0.00  0.00     0.162 HD
HETATM   46  O   UNK N   1      25.670  18.455   3.589  0.00  0.00    -0.271 OA
BRANCH  44  47
HETATM   47  C   UNK N   1      22.882  18.605   4.441  0.00  0.00     0.132 C 
BRANCH  47  48
HETATM   48  C   UNK N   1      21.632  17.811   4.811  0.00  0.00     0.122 C 
BRANCH  48  49
HETATM   49  C   UNK N   1      21.459  17.679   6.299  0.00  0.00     0.219 C 
HETATM   50  N   UNK N   1      21.535  16.481   6.931  0.00  0.00    -0.360 N 
HETATM   51  H   UNK N   1      21.418  16.460   7.909  0.00  0.00     0.162 HD
HETATM   52  O   UNK N   1      21.280  18.687   6.959  0.00  0.00    -0.274 OA
BRANCH  50  53
HETATM   53  C   UNK N   1      21.780  15.240   6.241  0.00  0.00     0.132 C 
BRANCH  53  54
HETATM   54  C   UNK N   1      23.160  14.722   6.596  0.00  0.00     0.090 C 
BRANCH  54  55
HETATM   55  S   UNK N   1      24.177  14.585   5.096  0.00  0.00    -0.181 SA
HETATM   56  H   UNK N   1      23.605  14.404   3.875  0.00  0.00     0.101 HD
ENDBRANCH  54  55
ENDBRANCH  53  54
ENDBRANCH  50  53
ENDBRANCH  48  49
ENDBRANCH  47  48
ENDBRANCH  44  47
ENDBRANCH  42  43
BRANCH  42  57
HETATM   57  O   UNK N   1      27.135  16.760   5.432  0.00  0.00    -0.385 OA
HETATM   58  H   UNK N   1      27.180  15.831   5.154  0.00  0.00     0.210 HD
ENDBRANCH  42  57
ENDBRANCH  39  42
ENDBRANCH  38  39
ENDBRANCH  37  38
ENDBRANCH  35  37
BRANCH  35  59
HETATM   59  O   UNK N   1      27.744  18.439   9.132  0.00  0.00    -0.307 OA
HETATM   60  H   UNK N   1      26.986  18.076   8.648  0.00  0.00     0.222 HD
ENDBRANCH  35  59
ENDBRANCH  34  35
ENDBRANCH  32  34
BRANCH  32  61
HETATM   61  O   UNK N   1      31.734  15.763   9.675  0.00  0.00    -0.307 OA
HETATM   62  H   UNK N   1      32.089  15.071  10.255  0.00  0.00     0.222 HD
ENDBRANCH  32  61
ENDBRANCH   1  32
TORSDOF 26
ENDMDL
MODEL 4
REMARK VINA RESULT:      -6.3      7.949     12.349
REMARK  26 active torsions:
REMARK  status: ('A' for Active; 'I' for Inactive)
REMARK    1  A    between atoms: C_2  and  N_1 
REMARK    2  A    between atoms: C_6  and  O_14 
REMARK    3  A    between atoms: C_12  and  C_17 
REMARK    4  A    between atoms: C_13  and  O_18 
REMARK    5  A    between atoms: C_15  and  N_21 
REMARK    6  A    between atoms: C_17  and  O_22 
REMARK    7  A    between atoms: O_18  and  P_23 
REMARK    8  A    between atoms: O_22  and  P_24 
REMARK    9  A    between atoms: P_23  and  O_25 
REMARK   10  A    between atoms: P_23  and  O_26 
REMARK   11  A    between atoms: P_24  and  O_28 
REMARK   12  A    between atoms: P_24  and  O_29 
REMARK   13  A    between atoms: O_28  and  P_31 
REMARK   14  A    between atoms: P_31  and  O_32 
REMARK   15  A    between atoms: P_31  and  O_33 
REMARK   16  A    between atoms: O_32  and  C_35 
REMARK   17  A    between atoms: C_35  and  C_36 
REMARK   18  A    between atoms: C_36  and  C_37 
REMARK   19  A    between atoms: C_37  and  C_40 
REMARK   20  A    between atoms: C_37  and  O_41 
REMARK       I    between atoms: C_40  and  N_42 
REMARK   21  A    between atoms: N_42  and  C_44 
REMARK   22  A    between atoms: C_44  and  C_45 
REMARK   23  A    between atoms: C_45  and  C_46 
REMARK       I    between atoms: C_46  and  N_47 
REMARK   24  A    between atoms: N_47  and  C_49 
REMARK   25  A    between atoms: C_49  and  C_50 
REMARK   26  A    between atoms: C_50  and  S_51 
ROOT
HETATM    1  O   UNK N   1      23.929  16.259   5.041  0.00  0.00    -0.294 OA
ENDROOT
BRANCH   1   2
HETATM    2  C   UNK N   1      23.769  15.571   3.844  0.00  0.00     0.215 C 
BRANCH   2   3
HETATM    3  C   UNK N   1      22.309  15.359   3.486  0.00  0.00     0.180 C 
HETATM    4  O   UNK N   1      21.865  14.135   4.027  0.00  0.00    -0.353 OA
HETATM    5  C   UNK N   1      20.872  14.440   4.983  0.00  0.00     0.262 C 
HETATM    6  C   UNK N   1      20.283  15.795   4.648  0.00  0.00     0.199 C 
HETATM    7  C   UNK N   1      21.511  16.480   4.128  0.00  0.00     0.197 C 
BRANCH   5   8
HETATM    8  N   UNK N   1      21.424  14.335   6.339  0.00  0.00    -0.297 N 
HETATM    9  C   UNK N   1      22.419  13.576   6.829  0.00  0.00     0.142 A 
HETATM   10  C   UNK N   1      22.484  13.730   8.163  0.00  0.00     0.122 A 
HETATM   11  N   UNK N   1      23.250  12.742   6.159  0.00  0.00    -0.336 N 
HETATM   12  C   UNK N   1      23.402  13.005   8.906  0.00  0.00     0.131 A 
HETATM   13  N   UNK N   1      21.550  14.612   8.567  0.00  0.00    -0.346 N 
HETATM   14  N   UNK N   1      24.242  12.157   8.239  0.00  0.00    -0.337 N 
HETATM   15  C   UNK N   1      24.175  12.032   6.874  0.00  0.00     0.183 A 
ATOM     16  HN  UNK N   1      24.926  11.612   8.762  1.00  0.00     0.168 HD
HETATM   17  C   UNK N   1      20.909  14.974   7.421  0.00  0.00     0.188 A 
ATOM     18  HN  UNK N   1      21.365  14.935   9.517  1.00  0.00     0.167 HD
ATOM     19  HN  UNK N   1      23.189  12.645   5.146  1.00  0.00     0.168 HD
BRANCH  12  20
HETATM   20  N   UNK N   1      23.460  13.113  10.309  0.00  0.00    -0.383 N 
HETATM   21  H   UNK N   1      22.641  13.277  10.831  0.00  0.00     0.157 HD
HETATM   22  H   UNK N   1      24.324  13.025  10.771  0.00  0.00     0.157 HD
ENDBRANCH  12  20
ENDBRANCH   5   8
BRANCH   6  23
HETATM   23  O   UNK N   1      19.366  15.624   3.606  0.00  0.00    -0.388 OA
HETATM   24  H   UNK N   1      19.321  16.261   2.874  0.00  0.00     0.210 HD
ENDBRANCH   6  23
BRANCH   7  25
HETATM   25  O   UNK N   1      21.199  17.493   3.216  0.00  0.00    -0.286 OA
BRANCH  25  26
HETATM   26  P   UNK N   1      21.210  19.003   4.083  0.00  0.00     0.391 P 
HETATM   27  O   UNK N   1      21.339  18.992   5.631  0.00  0.00    -0.632 OA
BRANCH  26  28
HETATM   28  O   UNK N   1      21.375  20.535   3.287  0.00  0.00    -0.307 OA
HETATM   29  H   UNK N   1      20.812  21.323   3.338  0.00  0.00     0.222 HD
ENDBRANCH  26  28
BRANCH  26  30
HETATM   30  O   UNK N   1      22.919  18.902   4.014  0.00  0.00    -0.307 OA
HETATM   31  H   UNK N   1      23.667  18.513   3.534  0.00  0.00     0.222 HD
ENDBRANCH  26  30
ENDBRANCH  25  26
ENDBRANCH   7  25
ENDBRANCH   2   3
ENDBRANCH   1   2
BRANCH   1  32
HETATM   32  P   UNK N   1      25.492  15.747   5.616  0.00  0.00     0.401 P 
HETATM   33  O   UNK N   1      25.783  14.392   4.918  0.00  0.00    -0.631 OA
BRANCH  32  34
HETATM   34  O   UNK N   1      26.752  16.845   5.100  0.00  0.00    -0.195 OA
BRANCH  34  35
HETATM   35  P   UNK N   1      27.699  16.028   3.885  0.00  0.00     0.401 P 
HETATM   36  O   UNK N   1      26.835  17.065   3.120  0.00  0.00    -0.631 OA
BRANCH  35  37
HETATM   37  O   UNK N   1      28.824  16.729   5.042  0.00  0.00    -0.296 OA
BRANCH  37  38
HETATM   38  C   UNK N   1      29.713  15.690   5.381  0.00  0.00     0.192 C 
BRANCH  38  39
HETATM   39  C   UNK N   1      31.205  16.020   5.259  0.00  0.00     0.009 C 
HETATM   40  C   UNK N   1      31.736  15.031   4.234  0.00  0.00     0.020 C 
HETATM   41  C   UNK N   1      31.398  17.423   4.700  0.00  0.00     0.020 C 
BRANCH  39  42
HETATM   42  C   UNK N   1      31.949  15.836   6.604  0.00  0.00     0.219 C 
BRANCH  42  43
HETATM   43  C   UNK N   1      31.883  17.008   7.553  0.00  0.00     0.247 C 
HETATM   44  N   UNK N   1      30.697  17.266   8.172  0.00  0.00    -0.358 N 
HETATM   45  H   UNK N   1      29.953  16.668   7.929  0.00  0.00     0.162 HD
HETATM   46  O   UNK N   1      32.881  17.675   7.778  0.00  0.00    -0.271 OA
BRANCH  44  47
HETATM   47  C   UNK N   1      30.377  18.304   9.142  0.00  0.00     0.132 C 
BRANCH  47  48
HETATM   48  C   UNK N   1      28.916  18.740   9.220  0.00  0.00     0.122 C 
BRANCH  48  49
HETATM   49  C   UNK N   1      28.048  18.006   8.237  0.00  0.00     0.219 C 
HETATM   50  N   UNK N   1      27.534  18.610   7.136  0.00  0.00    -0.360 N 
HETATM   51  H   UNK N   1      26.975  18.075   6.526  0.00  0.00     0.162 HD
HETATM   52  O   UNK N   1      27.831  16.821   8.418  0.00  0.00    -0.274 OA
BRANCH  50  53
HETATM   53  C   UNK N   1      27.765  19.997   6.818  0.00  0.00     0.132 C 
BRANCH  53  54
HETATM   54  C   UNK N   1      27.824  20.172   5.312  0.00  0.00     0.090 C 
BRANCH  54  55
HETATM   55  S   UNK N   1      26.145  20.378   4.646  0.00  0.00    -0.181 SA
HETATM   56  H   UNK N   1      25.944  20.766   3.358  0.00  0.00     0.101 HD
ENDBRANCH  54  55
ENDBRANCH  53  54
ENDBRANCH  50  53
ENDBRANCH  48  49
ENDBRANCH  47  48
ENDBRANCH  44  47
ENDBRANCH  42  43
BRANCH  42  57
HETATM   57  O   UNK N   1      31.565  14.655   7.245  0.00  0.00    -0.385 OA
HETATM   58  H   UNK N   1      30.916  14.039   7.621  0.00  0.00     0.210 HD
ENDBRANCH  42  57
ENDBRANCH  39  42
ENDBRANCH  38  39
ENDBRANCH  37  38
ENDBRANCH  35  37
BRANCH  35  59
HETATM   59  O   UNK N   1      28.777  17.000   2.923  0.00  0.00    -0.307 OA
HETATM   60  H   UNK N   1      28.835  17.956   3.077  0.00  0.00     0.222 HD
ENDBRANCH  35  59
ENDBRANCH  34  35
ENDBRANCH  32  34
BRANCH  32  61
HETATM   61  O   UNK N   1      25.514  15.392   7.323  0.00  0.00    -0.307 OA
HETATM   62  H   UNK N   1      25.812  14.894   8.101  0.00  0.00     0.222 HD
ENDBRANCH  32  61
ENDBRANCH   1  32
TORSDOF 26
ENDMDL
MODEL 5
REMARK VINA RESULT:      -6.3      6.444     12.689
REMARK  26 active torsions:
REMARK  status: ('A' for Active; 'I' for Inactive)
REMARK    1  A    between atoms: C_2  and  N_1 
REMARK    2  A    between atoms: C_6  and  O_14 
REMARK    3  A    between atoms: C_12  and  C_17 
REMARK    4  A    between atoms: C_13  and  O_18 
REMARK    5  A    between atoms: C_15  and  N_21 
REMARK    6  A    between atoms: C_17  and  O_22 
REMARK    7  A    between atoms: O_18  and  P_23 
REMARK    8  A    between atoms: O_22  and  P_24 
REMARK    9  A    between atoms: P_23  and  O_25 
REMARK   10  A    between atoms: P_23  and  O_26 
REMARK   11  A    between atoms: P_24  and  O_28 
REMARK   12  A    between atoms: P_24  and  O_29 
REMARK   13  A    between atoms: O_28  and  P_31 
REMARK   14  A    between atoms: P_31  and  O_32 
REMARK   15  A    between atoms: P_31  and  O_33 
REMARK   16  A    between atoms: O_32  and  C_35 
REMARK   17  A    between atoms: C_35  and  C_36 
REMARK   18  A    between atoms: C_36  and  C_37 
REMARK   19  A    between atoms: C_37  and  C_40 
REMARK   20  A    between atoms: C_37  and  O_41 
REMARK       I    between atoms: C_40  and  N_42 
REMARK   21  A    between atoms: N_42  and  C_44 
REMARK   22  A    between atoms: C_44  and  C_45 
REMARK   23  A    between atoms: C_45  and  C_46 
REMARK       I    between atoms: C_46  and  N_47 
REMARK   24  A    between atoms: N_47  and  C_49 
REMARK   25  A    between atoms: C_49  and  C_50 
REMARK   26  A    between atoms: C_50  and  S_51 
ROOT
HETATM    1  O   UNK N   1      31.861  16.344   6.539  0.00  0.00    -0.294 OA
ENDROOT
BRANCH   1   2
HETATM    2  C   UNK N   1      32.833  17.169   5.987  0.00  0.00     0.215 C 
BRANCH   2   3
HETATM    3  C   UNK N   1      33.785  16.416   5.076  0.00  0.00     0.180 C 
HETATM    4  O   UNK N   1      34.992  16.165   5.761  0.00  0.00    -0.353 OA
HETATM    5  C   UNK N   1      35.108  14.763   5.895  0.00  0.00     0.262 C 
HETATM    6  C   UNK N   1      34.278  14.107   4.812  0.00  0.00     0.199 C 
HETATM    7  C   UNK N   1      33.142  15.082   4.740  0.00  0.00     0.197 C 
BRANCH   5   8
HETATM    8  N   UNK N   1      34.759  14.355   7.260  0.00  0.00    -0.297 N 
HETATM    9  C   UNK N   1      34.758  15.044   8.414  0.00  0.00     0.142 A 
HETATM   10  C   UNK N   1      34.482  14.212   9.434  0.00  0.00     0.122 A 
HETATM   11  N   UNK N   1      35.013  16.361   8.609  0.00  0.00    -0.336 N 
HETATM   12  C   UNK N   1      34.477  14.682  10.738  0.00  0.00     0.131 A 
HETATM   13  N   UNK N   1      34.271  12.969   8.963  0.00  0.00    -0.346 N 
HETATM   14  N   UNK N   1      34.736  16.008  10.943  0.00  0.00    -0.337 N 
HETATM   15  C   UNK N   1      34.993  16.846   9.887  0.00  0.00     0.183 A 
ATOM     16  HN  UNK N   1      34.739  16.379  11.893  1.00  0.00     0.168 HD
HETATM   17  C   UNK N   1      34.445  13.082   7.617  0.00  0.00     0.188 A 
ATOM     18  HN  UNK N   1      34.035  12.131   9.495  1.00  0.00     0.167 HD
ATOM     19  HN  UNK N   1      35.213  16.976   7.821  1.00  0.00     0.168 HD
BRANCH  12  20
HETATM   20  N   UNK N   1      34.236  13.821  11.826  0.00  0.00    -0.383 N 
HETATM   21  H   UNK N   1      33.853  12.926  11.680  0.00  0.00     0.157 HD
HETATM   22  H   UNK N   1      34.452  14.117  12.740  0.00  0.00     0.157 HD
ENDBRANCH  12  20
ENDBRANCH   5   8
BRANCH   6  23
HETATM   23  O   UNK N   1      35.008  14.151   3.620  0.00  0.00    -0.388 OA
HETATM   24  H   UNK N   1      34.783  14.788   2.922  0.00  0.00     0.210 HD
ENDBRANCH   6  23
BRANCH   7  25
HETATM   25  O   UNK N   1      32.539  15.092   3.479  0.00  0.00    -0.286 OA
BRANCH  25  26
HETATM   26  P   UNK N   1      31.189  13.994   3.534  0.00  0.00     0.391 P 
HETATM   27  O   UNK N   1      29.987  14.214   2.576  0.00  0.00    -0.632 OA
BRANCH  26  28
HETATM   28  O   UNK N   1      31.241  12.494   4.404  0.00  0.00    -0.307 OA
HETATM   29  H   UNK N   1      31.922  11.803   4.407  0.00  0.00     0.222 HD
ENDBRANCH  26  28
BRANCH  26  30
HETATM   30  O   UNK N   1      31.962  13.156   2.255  0.00  0.00    -0.307 OA
HETATM   31  H   UNK N   1      32.555  13.253   1.493  0.00  0.00     0.222 HD
ENDBRANCH  26  30
ENDBRANCH  25  26
ENDBRANCH   7  25
ENDBRANCH   2   3
ENDBRANCH   1   2
BRANCH   1  32
HETATM   32  P   UNK N   1      31.306  17.223   7.937  0.00  0.00     0.401 P 
HETATM   33  O   UNK N   1      32.410  18.266   8.253  0.00  0.00    -0.631 OA
BRANCH  32  34
HETATM   34  O   UNK N   1      29.855  18.134   7.584  0.00  0.00    -0.195 OA
BRANCH  34  35
HETATM   35  P   UNK N   1      28.548  17.413   8.486  0.00  0.00     0.401 P 
HETATM   36  O   UNK N   1      29.271  18.364   9.477  0.00  0.00    -0.631 OA
BRANCH  35  37
HETATM   37  O   UNK N   1      27.841  18.218   7.091  0.00  0.00    -0.296 OA
BRANCH  37  38
HETATM   38  C   UNK N   1      28.098  17.370   5.996  0.00  0.00     0.192 C 
BRANCH  38  39
HETATM   39  C   UNK N   1      27.159  17.525   4.794  0.00  0.00     0.009 C 
HETATM   40  C   UNK N   1      27.580  16.426   3.832  0.00  0.00     0.020 C 
HETATM   41  C   UNK N   1      25.717  17.261   5.205  0.00  0.00     0.020 C 
BRANCH  39  42
HETATM   42  C   UNK N   1      27.313  18.908   4.115  0.00  0.00     0.219 C 
BRANCH  42  43
HETATM   43  C   UNK N   1      26.114  19.820   4.211  0.00  0.00     0.247 C 
HETATM   44  N   UNK N   1      25.191  19.773   3.211  0.00  0.00    -0.358 N 
HETATM   45  H   UNK N   1      25.393  19.149   2.476  0.00  0.00     0.162 HD
HETATM   46  O   UNK N   1      25.970  20.549   5.180  0.00  0.00    -0.271 OA
BRANCH  44  47
HETATM   47  C   UNK N   1      23.946  20.517   3.077  0.00  0.00     0.132 C 
BRANCH  47  48
HETATM   48  C   UNK N   1      22.656  19.744   3.336  0.00  0.00     0.122 C 
BRANCH  48  49
HETATM   49  C   UNK N   1      21.594  20.048   2.316  0.00  0.00     0.219 C 
HETATM   50  N   UNK N   1      20.428  19.355   2.259  0.00  0.00    -0.360 N 
HETATM   51  H   UNK N   1      19.769  19.604   1.571  0.00  0.00     0.162 HD
HETATM   52  O   UNK N   1      21.773  20.970   1.541  0.00  0.00    -0.274 OA
BRANCH  50  53
HETATM   53  C   UNK N   1      20.110  18.272   3.156  0.00  0.00     0.132 C 
BRANCH  53  54
HETATM   54  C   UNK N   1      20.212  16.951   2.417  0.00  0.00     0.090 C 
BRANCH  54  55
HETATM   55  S   UNK N   1      21.678  16.037   2.982  0.00  0.00    -0.181 SA
HETATM   56  H   UNK N   1      21.875  15.773   4.302  0.00  0.00     0.101 HD
ENDBRANCH  54  55
ENDBRANCH  53  54
ENDBRANCH  50  53
ENDBRANCH  48  49
ENDBRANCH  47  48
ENDBRANCH  44  47
ENDBRANCH  42  43
BRANCH  42  57
HETATM   57  O   UNK N   1      28.471  19.564   4.543  0.00  0.00    -0.385 OA
HETATM   58  H   UNK N   1      29.407  19.812   4.476  0.00  0.00     0.210 HD
ENDBRANCH  42  57
ENDBRANCH  39  42
ENDBRANCH  38  39
ENDBRANCH  37  38
ENDBRANCH  35  37
BRANCH  35  59
HETATM   59  O   UNK N   1      27.349  18.486   9.152  0.00  0.00    -0.307 OA
HETATM   60  H   UNK N   1      27.624  19.253   9.679  0.00  0.00     0.222 HD
ENDBRANCH  35  59
ENDBRANCH  34  35
ENDBRANCH  32  34
BRANCH  32  61
HETATM   61  O   UNK N   1      31.193  16.234   9.370  0.00  0.00    -0.307 OA
HETATM   62  H   UNK N   1      31.494  15.523   9.958  0.00  0.00     0.222 HD
ENDBRANCH  32  61
ENDBRANCH   1  32
TORSDOF 26
ENDMDL
MODEL 6
REMARK VINA RESULT:      -6.2     12.183     15.358
REMARK  26 active torsions:
REMARK  status: ('A' for Active; 'I' for Inactive)
REMARK    1  A    between atoms: C_2  and  N_1 
REMARK    2  A    between atoms: C_6  and  O_14 
REMARK    3  A    between atoms: C_12  and  C_17 
REMARK    4  A    between atoms: C_13  and  O_18 
REMARK    5  A    between atoms: C_15  and  N_21 
REMARK    6  A    between atoms: C_17  and  O_22 
REMARK    7  A    between atoms: O_18  and  P_23 
REMARK    8  A    between atoms: O_22  and  P_24 
REMARK    9  A    between atoms: P_23  and  O_25 
REMARK   10  A    between atoms: P_23  and  O_26 
REMARK   11  A    between atoms: P_24  and  O_28 
REMARK   12  A    between atoms: P_24  and  O_29 
REMARK   13  A    between atoms: O_28  and  P_31 
REMARK   14  A    between atoms: P_31  and  O_32 
REMARK   15  A    between atoms: P_31  and  O_33 
REMARK   16  A    between atoms: O_32  and  C_35 
REMARK   17  A    between atoms: C_35  and  C_36 
REMARK   18  A    between atoms: C_36  and  C_37 
REMARK   19  A    between atoms: C_37  and  C_40 
REMARK   20  A    between atoms: C_37  and  O_41 
REMARK       I    between atoms: C_40  and  N_42 
REMARK   21  A    between atoms: N_42  and  C_44 
REMARK   22  A    between atoms: C_44  and  C_45 
REMARK   23  A    between atoms: C_45  and  C_46 
REMARK       I    between atoms: C_46  and  N_47 
REMARK   24  A    between atoms: N_47  and  C_49 
REMARK   25  A    between atoms: C_49  and  C_50 
REMARK   26  A    between atoms: C_50  and  S_51 
ROOT
HETATM    1  O   UNK N   1      22.182  18.315   6.386  0.00  0.00    -0.294 OA
ENDROOT
BRANCH   1   2
HETATM    2  C   UNK N   1      22.833  18.081   5.180  0.00  0.00     0.215 C 
BRANCH   2   3
HETATM    3  C   UNK N   1      24.048  18.970   4.994  0.00  0.00     0.180 C 
HETATM    4  O   UNK N   1      25.208  18.272   5.391  0.00  0.00    -0.353 OA
HETATM    5  C   UNK N   1      26.008  18.109   4.239  0.00  0.00     0.262 C 
HETATM    6  C   UNK N   1      25.636  19.186   3.241  0.00  0.00     0.199 C 
HETATM    7  C   UNK N   1      24.166  19.285   3.514  0.00  0.00     0.197 C 
BRANCH   5   8
HETATM    8  N   UNK N   1      25.888  16.739   3.728  0.00  0.00    -0.297 N 
HETATM    9  C   UNK N   1      25.732  15.569   4.371  0.00  0.00     0.142 A 
HETATM   10  C   UNK N   1      25.799  14.559   3.486  0.00  0.00     0.122 A 
HETATM   11  N   UNK N   1      25.559  15.354   5.698  0.00  0.00    -0.336 N 
HETATM   12  C   UNK N   1      25.717  13.245   3.918  0.00  0.00     0.131 A 
HETATM   13  N   UNK N   1      25.974  15.051   2.245  0.00  0.00    -0.346 N 
HETATM   14  N   UNK N   1      25.547  13.018   5.255  0.00  0.00    -0.337 N 
HETATM   15  C   UNK N   1      25.458  14.063   6.140  0.00  0.00     0.183 A 
ATOM     16  HN  UNK N   1      25.484  12.060   5.600  1.00  0.00     0.168 HD
HETATM   17  C   UNK N   1      26.024  16.400   2.420  0.00  0.00     0.188 A 
ATOM     18  HN  UNK N   1      26.052  14.529   1.372  1.00  0.00     0.167 HD
ATOM     19  HN  UNK N   1      25.504  16.134   6.351  1.00  0.00     0.168 HD
BRANCH  12  20
HETATM   20  N   UNK N   1      25.831  12.168   3.017  0.00  0.00    -0.383 N 
HETATM   21  H   UNK N   1      25.162  11.445   3.017  0.00  0.00     0.157 HD
HETATM   22  H   UNK N   1      26.583  12.139   2.383  0.00  0.00     0.157 HD
ENDBRANCH  12  20
ENDBRANCH   5   8
BRANCH   6  23
HETATM   23  O   UNK N   1      26.265  20.374   3.629  0.00  0.00    -0.388 OA
HETATM   24  H   UNK N   1      25.751  21.113   3.992  0.00  0.00     0.210 HD
ENDBRANCH   6  23
BRANCH   7  25
HETATM   25  O   UNK N   1      23.659  20.550   3.203  0.00  0.00    -0.286 OA
BRANCH  25  26
HETATM   26  P   UNK N   1      22.034  20.336   2.614  0.00  0.00     0.391 P 
HETATM   27  O   UNK N   1      20.859  20.265   3.628  0.00  0.00    -0.632 OA
BRANCH  26  28
HETATM   28  O   UNK N   1      21.622  20.486   0.936  0.00  0.00    -0.307 OA
HETATM   29  H   UNK N   1      20.788  20.763   0.526  0.00  0.00     0.222 HD
ENDBRANCH  26  28
BRANCH  26  30
HETATM   30  O   UNK N   1      21.901  22.042   2.691  0.00  0.00    -0.307 OA
HETATM   31  H   UNK N   1      22.187  22.835   3.171  0.00  0.00     0.222 HD
ENDBRANCH  26  30
ENDBRANCH  25  26
ENDBRANCH   7  25
ENDBRANCH   2   3
ENDBRANCH   1   2
BRANCH   1  32
HETATM   32  P   UNK N   1      21.325  16.830   6.697  0.00  0.00     0.401 P 
HETATM   33  O   UNK N   1      20.671  16.998   8.095  0.00  0.00    -0.631 OA
BRANCH  32  34
HETATM   34  O   UNK N   1      20.012  16.601   5.565  0.00  0.00    -0.195 OA
BRANCH  34  35
HETATM   35  P   UNK N   1      19.397  14.985   5.790  0.00  0.00     0.401 P 
HETATM   36  O   UNK N   1      18.155  15.876   5.520  0.00  0.00    -0.631 OA
BRANCH  35  37
HETATM   37  O   UNK N   1      20.552  14.925   4.465  0.00  0.00    -0.296 OA
BRANCH  37  38
HETATM   38  C   UNK N   1      19.957  15.650   3.414  0.00  0.00     0.192 C 
BRANCH  38  39
HETATM   39  C   UNK N   1      20.560  15.427   2.022  0.00  0.00     0.009 C 
HETATM   40  C   UNK N   1      20.304  16.729   1.279  0.00  0.00     0.020 C 
HETATM   41  C   UNK N   1      22.067  15.230   2.118  0.00  0.00     0.020 C 
BRANCH  39  42
HETATM   42  C   UNK N   1      19.879  14.253   1.279  0.00  0.00     0.219 C 
BRANCH  42  43
HETATM   43  C   UNK N   1      20.392  12.876   1.623  0.00  0.00     0.247 C 
HETATM   44  N   UNK N   1      20.017  12.330   2.813  0.00  0.00    -0.358 N 
HETATM   45  H   UNK N   1      19.445  12.898   3.378  0.00  0.00     0.162 HD
HETATM   46  O   UNK N   1      21.095  12.265   0.833  0.00  0.00    -0.271 OA
BRANCH  44  47
HETATM   47  C   UNK N   1      20.345  11.023   3.366  0.00  0.00     0.132 C 
BRANCH  47  48
HETATM   48  C   UNK N   1      20.786  10.989   4.826  0.00  0.00     0.122 C 
BRANCH  48  49
HETATM   49  C   UNK N   1      21.997  11.844   5.076  0.00  0.00     0.219 C 
HETATM   50  N   UNK N   1      22.262  12.382   6.294  0.00  0.00    -0.360 N 
HETATM   51  H   UNK N   1      23.074  12.930   6.397  0.00  0.00     0.162 HD
HETATM   52  O   UNK N   1      22.782  12.029   4.163  0.00  0.00    -0.274 OA
BRANCH  50  53
HETATM   53  C   UNK N   1      21.413  12.189   7.443  0.00  0.00     0.132 C 
BRANCH  53  54
HETATM   54  C   UNK N   1      22.212  12.416   8.712  0.00  0.00     0.090 C 
BRANCH  54  55
HETATM   55  S   UNK N   1      21.303  13.526   9.827  0.00  0.00    -0.181 SA
HETATM   56  H   UNK N   1      20.194  13.102  10.489  0.00  0.00     0.101 HD
ENDBRANCH  54  55
ENDBRANCH  53  54
ENDBRANCH  50  53
ENDBRANCH  48  49
ENDBRANCH  47  48
ENDBRANCH  44  47
ENDBRANCH  42  43
BRANCH  42  57
HETATM   57  O   UNK N   1      18.487  14.308   1.397  0.00  0.00    -0.385 OA
HETATM   58  H   UNK N   1      17.608  14.659   1.183  0.00  0.00     0.210 HD
ENDBRANCH  42  57
ENDBRANCH  39  42
ENDBRANCH  38  39
ENDBRANCH  37  38
ENDBRANCH  35  37
BRANCH  35  59
HETATM   59  O   UNK N   1      18.518  14.272   4.467  0.00  0.00    -0.307 OA
HETATM   60  H   UNK N   1      17.811  13.632   4.644  0.00  0.00     0.222 HD
ENDBRANCH  35  59
ENDBRANCH  34  35
ENDBRANCH  32  34
BRANCH  32  61
HETATM   61  O   UNK N   1      22.378  15.448   6.854  0.00  0.00    -0.307 OA
HETATM   62  H   UNK N   1      23.123  14.966   7.247  0.00  0.00     0.222 HD
ENDBRANCH  32  61
ENDBRANCH   1  32
TORSDOF 26
ENDMDL
MODEL 7
REMARK VINA RESULT:      -6.2     12.441     15.470
REMARK  26 active torsions:
REMARK  status: ('A' for Active; 'I' for Inactive)
REMARK    1  A    between atoms: C_2  and  N_1 
REMARK    2  A    between atoms: C_6  and  O_14 
REMARK    3  A    between atoms: C_12  and  C_17 
REMARK    4  A    between atoms: C_13  and  O_18 
REMARK    5  A    between atoms: C_15  and  N_21 
REMARK    6  A    between atoms: C_17  and  O_22 
REMARK    7  A    between atoms: O_18  and  P_23 
REMARK    8  A    between atoms: O_22  and  P_24 
REMARK    9  A    between atoms: P_23  and  O_25 
REMARK   10  A    between atoms: P_23  and  O_26 
REMARK   11  A    between atoms: P_24  and  O_28 
REMARK   12  A    between atoms: P_24  and  O_29 
REMARK   13  A    between atoms: O_28  and  P_31 
REMARK   14  A    between atoms: P_31  and  O_32 
REMARK   15  A    between atoms: P_31  and  O_33 
REMARK   16  A    between atoms: O_32  and  C_35 
REMARK   17  A    between atoms: C_35  and  C_36 
REMARK   18  A    between atoms: C_36  and  C_37 
REMARK   19  A    between atoms: C_37  and  C_40 
REMARK   20  A    between atoms: C_37  and  O_41 
REMARK       I    between atoms: C_40  and  N_42 
REMARK   21  A    between atoms: N_42  and  C_44 
REMARK   22  A    between atoms: C_44  and  C_45 
REMARK   23  A    between atoms: C_45  and  C_46 
REMARK       I    between atoms: C_46  and  N_47 
REMARK   24  A    between atoms: N_47  and  C_49 
REMARK   25  A    between atoms: C_49  and  C_50 
REMARK   26  A    between atoms: C_50  and  S_51 
ROOT
HETATM    1  O   UNK N   1      21.727  16.187   6.585  0.00  0.00    -0.294 OA
ENDROOT
BRANCH   1   2
HETATM    2  C   UNK N   1      21.545  16.506   5.245  0.00  0.00     0.215 C 
BRANCH   2   3
HETATM    3  C   UNK N   1      21.857  17.960   4.946  0.00  0.00     0.180 C 
HETATM    4  O   UNK N   1      23.064  18.323   5.580  0.00  0.00    -0.353 OA
HETATM    5  C   UNK N   1      23.992  18.631   4.561  0.00  0.00     0.262 C 
HETATM    6  C   UNK N   1      23.223  19.015   3.313  0.00  0.00     0.199 C 
HETATM    7  C   UNK N   1      22.051  18.090   3.446  0.00  0.00     0.197 C 
BRANCH   5   8
HETATM    8  N   UNK N   1      24.931  17.519   4.378  0.00  0.00    -0.297 N 
HETATM    9  C   UNK N   1      25.217  16.468   5.165  0.00  0.00     0.142 A 
HETATM   10  C   UNK N   1      26.242  15.777   4.636  0.00  0.00     0.122 A 
HETATM   11  N   UNK N   1      24.634  16.108   6.334  0.00  0.00    -0.336 N 
HETATM   12  C   UNK N   1      26.756  14.673   5.297  0.00  0.00     0.131 A 
HETATM   13  N   UNK N   1      26.628  16.348   3.479  0.00  0.00    -0.346 N 
HETATM   14  N   UNK N   1      26.177  14.305   6.479  0.00  0.00    -0.337 N 
HETATM   15  C   UNK N   1      25.117  15.010   6.992  0.00  0.00     0.183 A 
ATOM     16  HN  UNK N   1      26.537  13.497   6.986  1.00  0.00     0.168 HD
HETATM   17  C   UNK N   1      25.802  17.421   3.340  0.00  0.00     0.188 A 
ATOM     18  HN  UNK N   1      27.371  16.044   2.850  1.00  0.00     0.167 HD
ATOM     19  HN  UNK N   1      23.854  16.642   6.715  1.00  0.00     0.168 HD
BRANCH  12  20
HETATM   20  N   UNK N   1      27.858  13.959   4.786  0.00  0.00    -0.383 N 
HETATM   21  H   UNK N   1      28.429  13.426   5.386  0.00  0.00     0.157 HD
HETATM   22  H   UNK N   1      28.059  13.995   3.823  0.00  0.00     0.157 HD
ENDBRANCH  12  20
ENDBRANCH   5   8
BRANCH   6  23
HETATM   23  O   UNK N   1      22.795  20.338   3.458  0.00  0.00    -0.388 OA
HETATM   24  H   UNK N   1      22.255  20.764   2.773  0.00  0.00     0.210 HD
ENDBRANCH   6  23
BRANCH   7  25
HETATM   25  O   UNK N   1      20.912  18.595   2.810  0.00  0.00    -0.286 OA
BRANCH  25  26
HETATM   26  P   UNK N   1      20.395  17.411   1.642  0.00  0.00     0.391 P 
HETATM   27  O   UNK N   1      19.792  16.068   2.134  0.00  0.00    -0.632 OA
BRANCH  26  28
HETATM   28  O   UNK N   1      20.250  17.771  -0.048  0.00  0.00    -0.307 OA
HETATM   29  H   UNK N   1      20.515  17.244  -0.819  0.00  0.00     0.222 HD
ENDBRANCH  26  28
BRANCH  26  30
HETATM   30  O   UNK N   1      18.832  18.091   1.812  0.00  0.00    -0.307 OA
HETATM   31  H   UNK N   1      17.974  18.218   1.375  0.00  0.00     0.222 HD
ENDBRANCH  26  30
ENDBRANCH  25  26
ENDBRANCH   7  25
ENDBRANCH   2   3
ENDBRANCH   1   2
BRANCH   1  32
HETATM   32  P   UNK N   1      20.114  15.882   7.170  0.00  0.00     0.401 P 
HETATM   33  O   UNK N   1      19.171  16.095   5.956  0.00  0.00    -0.631 OA
BRANCH  32  34
HETATM   34  O   UNK N   1      19.917  14.215   7.659  0.00  0.00    -0.195 OA
BRANCH  34  35
HETATM   35  P   UNK N   1      21.070  13.898   8.928  0.00  0.00     0.401 P 
HETATM   36  O   UNK N   1      19.723  14.186   9.643  0.00  0.00    -0.631 OA
BRANCH  35  37
HETATM   37  O   UNK N   1      21.048  12.488   7.877  0.00  0.00    -0.296 OA
BRANCH  37  38
HETATM   38  C   UNK N   1      22.105  12.680   6.966  0.00  0.00     0.192 C 
BRANCH  38  39
HETATM   39  C   UNK N   1      21.910  12.065   5.575  0.00  0.00     0.009 C 
HETATM   40  C   UNK N   1      23.312  11.980   4.992  0.00  0.00     0.020 C 
HETATM   41  C   UNK N   1      21.363  10.649   5.688  0.00  0.00     0.020 C 
BRANCH  39  42
HETATM   42  C   UNK N   1      21.017  12.950   4.672  0.00  0.00     0.219 C 
BRANCH  42  43
HETATM   43  C   UNK N   1      21.055  12.628   3.198  0.00  0.00     0.247 C 
HETATM   44  N   UNK N   1      21.622  13.537   2.357  0.00  0.00    -0.358 N 
HETATM   45  H   UNK N   1      21.950  14.361   2.784  0.00  0.00     0.162 HD
HETATM   46  O   UNK N   1      20.618  11.563   2.789  0.00  0.00    -0.271 OA
BRANCH  44  47
HETATM   47  C   UNK N   1      21.809  13.458   0.915  0.00  0.00     0.132 C 
BRANCH  47  48
HETATM   48  C   UNK N   1      23.233  13.647   0.399  0.00  0.00     0.122 C 
BRANCH  48  49
HETATM   49  C   UNK N   1      24.264  13.400   1.465  0.00  0.00     0.219 C 
HETATM   50  N   UNK N   1      24.907  12.211   1.586  0.00  0.00    -0.360 N 
HETATM   51  H   UNK N   1      25.576  12.111   2.302  0.00  0.00     0.162 HD
HETATM   52  O   UNK N   1      24.554  14.310   2.222  0.00  0.00    -0.274 OA
BRANCH  50  53
HETATM   53  C   UNK N   1      24.658  11.088   0.717  0.00  0.00     0.132 C 
BRANCH  53  54
HETATM   54  C   UNK N   1      23.649  10.158   1.362  0.00  0.00     0.090 C 
BRANCH  54  55
HETATM   55  S   UNK N   1      22.369   9.698   0.156  0.00  0.00    -0.181 SA
HETATM   56  H   UNK N   1      22.697   9.110  -1.026  0.00  0.00     0.101 HD
ENDBRANCH  54  55
ENDBRANCH  53  54
ENDBRANCH  50  53
ENDBRANCH  48  49
ENDBRANCH  47  48
ENDBRANCH  44  47
ENDBRANCH  42  43
BRANCH  42  57
HETATM   57  O   UNK N   1      19.699  12.992   5.137  0.00  0.00    -0.385 OA
HETATM   58  H   UNK N   1      19.019  12.979   5.830  0.00  0.00     0.210 HD
ENDBRANCH  42  57
ENDBRANCH  39  42
ENDBRANCH  38  39
ENDBRANCH  37  38
ENDBRANCH  35  37
BRANCH  35  59
HETATM   59  O   UNK N   1      20.742  12.557   9.990  0.00  0.00    -0.307 OA
HETATM   60  H   UNK N   1      21.426  12.244  10.602  0.00  0.00     0.222 HD
ENDBRANCH  35  59
ENDBRANCH  34  35
ENDBRANCH  32  34
BRANCH  32  61
HETATM   61  O   UNK N   1      19.586  17.040   8.362  0.00  0.00    -0.307 OA
HETATM   62  H   UNK N   1      18.922  17.605   8.787  0.00  0.00     0.222 HD
ENDBRANCH  32  61
ENDBRANCH   1  32
TORSDOF 26
ENDMDL
MODEL 8
REMARK VINA RESULT:      -6.1      6.393     10.737
REMARK  26 active torsions:
REMARK  status: ('A' for Active; 'I' for Inactive)
REMARK    1  A    between atoms: C_2  and  N_1 
REMARK    2  A    between atoms: C_6  and  O_14 
REMARK    3  A    between atoms: C_12  and  C_17 
REMARK    4  A    between atoms: C_13  and  O_18 
REMARK    5  A    between atoms: C_15  and  N_21 
REMARK    6  A    between atoms: C_17  and  O_22 
REMARK    7  A    between atoms: O_18  and  P_23 
REMARK    8  A    between atoms: O_22  and  P_24 
REMARK    9  A    between atoms: P_23  and  O_25 
REMARK   10  A    between atoms: P_23  and  O_26 
REMARK   11  A    between atoms: P_24  and  O_28 
REMARK   12  A    between atoms: P_24  and  O_29 
REMARK   13  A    between atoms: O_28  and  P_31 
REMARK   14  A    between atoms: P_31  and  O_32 
REMARK   15  A    between atoms: P_31  and  O_33 
REMARK   16  A    between atoms: O_32  and  C_35 
REMARK   17  A    between atoms: C_35  and  C_36 
REMARK   18  A    between atoms: C_36  and  C_37 
REMARK   19  A    between atoms: C_37  and  C_40 
REMARK   20  A    between atoms: C_37  and  O_41 
REMARK       I    between atoms: C_40  and  N_42 
REMARK   21  A    between atoms: N_42  and  C_44 
REMARK   22  A    between atoms: C_44  and  C_45 
REMARK   23  A    between atoms: C_45  and  C_46 
REMARK       I    between atoms: C_46  and  N_47 
REMARK   24  A    between atoms: N_47  and  C_49 
REMARK   25  A    between atoms: C_49  and  C_50 
REMARK   26  A    between atoms: C_50  and  S_51 
ROOT
HETATM    1  O   UNK N   1      34.524  15.176   4.674  0.00  0.00    -0.294 OA
ENDROOT
BRANCH   1   2
HETATM    2  C   UNK N   1      34.181  15.080   6.017  0.00  0.00     0.215 C 
BRANCH   2   3
HETATM    3  C   UNK N   1      34.728  16.231   6.840  0.00  0.00     0.180 C 
HETATM    4  O   UNK N   1      34.145  17.440   6.405  0.00  0.00    -0.353 OA
HETATM    5  C   UNK N   1      33.379  17.941   7.480  0.00  0.00     0.262 C 
HETATM    6  C   UNK N   1      33.924  17.361   8.769  0.00  0.00     0.199 C 
HETATM    7  C   UNK N   1      34.320  15.999   8.284  0.00  0.00     0.197 C 
BRANCH   5   8
HETATM    8  N   UNK N   1      31.953  17.680   7.251  0.00  0.00    -0.297 N 
HETATM    9  C   UNK N   1      30.884  17.869   8.044  0.00  0.00     0.142 A 
HETATM   10  C   UNK N   1      29.790  17.362   7.449  0.00  0.00     0.122 A 
HETATM   11  N   UNK N   1      30.835  18.444   9.270  0.00  0.00    -0.336 N 
HETATM   12  C   UNK N   1      28.565  17.391   8.097  0.00  0.00     0.131 A 
HETATM   13  N   UNK N   1      30.118  16.856   6.246  0.00  0.00    -0.346 N 
HETATM   14  N   UNK N   1      28.508  17.964   9.336  0.00  0.00    -0.337 N 
HETATM   15  C   UNK N   1      29.632  18.497   9.917  0.00  0.00     0.183 A 
ATOM     16  HN  UNK N   1      27.619  17.998   9.835  1.00  0.00     0.168 HD
HETATM   17  C   UNK N   1      31.460  17.065   6.145  0.00  0.00     0.188 A 
ATOM     18  HN  UNK N   1      29.501  16.414   5.564  1.00  0.00     0.167 HD
ATOM     19  HN  UNK N   1      31.675  18.829   9.700  1.00  0.00     0.168 HD
BRANCH  12  20
HETATM   20  N   UNK N   1      27.414  16.825   7.515  0.00  0.00    -0.383 N 
HETATM   21  H   UNK N   1      26.590  17.356   7.421  0.00  0.00     0.157 HD
HETATM   22  H   UNK N   1      27.434  15.893   7.200  0.00  0.00     0.157 HD
ENDBRANCH  12  20
ENDBRANCH   5   8
BRANCH   6  23
HETATM   23  O   UNK N   1      35.069  18.084   9.120  0.00  0.00    -0.388 OA
HETATM   24  H   UNK N   1      35.351  18.852   8.599  0.00  0.00     0.210 HD
ENDBRANCH   6  23
BRANCH   7  25
HETATM   25  O   UNK N   1      35.360  15.454   9.043  0.00  0.00    -0.286 OA
BRANCH  25  26
HETATM   26  P   UNK N   1      34.659  14.300  10.143  0.00  0.00     0.391 P 
HETATM   27  O   UNK N   1      35.006  12.794   9.990  0.00  0.00    -0.632 OA
BRANCH  26  28
HETATM   28  O   UNK N   1      33.820  14.776  11.584  0.00  0.00    -0.307 OA
HETATM   29  H   UNK N   1      34.045  15.459  12.235  0.00  0.00     0.222 HD
ENDBRANCH  26  28
BRANCH  26  30
HETATM   30  O   UNK N   1      36.100  14.464  11.056  0.00  0.00    -0.307 OA
HETATM   31  H   UNK N   1      36.606  15.060  11.630  0.00  0.00     0.222 HD
ENDBRANCH  26  30
ENDBRANCH  25  26
ENDBRANCH   7  25
ENDBRANCH   2   3
ENDBRANCH   1   2
BRANCH   1  32
HETATM   32  P   UNK N   1      33.119  14.576   3.835  0.00  0.00     0.401 P 
HETATM   33  O   UNK N   1      33.625  13.436   2.913  0.00  0.00    -0.631 OA
BRANCH  32  34
HETATM   34  O   UNK N   1      31.980  13.844   4.942  0.00  0.00    -0.195 OA
BRANCH  34  35
HETATM   35  P   UNK N   1      31.001  12.726   4.028  0.00  0.00     0.401 P 
HETATM   36  O   UNK N   1      31.372  11.987   5.341  0.00  0.00    -0.631 OA
BRANCH  35  37
HETATM   37  O   UNK N   1      30.050  14.187   4.259  0.00  0.00    -0.296 OA
BRANCH  37  38
HETATM   38  C   UNK N   1      29.239  14.295   3.112  0.00  0.00     0.192 C 
BRANCH  38  39
HETATM   39  C   UNK N   1      27.970  15.141   3.267  0.00  0.00     0.009 C 
HETATM   40  C   UNK N   1      27.028  14.621   2.194  0.00  0.00     0.020 C 
HETATM   41  C   UNK N   1      27.323  14.892   4.621  0.00  0.00     0.020 C 
BRANCH  39  42
HETATM   42  C   UNK N   1      28.249  16.647   3.038  0.00  0.00     0.219 C 
BRANCH  42  43
HETATM   43  C   UNK N   1      27.403  17.599   3.848  0.00  0.00     0.247 C 
HETATM   44  N   UNK N   1      26.084  17.715   3.530  0.00  0.00    -0.358 N 
HETATM   45  H   UNK N   1      25.783  17.172   2.765  0.00  0.00     0.162 HD
HETATM   46  O   UNK N   1      27.892  18.215   4.782  0.00  0.00    -0.271 OA
BRANCH  44  47
HETATM   47  C   UNK N   1      25.056  18.529   4.164  0.00  0.00     0.132 C 
BRANCH  47  48
HETATM   48  C   UNK N   1      23.646  17.948   4.196  0.00  0.00     0.122 C 
BRANCH  48  49
HETATM   49  C   UNK N   1      23.626  16.524   4.677  0.00  0.00     0.219 C 
HETATM   50  N   UNK N   1      22.887  15.564   4.065  0.00  0.00    -0.360 N 
HETATM   51  H   UNK N   1      22.919  14.648   4.424  0.00  0.00     0.162 HD
HETATM   52  O   UNK N   1      24.324  16.217   5.627  0.00  0.00    -0.274 OA
BRANCH  50  53
HETATM   53  C   UNK N   1      22.059  15.823   2.913  0.00  0.00     0.132 C 
BRANCH  53  54
HETATM   54  C   UNK N   1      21.800  14.526   2.170  0.00  0.00     0.090 C 
BRANCH  54  55
HETATM   55  S   UNK N   1      23.191  14.159   1.060  0.00  0.00    -0.181 SA
HETATM   56  H   UNK N   1      23.279  12.964   0.416  0.00  0.00     0.101 HD
ENDBRANCH  54  55
ENDBRANCH  53  54
ENDBRANCH  50  53
ENDBRANCH  48  49
ENDBRANCH  47  48
ENDBRANCH  44  47
ENDBRANCH  42  43
BRANCH  42  57
HETATM   57  O   UNK N   1      29.607  16.945   3.181  0.00  0.00    -0.385 OA
HETATM   58  H   UNK N   1      30.527  16.731   3.405  0.00  0.00     0.210 HD
ENDBRANCH  42  57
ENDBRANCH  39  42
ENDBRANCH  38  39
ENDBRANCH  37  38
ENDBRANCH  35  37
BRANCH  35  59
HETATM   59  O   UNK N   1      29.519  12.179   4.759  0.00  0.00    -0.307 OA
HETATM   60  H   UNK N   1      29.287  11.237   4.739  0.00  0.00     0.222 HD
ENDBRANCH  35  59
ENDBRANCH  34  35
ENDBRANCH  32  34
BRANCH  32  61
HETATM   61  O   UNK N   1      32.409  15.750   2.758  0.00  0.00    -0.307 OA
HETATM   62  H   UNK N   1      31.890  16.546   2.565  0.00  0.00     0.222 HD
ENDBRANCH  32  61
ENDBRANCH   1  32
TORSDOF 26
ENDMDL
MODEL 9
REMARK VINA RESULT:      -6.1      3.108     10.177
REMARK  26 active torsions:
REMARK  status: ('A' for Active; 'I' for Inactive)
REMARK    1  A    between atoms: C_2  and  N_1 
REMARK    2  A    between atoms: C_6  and  O_14 
REMARK    3  A    between atoms: C_12  and  C_17 
REMARK    4  A    between atoms: C_13  and  O_18 
REMARK    5  A    between atoms: C_15  and  N_21 
REMARK    6  A    between atoms: C_17  and  O_22 
REMARK    7  A    between atoms: O_18  and  P_23 
REMARK    8  A    between atoms: O_22  and  P_24 
REMARK    9  A    between atoms: P_23  and  O_25 
REMARK   10  A    between atoms: P_23  and  O_26 
REMARK   11  A    between atoms: P_24  and  O_28 
REMARK   12  A    between atoms: P_24  and  O_29 
REMARK   13  A    between atoms: O_28  and  P_31 
REMARK   14  A    between atoms: P_31  and  O_32 
REMARK   15  A    between atoms: P_31  and  O_33 
REMARK   16  A    between atoms: O_32  and  C_35 
REMARK   17  A    between atoms: C_35  and  C_36 
REMARK   18  A    between atoms: C_36  and  C_37 
REMARK   19  A    between atoms: C_37  and  C_40 
REMARK   20  A    between atoms: C_37  and  O_41 
REMARK       I    between atoms: C_40  and  N_42 
REMARK   21  A    between atoms: N_42  and  C_44 
REMARK   22  A    between atoms: C_44  and  C_45 
REMARK   23  A    between atoms: C_45  and  C_46 
REMARK       I    between atoms: C_46  and  N_47 
REMARK   24  A    between atoms: N_47  and  C_49 
REMARK   25  A    between atoms: C_49  and  C_50 
REMARK   26  A    between atoms: C_50  and  S_51 
ROOT
HETATM    1  O   UNK N   1      35.783  14.502   9.796  0.00  0.00    -0.294 OA
ENDROOT
BRANCH   1   2
HETATM    2  C   UNK N   1      35.705  13.675  10.910  0.00  0.00     0.215 C 
BRANCH   2   3
HETATM    3  C   UNK N   1      36.349  12.321  10.675  0.00  0.00     0.180 C 
HETATM    4  O   UNK N   1      37.241  12.035  11.729  0.00  0.00    -0.353 OA
HETATM    5  C   UNK N   1      36.733  10.905  12.407  0.00  0.00     0.262 C 
HETATM    6  C   UNK N   1      35.842  10.135  11.455  0.00  0.00     0.199 C 
HETATM    7  C   UNK N   1      35.246  11.278  10.689  0.00  0.00     0.197 C 
BRANCH   5   8
HETATM    8  N   UNK N   1      36.079  11.314  13.655  0.00  0.00    -0.297 N 
HETATM    9  C   UNK N   1      36.267  12.391  14.437  0.00  0.00     0.142 A 
HETATM   10  C   UNK N   1      35.520  12.274  15.549  0.00  0.00     0.122 A 
HETATM   11  N   UNK N   1      37.081  13.454  14.225  0.00  0.00    -0.336 N 
HETATM   12  C   UNK N   1      35.584  13.242  16.539  0.00  0.00     0.131 A 
HETATM   13  N   UNK N   1      34.810  11.131  15.503  0.00  0.00    -0.346 N 
HETATM   14  N   UNK N   1      36.406  14.315  16.336  0.00  0.00    -0.337 N 
HETATM   15  C   UNK N   1      37.143  14.428  15.183  0.00  0.00     0.183 A 
ATOM     16  HN  UNK N   1      36.472  15.041  17.049  1.00  0.00     0.168 HD
HETATM   17  C   UNK N   1      35.171  10.556  14.322  0.00  0.00     0.188 A 
ATOM     18  HN  UNK N   1      34.152  10.776  16.197  1.00  0.00     0.167 HD
ATOM     19  HN  UNK N   1      37.633  13.527  13.372  1.00  0.00     0.168 HD
BRANCH  12  20
HETATM   20  N   UNK N   1      34.847  13.119  17.733  0.00  0.00    -0.383 N 
HETATM   21  H   UNK N   1      34.417  12.266  17.968  0.00  0.00     0.157 HD
HETATM   22  H   UNK N   1      34.762  13.893  18.335  0.00  0.00     0.157 HD
ENDBRANCH  12  20
ENDBRANCH   5   8
BRANCH   6  23
HETATM   23  O   UNK N   1      36.660   9.381  10.608  0.00  0.00    -0.388 OA
HETATM   24  H   UNK N   1      37.312   9.813  10.032  0.00  0.00     0.210 HD
ENDBRANCH   6  23
BRANCH   7  25
HETATM   25  O   UNK N   1      34.863  10.901   9.398  0.00  0.00    -0.286 OA
BRANCH  25  26
HETATM   26  P   UNK N   1      33.173  11.281   9.220  0.00  0.00     0.391 P 
HETATM   27  O   UNK N   1      32.749  12.739   8.896  0.00  0.00    -0.632 OA
BRANCH  26  28
HETATM   28  O   UNK N   1      31.950  10.057   9.098  0.00  0.00    -0.307 OA
HETATM   29  H   UNK N   1      31.404   9.655   9.793  0.00  0.00     0.222 HD
ENDBRANCH  26  28
BRANCH  26  30
HETATM   30  O   UNK N   1      33.415  11.056   7.539  0.00  0.00    -0.307 OA
HETATM   31  H   UNK N   1      33.382  11.491   6.672  0.00  0.00     0.222 HD
ENDBRANCH  26  30
ENDBRANCH  25  26
ENDBRANCH   7  25
ENDBRANCH   2   3
ENDBRANCH   1   2
BRANCH   1  32
HETATM   32  P   UNK N   1      34.799  15.876  10.220  0.00  0.00     0.401 P 
HETATM   33  O   UNK N   1      35.084  16.161  11.719  0.00  0.00    -0.631 OA
BRANCH  32  34
HETATM   34  O   UNK N   1      35.290  17.308   9.346  0.00  0.00    -0.195 OA
BRANCH  34  35
HETATM   35  P   UNK N   1      33.959  17.787   8.327  0.00  0.00     0.401 P 
HETATM   36  O   UNK N   1      34.943  18.987   8.328  0.00  0.00    -0.631 OA
BRANCH  35  37
HETATM   37  O   UNK N   1      34.623  16.302   7.657  0.00  0.00    -0.296 OA
BRANCH  37  38
HETATM   38  C   UNK N   1      34.276  16.316   6.292  0.00  0.00     0.192 C 
BRANCH  38  39
HETATM   39  C   UNK N   1      33.751  14.992   5.722  0.00  0.00     0.009 C 
HETATM   40  C   UNK N   1      33.772  15.188   4.214  0.00  0.00     0.020 C 
HETATM   41  C   UNK N   1      34.701  13.851   6.059  0.00  0.00     0.020 C 
BRANCH  39  42
HETATM   42  C   UNK N   1      32.309  14.691   6.195  0.00  0.00     0.219 C 
BRANCH  42  43
HETATM   43  C   UNK N   1      31.214  15.435   5.470  0.00  0.00     0.247 C 
HETATM   44  N   UNK N   1      31.056  16.762   5.734  0.00  0.00    -0.358 N 
HETATM   45  H   UNK N   1      31.668  17.135   6.409  0.00  0.00     0.162 HD
HETATM   46  O   UNK N   1      30.520  14.860   4.646  0.00  0.00    -0.271 OA
BRANCH  44  47
HETATM   47  C   UNK N   1      30.107  17.704   5.156  0.00  0.00     0.132 C 
BRANCH  47  48
HETATM   48  C   UNK N   1      28.636  17.490   5.500  0.00  0.00     0.122 C 
BRANCH  48  49
HETATM   49  C   UNK N   1      28.076  18.607   6.336  0.00  0.00     0.219 C 
HETATM   50  N   UNK N   1      27.780  18.446   7.651  0.00  0.00    -0.360 N 
HETATM   51  H   UNK N   1      27.420  19.217   8.147  0.00  0.00     0.162 HD
HETATM   52  O   UNK N   1      27.918  19.700   5.822  0.00  0.00    -0.274 OA
BRANCH  50  53
HETATM   53  C   UNK N   1      27.967  17.202   8.354  0.00  0.00     0.132 C 
BRANCH  53  54
HETATM   54  C   UNK N   1      28.842  17.431   9.572  0.00  0.00     0.090 C 
BRANCH  54  55
HETATM   55  S   UNK N   1      30.114  18.674   9.196  0.00  0.00    -0.181 SA
HETATM   56  H   UNK N   1      31.128  18.402   8.331  0.00  0.00     0.101 HD
ENDBRANCH  54  55
ENDBRANCH  53  54
ENDBRANCH  50  53
ENDBRANCH  48  49
ENDBRANCH  47  48
ENDBRANCH  44  47
ENDBRANCH  42  43
BRANCH  42  57
HETATM   57  O   UNK N   1      32.050  13.317   6.210  0.00  0.00    -0.385 OA
HETATM   58  H   UNK N   1      31.825  12.478   6.643  0.00  0.00     0.210 HD
ENDBRANCH  42  57
ENDBRANCH  39  42
ENDBRANCH  38  39
ENDBRANCH  37  38
ENDBRANCH  35  37
BRANCH  35  59
HETATM   59  O   UNK N   1      34.320  18.171   6.667  0.00  0.00    -0.307 OA
HETATM   60  H   UNK N   1      35.179  18.557   6.434  0.00  0.00     0.222 HD
ENDBRANCH  35  59
ENDBRANCH  34  35
ENDBRANCH  32  34
BRANCH  32  61
HETATM   61  O   UNK N   1      33.088  15.546  10.140  0.00  0.00    -0.307 OA
HETATM   62  H   UNK N   1      32.233  15.304  10.529  0.00  0.00     0.222 HD
ENDBRANCH  32  61
ENDBRANCH   1  32
TORSDOF 26
ENDMDL
