MODEL 1
REMARK VINA RESULT:      -6.1      0.000      0.000
REMARK  6 active torsions:
REMARK  status: ('A' for Active; 'I' for Inactive)
REMARK    1  A    between atoms: C_3  and  N_1 
REMARK    2  A    between atoms: C_2  and  C_4 
REMARK    3  A    between atoms: C_3  and  C_13 
REMARK    4  A    between atoms: C_4  and  C_3 
REMARK    5  A    between atoms: O_14  and  C_13 
REMARK    6  A    between atoms: C_15  and  O_16 
ROOT
HETATM    1  C   UNK N   1      22.181  18.861   4.242  0.00  0.00    -0.028 A 
HETATM    2  C   UNK N   1      22.246  17.856   5.207  0.00  0.00     0.096 A 
HETATM    3  N   UNK N   1      23.548  17.579   5.486  0.00  0.00    -0.365 N 
HETATM    4  C   UNK N   1      24.278  18.406   4.717  0.00  0.00     0.043 A 
HETATM    5  C   UNK N   1      23.476  19.197   3.945  0.00  0.00     0.001 A 
HETATM    6  C   UNK N   1      23.995  20.151   3.076  0.00  0.00     0.050 A 
HETATM    7  C   UNK N   1      25.667  18.513   4.679  0.00  0.00     0.033 A 
HETATM    8  C   UNK N   1      26.226  19.467   3.810  0.00  0.00     0.039 A 
HETATM    9  C   UNK N   1      25.394  20.282   3.008  0.00  0.00     0.066 A 
HETATM   10  H   UNK N   1      23.887  16.908   6.122  0.00  0.00     0.165 HD
ENDROOT
BRANCH   1  11
HETATM   11  C   UNK N   1      20.962  19.544   3.696  0.00  0.00     0.076 C 
BRANCH  11  12
HETATM   12  C   UNK N   1      20.501  19.079   2.315  0.00  0.00     0.177 C 
BRANCH  12  13
HETATM   13  N   UNK N   1      19.086  18.741   2.357  0.00  0.00    -0.417 N 
HETATM   14  H   UNK N   1      18.502  18.531   1.548  0.00  0.00     0.150 HD
HETATM   15  H   UNK N   1      18.639  18.712   3.274  0.00  0.00     0.150 HD
ENDBRANCH  12  13
BRANCH  12  16
HETATM   16  C   UNK N   1      20.720  20.177   1.303  0.00  0.00     0.163 C 
HETATM   17  O   UNK N   1      20.998  21.310   1.667  0.00  0.00    -0.648 OA
BRANCH  16  18
HETATM   18  O   UNK N   1      20.627  19.911  -0.015  0.00  0.00    -0.775 OA
HETATM   19  H   UNK N   1      19.800  19.979  -0.449  0.00  0.00     0.167 HD
ENDBRANCH  16  18
ENDBRANCH  12  16
ENDBRANCH  11  12
ENDBRANCH   1  11
BRANCH   9  20
HETATM   20  O   UNK N   1      25.939  21.187   2.179  0.00  0.00    -0.361 OA
HETATM   21  H   UNK N   1      25.997  22.086   2.437  0.00  0.00     0.217 HD
ENDBRANCH   9  20
TORSDOF 6
ENDMDL
MODEL 2
REMARK VINA RESULT:      -6.0      9.918     11.453
REMARK  6 active torsions:
REMARK  status: ('A' for Active; 'I' for Inactive)
REMARK    1  A    between atoms: C_3  and  N_1 
REMARK    2  A    between atoms: C_2  and  C_4 
REMARK    3  A    between atoms: C_3  and  C_13 
REMARK    4  A    between atoms: C_4  and  C_3 
REMARK    5  A    between atoms: O_14  and  C_13 
REMARK    6  A    between atoms: C_15  and  O_16 
ROOT
HETATM    1  C   UNK N   1      26.779  24.339  -4.108  0.00  0.00    -0.028 A 
HETATM    2  C   UNK N   1      26.232  23.654  -5.192  0.00  0.00     0.096 A 
HETATM    3  N   UNK N   1      25.447  24.499  -5.913  0.00  0.00    -0.365 N 
HETATM    4  C   UNK N   1      25.516  25.690  -5.294  0.00  0.00     0.043 A 
HETATM    5  C   UNK N   1      26.316  25.626  -4.189  0.00  0.00     0.001 A 
HETATM    6  C   UNK N   1      26.561  26.737  -3.389  0.00  0.00     0.050 A 
HETATM    7  C   UNK N   1      24.901  26.878  -5.685  0.00  0.00     0.033 A 
HETATM    8  C   UNK N   1      25.126  28.022  -4.897  0.00  0.00     0.039 A 
HETATM    9  C   UNK N   1      25.951  27.952  -3.750  0.00  0.00     0.066 A 
HETATM   10  H   UNK N   1      24.933  24.281  -6.724  0.00  0.00     0.165 HD
ENDROOT
BRANCH   1  11
HETATM   11  C   UNK N   1      27.768  23.837  -3.098  0.00  0.00     0.076 C 
BRANCH  11  12
HETATM   12  C   UNK N   1      29.207  23.687  -3.592  0.00  0.00     0.177 C 
BRANCH  12  13
HETATM   13  N   UNK N   1      29.885  24.974  -3.531  0.00  0.00    -0.417 N 
HETATM   14  H   UNK N   1      29.687  25.716  -2.860  0.00  0.00     0.150 HD
HETATM   15  H   UNK N   1      30.619  25.149  -4.218  0.00  0.00     0.150 HD
ENDBRANCH  12  13
BRANCH  12  16
HETATM   16  C   UNK N   1      29.946  22.694  -2.729  0.00  0.00     0.163 C 
HETATM   17  O   UNK N   1      30.196  21.573  -3.147  0.00  0.00    -0.648 OA
BRANCH  16  18
HETATM   18  O   UNK N   1      30.352  23.043  -1.492  0.00  0.00    -0.775 OA
HETATM   19  H   UNK N   1      30.677  22.390  -0.905  0.00  0.00     0.167 HD
ENDBRANCH  16  18
ENDBRANCH  12  16
ENDBRANCH  11  12
ENDBRANCH   1  11
BRANCH   9  20
HETATM   20  O   UNK N   1      26.157  29.049  -3.004  0.00  0.00    -0.361 OA
HETATM   21  H   UNK N   1      25.445  29.628  -2.816  0.00  0.00     0.217 HD
ENDBRANCH   9  20
TORSDOF 6
ENDMDL
MODEL 3
REMARK VINA RESULT:      -5.9      7.317     10.621
REMARK  6 active torsions:
REMARK  status: ('A' for Active; 'I' for Inactive)
REMARK    1  A    between atoms: C_3  and  N_1 
REMARK    2  A    between atoms: C_2  and  C_4 
REMARK    3  A    between atoms: C_3  and  C_13 
REMARK    4  A    between atoms: C_4  and  C_3 
REMARK    5  A    between atoms: O_14  and  C_13 
REMARK    6  A    between atoms: C_15  and  O_16 
ROOT
HETATM    1  C   UNK N   1      31.304  17.014   6.334  0.00  0.00    -0.028 A 
HETATM    2  C   UNK N   1      31.378  17.209   4.955  0.00  0.00     0.096 A 
HETATM    3  N   UNK N   1      30.220  17.771   4.514  0.00  0.00    -0.365 N 
HETATM    4  C   UNK N   1      29.447  17.932   5.602  0.00  0.00     0.043 A 
HETATM    5  C   UNK N   1      30.077  17.478   6.726  0.00  0.00     0.001 A 
HETATM    6  C   UNK N   1      29.487  17.553   7.984  0.00  0.00     0.050 A 
HETATM    7  C   UNK N   1      28.176  18.501   5.654  0.00  0.00     0.033 A 
HETATM    8  C   UNK N   1      27.550  18.591   6.911  0.00  0.00     0.039 A 
HETATM    9  C   UNK N   1      28.202  18.116   8.073  0.00  0.00     0.066 A 
HETATM   10  H   UNK N   1      29.995  18.010   3.587  0.00  0.00     0.165 HD
ENDROOT
BRANCH   1  11
HETATM   11  C   UNK N   1      32.373  16.506   7.256  0.00  0.00     0.076 C 
BRANCH  11  12
HETATM   12  C   UNK N   1      32.966  17.535   8.219  0.00  0.00     0.177 C 
BRANCH  12  13
HETATM   13  N   UNK N   1      33.300  16.892   9.481  0.00  0.00    -0.417 N 
HETATM   14  H   UNK N   1      32.854  16.056   9.856  0.00  0.00     0.150 HD
HETATM   15  H   UNK N   1      34.042  17.316  10.039  0.00  0.00     0.150 HD
ENDBRANCH  12  13
BRANCH  12  16
HETATM   16  C   UNK N   1      34.214  18.137   7.621  0.00  0.00     0.163 C 
HETATM   17  O   UNK N   1      34.570  17.836   6.491  0.00  0.00    -0.648 OA
BRANCH  16  18
HETATM   18  O   UNK N   1      34.940  19.028   8.326  0.00  0.00    -0.775 OA
HETATM   19  H   UNK N   1      35.848  19.151   8.131  0.00  0.00     0.167 HD
ENDBRANCH  16  18
ENDBRANCH  12  16
ENDBRANCH  11  12
ENDBRANCH   1  11
BRANCH   9  20
HETATM   20  O   UNK N   1      27.593  18.204   9.267  0.00  0.00    -0.361 OA
HETATM   21  H   UNK N   1      27.423  17.429   9.765  0.00  0.00     0.217 HD
ENDBRANCH   9  20
TORSDOF 6
ENDMDL
MODEL 4
REMARK VINA RESULT:      -5.8      7.295     10.717
REMARK  6 active torsions:
REMARK  status: ('A' for Active; 'I' for Inactive)
REMARK    1  A    between atoms: C_3  and  N_1 
REMARK    2  A    between atoms: C_2  and  C_4 
REMARK    3  A    between atoms: C_3  and  C_13 
REMARK    4  A    between atoms: C_4  and  C_3 
REMARK    5  A    between atoms: O_14  and  C_13 
REMARK    6  A    between atoms: C_15  and  O_16 
ROOT
HETATM    1  C   UNK N   1      31.069  17.224   7.905  0.00  0.00    -0.028 A 
HETATM    2  C   UNK N   1      30.226  17.575   8.958  0.00  0.00     0.096 A 
HETATM    3  N   UNK N   1      29.001  17.904   8.468  0.00  0.00    -0.365 N 
HETATM    4  C   UNK N   1      29.080  17.748   7.135  0.00  0.00     0.043 A 
HETATM    5  C   UNK N   1      30.327  17.337   6.759  0.00  0.00     0.001 A 
HETATM    6  C   UNK N   1      30.653  17.088   5.430  0.00  0.00     0.050 A 
HETATM    7  C   UNK N   1      28.059  17.936   6.204  0.00  0.00     0.033 A 
HETATM    8  C   UNK N   1      28.356  17.694   4.850  0.00  0.00     0.039 A 
HETATM    9  C   UNK N   1      29.650  17.274   4.463  0.00  0.00     0.066 A 
HETATM   10  H   UNK N   1      28.217  18.198   8.985  0.00  0.00     0.165 HD
ENDROOT
BRANCH   1  11
HETATM   11  C   UNK N   1      32.477  16.709   7.976  0.00  0.00     0.076 C 
BRANCH  11  12
HETATM   12  C   UNK N   1      33.440  17.521   8.844  0.00  0.00     0.177 C 
BRANCH  12  13
HETATM   13  N   UNK N   1      34.168  16.630   9.736  0.00  0.00    -0.417 N 
HETATM   14  H   UNK N   1      33.745  15.966  10.384  0.00  0.00     0.150 HD
HETATM   15  H   UNK N   1      35.187  16.676   9.712  0.00  0.00     0.150 HD
ENDBRANCH  12  13
BRANCH  12  16
HETATM   16  C   UNK N   1      34.421  18.260   7.968  0.00  0.00     0.163 C 
HETATM   17  O   UNK N   1      34.467  18.043   6.766  0.00  0.00    -0.648 OA
BRANCH  16  18
HETATM   18  O   UNK N   1      35.247  19.180   8.505  0.00  0.00    -0.775 OA
HETATM   19  H   UNK N   1      36.146  19.211   8.245  0.00  0.00     0.167 HD
ENDBRANCH  16  18
ENDBRANCH  12  16
ENDBRANCH  11  12
ENDBRANCH   1  11
BRANCH   9  20
HETATM   20  O   UNK N   1      29.922  17.049   3.167  0.00  0.00    -0.361 OA
HETATM   21  H   UNK N   1      29.472  17.532   2.503  0.00  0.00     0.217 HD
ENDBRANCH   9  20
TORSDOF 6
ENDMDL
MODEL 5
REMARK VINA RESULT:      -5.7      7.839      9.786
REMARK  6 active torsions:
REMARK  status: ('A' for Active; 'I' for Inactive)
REMARK    1  A    between atoms: C_3  and  N_1 
REMARK    2  A    between atoms: C_2  and  C_4 
REMARK    3  A    between atoms: C_3  and  C_13 
REMARK    4  A    between atoms: C_4  and  C_3 
REMARK    5  A    between atoms: O_14  and  C_13 
REMARK    6  A    between atoms: C_15  and  O_16 
ROOT
HETATM    1  C   UNK N   1      30.433  17.255   6.189  0.00  0.00    -0.028 A 
HETATM    2  C   UNK N   1      30.632  17.214   4.810  0.00  0.00     0.096 A 
HETATM    3  N   UNK N   1      31.966  17.200   4.544  0.00  0.00    -0.365 N 
HETATM    4  C   UNK N   1      32.583  17.221   5.738  0.00  0.00     0.043 A 
HETATM    5  C   UNK N   1      31.678  17.258   6.760  0.00  0.00     0.001 A 
HETATM    6  C   UNK N   1      32.071  17.266   8.095  0.00  0.00     0.050 A 
HETATM    7  C   UNK N   1      33.956  17.185   5.977  0.00  0.00     0.033 A 
HETATM    8  C   UNK N   1      34.388  17.193   7.316  0.00  0.00     0.039 A 
HETATM    9  C   UNK N   1      33.449  17.237   8.373  0.00  0.00     0.066 A 
HETATM   10  H   UNK N   1      32.392  17.180   3.657  0.00  0.00     0.165 HD
ENDROOT
BRANCH   1  11
HETATM   11  C   UNK N   1      29.136  17.196   6.940  0.00  0.00     0.076 C 
BRANCH  11  12
HETATM   12  C   UNK N   1      28.641  18.520   7.522  0.00  0.00     0.177 C 
BRANCH  12  13
HETATM   13  N   UNK N   1      27.351  18.862   6.940  0.00  0.00    -0.417 N 
HETATM   14  H   UNK N   1      27.059  18.655   5.985  0.00  0.00     0.150 HD
HETATM   15  H   UNK N   1      26.684  19.351   7.538  0.00  0.00     0.150 HD
ENDBRANCH  12  13
BRANCH  12  16
HETATM   16  C   UNK N   1      28.495  18.400   9.019  0.00  0.00     0.163 C 
HETATM   17  O   UNK N   1      29.407  18.737   9.761  0.00  0.00    -0.648 OA
BRANCH  16  18
HETATM   18  O   UNK N   1      27.348  17.935   9.553  0.00  0.00    -0.775 OA
HETATM   19  H   UNK N   1      26.526  18.166   9.168  0.00  0.00     0.167 HD
ENDBRANCH  16  18
ENDBRANCH  12  16
ENDBRANCH  11  12
ENDBRANCH   1  11
BRANCH   9  20
HETATM   20  O   UNK N   1      33.873  17.248   9.646  0.00  0.00    -0.361 OA
HETATM   21  H   UNK N   1      34.743  16.969   9.854  0.00  0.00     0.217 HD
ENDBRANCH   9  20
TORSDOF 6
ENDMDL
MODEL 6
REMARK VINA RESULT:      -5.6     17.739     20.232
REMARK  6 active torsions:
REMARK  status: ('A' for Active; 'I' for Inactive)
REMARK    1  A    between atoms: C_3  and  N_1 
REMARK    2  A    between atoms: C_2  and  C_4 
REMARK    3  A    between atoms: C_3  and  C_13 
REMARK    4  A    between atoms: C_4  and  C_3 
REMARK    5  A    between atoms: O_14  and  C_13 
REMARK    6  A    between atoms: C_15  and  O_16 
ROOT
HETATM    1  C   UNK N   1      35.135  12.986  16.930  0.00  0.00    -0.028 A 
HETATM    2  C   UNK N   1      35.263  14.042  17.832  0.00  0.00     0.096 A 
HETATM    3  N   UNK N   1      35.368  13.549  19.095  0.00  0.00    -0.365 N 
HETATM    4  C   UNK N   1      35.318  12.211  18.978  0.00  0.00     0.043 A 
HETATM    5  C   UNK N   1      35.173  11.836  17.672  0.00  0.00     0.001 A 
HETATM    6  C   UNK N   1      35.115  10.500  17.290  0.00  0.00     0.050 A 
HETATM    7  C   UNK N   1      35.420  11.272  20.003  0.00  0.00     0.033 A 
HETATM    8  C   UNK N   1      35.364   9.911  19.651  0.00  0.00     0.039 A 
HETATM    9  C   UNK N   1      35.209   9.524  18.299  0.00  0.00     0.066 A 
HETATM   10  H   UNK N   1      35.460  14.068  19.926  0.00  0.00     0.165 HD
ENDROOT
BRANCH   1  11
HETATM   11  C   UNK N   1      35.078  13.049  15.432  0.00  0.00     0.076 C 
BRANCH  11  12
HETATM   12  C   UNK N   1      36.242  13.769  14.751  0.00  0.00     0.177 C 
BRANCH  12  13
HETATM   13  N   UNK N   1      37.472  13.019  14.954  0.00  0.00    -0.417 N 
HETATM   14  H   UNK N   1      38.416  13.385  14.834  0.00  0.00     0.150 HD
HETATM   15  H   UNK N   1      37.382  12.043  15.239  0.00  0.00     0.150 HD
ENDBRANCH  12  13
BRANCH  12  16
HETATM   16  C   UNK N   1      35.973  13.894  13.271  0.00  0.00     0.163 C 
HETATM   17  O   UNK N   1      34.828  13.868  12.843  0.00  0.00    -0.648 OA
BRANCH  16  18
HETATM   18  O   UNK N   1      36.997  14.053  12.409  0.00  0.00    -0.775 OA
HETATM   19  H   UNK N   1      36.829  14.328  11.529  0.00  0.00     0.167 HD
ENDBRANCH  16  18
ENDBRANCH  12  16
ENDBRANCH  11  12
ENDBRANCH   1  11
BRANCH   9  20
HETATM   20  O   UNK N   1      35.153   8.222  17.976  0.00  0.00    -0.361 OA
HETATM   21  H   UNK N   1      34.954   7.584  18.632  0.00  0.00     0.217 HD
ENDBRANCH   9  20
TORSDOF 6
ENDMDL
MODEL 7
REMARK VINA RESULT:      -5.4     17.073     19.338
REMARK  6 active torsions:
REMARK  status: ('A' for Active; 'I' for Inactive)
REMARK    1  A    between atoms: C_3  and  N_1 
REMARK    2  A    between atoms: C_2  and  C_4 
REMARK    3  A    between atoms: C_3  and  C_13 
REMARK    4  A    between atoms: C_4  and  C_3 
REMARK    5  A    between atoms: O_14  and  C_13 
REMARK    6  A    between atoms: C_15  and  O_16 
ROOT
HETATM    1  C   UNK N   1      35.147  11.542  15.403  0.00  0.00    -0.028 A 
HETATM    2  C   UNK N   1      35.188  10.161  15.590  0.00  0.00     0.096 A 
HETATM    3  N   UNK N   1      35.270   9.885  16.919  0.00  0.00    -0.365 N 
HETATM    4  C   UNK N   1      35.267  11.074  17.546  0.00  0.00     0.043 A 
HETATM    5  C   UNK N   1      35.197  12.103  16.651  0.00  0.00     0.001 A 
HETATM    6  C   UNK N   1      35.161  13.433  17.057  0.00  0.00     0.050 A 
HETATM    7  C   UNK N   1      35.303  11.300  18.921  0.00  0.00     0.033 A 
HETATM    8  C   UNK N   1      35.270  12.634  19.366  0.00  0.00     0.039 A 
HETATM    9  C   UNK N   1      35.202  13.699  18.438  0.00  0.00     0.066 A 
HETATM   10  H   UNK N   1      35.322   8.995  17.336  0.00  0.00     0.165 HD
ENDROOT
BRANCH   1  11
HETATM   11  C   UNK N   1      34.970  12.299  14.120  0.00  0.00     0.076 C 
BRANCH  11  12
HETATM   12  C   UNK N   1      36.031  13.358  13.818  0.00  0.00     0.177 C 
BRANCH  12  13
HETATM   13  N   UNK N   1      37.345  12.734  13.758  0.00  0.00    -0.417 N 
HETATM   14  H   UNK N   1      37.885  12.411  14.560  0.00  0.00     0.150 HD
HETATM   15  H   UNK N   1      37.762  12.612  12.834  0.00  0.00     0.150 HD
ENDBRANCH  12  13
BRANCH  12  16
HETATM   16  C   UNK N   1      35.733  14.022  12.497  0.00  0.00     0.163 C 
HETATM   17  O   UNK N   1      34.579  14.228  12.151  0.00  0.00    -0.648 OA
BRANCH  16  18
HETATM   18  O   UNK N   1      36.742  14.410  11.692  0.00  0.00    -0.775 OA
HETATM   19  H   UNK N   1      37.055  13.834  11.022  0.00  0.00     0.167 HD
ENDBRANCH  16  18
ENDBRANCH  12  16
ENDBRANCH  11  12
ENDBRANCH   1  11
BRANCH   9  20
HETATM   20  O   UNK N   1      35.174  14.969  18.874  0.00  0.00    -0.361 OA
HETATM   21  H   UNK N   1      34.395  15.480  18.780  0.00  0.00     0.217 HD
ENDBRANCH   9  20
TORSDOF 6
ENDMDL
MODEL 8
REMARK VINA RESULT:      -5.3     17.498     19.528
REMARK  6 active torsions:
REMARK  status: ('A' for Active; 'I' for Inactive)
REMARK    1  A    between atoms: C_3  and  N_1 
REMARK    2  A    between atoms: C_2  and  C_4 
REMARK    3  A    between atoms: C_3  and  C_13 
REMARK    4  A    between atoms: C_4  and  C_3 
REMARK    5  A    between atoms: O_14  and  C_13 
REMARK    6  A    between atoms: C_15  and  O_16 
ROOT
HETATM    1  C   UNK N   1      35.662  13.340  15.842  0.00  0.00    -0.028 A 
HETATM    2  C   UNK N   1      36.715  14.222  15.605  0.00  0.00     0.096 A 
HETATM    3  N   UNK N   1      37.102  14.128  14.305  0.00  0.00    -0.365 N 
HETATM    4  C   UNK N   1      36.294  13.212  13.742  0.00  0.00     0.043 A 
HETATM    5  C   UNK N   1      35.408  12.711  14.653  0.00  0.00     0.001 A 
HETATM    6  C   UNK N   1      34.453  11.761  14.307  0.00  0.00     0.050 A 
HETATM    7  C   UNK N   1      36.288  12.800  12.411  0.00  0.00     0.033 A 
HETATM    8  C   UNK N   1      35.335  11.838  12.028  0.00  0.00     0.039 A 
HETATM    9  C   UNK N   1      34.422  11.317  12.973  0.00  0.00     0.066 A 
HETATM   10  H   UNK N   1      37.827  14.628  13.865  0.00  0.00     0.165 HD
ENDROOT
BRANCH   1  11
HETATM   11  C   UNK N   1      34.864  13.167  17.101  0.00  0.00     0.076 C 
BRANCH  11  12
HETATM   12  C   UNK N   1      35.527  13.666  18.385  0.00  0.00     0.177 C 
BRANCH  12  13
HETATM   13  N   UNK N   1      35.156  15.053  18.623  0.00  0.00    -0.417 N 
HETATM   14  H   UNK N   1      35.762  15.768  19.026  0.00  0.00     0.150 HD
HETATM   15  H   UNK N   1      34.209  15.334  18.366  0.00  0.00     0.150 HD
ENDBRANCH  12  13
BRANCH  12  16
HETATM   16  C   UNK N   1      35.082  12.824  19.554  0.00  0.00     0.163 C 
HETATM   17  O   UNK N   1      35.212  11.608  19.531  0.00  0.00    -0.648 OA
BRANCH  16  18
HETATM   18  O   UNK N   1      34.550  13.409  20.646  0.00  0.00    -0.775 OA
HETATM   19  H   UNK N   1      33.846  14.020  20.554  0.00  0.00     0.167 HD
ENDBRANCH  16  18
ENDBRANCH  12  16
ENDBRANCH  11  12
ENDBRANCH   1  11
BRANCH   9  20
HETATM   20  O   UNK N   1      33.519  10.396  12.597  0.00  0.00    -0.361 OA
HETATM   21  H   UNK N   1      33.258   9.724  13.194  0.00  0.00     0.217 HD
ENDBRANCH   9  20
TORSDOF 6
ENDMDL
MODEL 9
REMARK VINA RESULT:      -5.2     10.227     10.920
REMARK  6 active torsions:
REMARK  status: ('A' for Active; 'I' for Inactive)
REMARK    1  A    between atoms: C_3  and  N_1 
REMARK    2  A    between atoms: C_2  and  C_4 
REMARK    3  A    between atoms: C_3  and  C_13 
REMARK    4  A    between atoms: C_4  and  C_3 
REMARK    5  A    between atoms: O_14  and  C_13 
REMARK    6  A    between atoms: C_15  and  O_16 
ROOT
HETATM    1  C   UNK N   1      27.449  24.222  -5.005  0.00  0.00    -0.028 A 
HETATM    2  C   UNK N   1      27.443  23.709  -6.301  0.00  0.00     0.096 A 
HETATM    3  N   UNK N   1      28.452  22.807  -6.436  0.00  0.00    -0.365 N 
HETATM    4  C   UNK N   1      29.065  22.752  -5.240  0.00  0.00     0.043 A 
HETATM    5  C   UNK N   1      28.480  23.605  -4.348  0.00  0.00     0.001 A 
HETATM    6  C   UNK N   1      28.923  23.716  -3.034  0.00  0.00     0.050 A 
HETATM    7  C   UNK N   1      30.140  21.941  -4.882  0.00  0.00     0.033 A 
HETATM    8  C   UNK N   1      30.614  22.030  -3.560  0.00  0.00     0.039 A 
HETATM    9  C   UNK N   1      30.011  22.917  -2.639  0.00  0.00     0.066 A 
HETATM   10  H   UNK N   1      28.686  22.298  -7.245  0.00  0.00     0.165 HD
ENDROOT
BRANCH   1  11
HETATM   11  C   UNK N   1      26.471  25.174  -4.380  0.00  0.00     0.076 C 
BRANCH  11  12
HETATM   12  C   UNK N   1      26.925  26.631  -4.290  0.00  0.00     0.177 C 
BRANCH  12  13
HETATM   13  N   UNK N   1      26.929  27.229  -5.617  0.00  0.00    -0.417 N 
HETATM   14  H   UNK N   1      27.705  27.742  -6.033  0.00  0.00     0.150 HD
HETATM   15  H   UNK N   1      26.082  27.127  -6.177  0.00  0.00     0.150 HD
ENDBRANCH  12  13
BRANCH  12  16
HETATM   16  C   UNK N   1      25.988  27.406  -3.397  0.00  0.00     0.163 C 
HETATM   17  O   UNK N   1      25.922  27.160  -2.201  0.00  0.00    -0.648 OA
BRANCH  16  18
HETATM   18  O   UNK N   1      25.225  28.392  -3.910  0.00  0.00    -0.775 OA
HETATM   19  H   UNK N   1      25.380  29.282  -3.662  0.00  0.00     0.167 HD
ENDBRANCH  16  18
ENDBRANCH  12  16
ENDBRANCH  11  12
ENDBRANCH   1  11
BRANCH   9  20
HETATM   20  O   UNK N   1      30.475  22.995  -1.381  0.00  0.00    -0.361 OA
HETATM   21  H   UNK N   1      30.884  23.782  -1.081  0.00  0.00     0.217 HD
ENDBRANCH   9  20
TORSDOF 6
ENDMDL
