MODEL 1
REMARK VINA RESULT:      -4.8      0.000      0.000
REMARK  0 active torsions:
REMARK  status: ('A' for Active; 'I' for Inactive)
ROOT
HETATM    1  C   UNK N   1      25.424  25.564  -5.194  0.00  0.00     0.038 C 
HETATM    2  C   UNK N   1      24.933  26.917  -5.754  0.00  0.00     0.010 C 
HETATM    3  O   UNK N   1      27.693  26.402  -5.103  0.00  0.00    -0.370 OA
HETATM    4  C   UNK N   1      28.265  28.734  -5.085  0.00  0.00     0.046 C 
HETATM    5  C   UNK N   1      27.307  27.681  -5.622  0.00  0.00     0.058 C 
HETATM    6  C   UNK N   1      27.461  27.667  -7.135  0.00  0.00     0.046 C 
HETATM    7  C   UNK N   1      26.667  25.796  -4.318  0.00  0.00     0.058 C 
HETATM    8  C   UNK N   1      27.162  24.477  -3.764  0.00  0.00     0.046 C 
HETATM    9  C   UNK N   1      25.842  28.056  -5.252  0.00  0.00     0.020 C 
HETATM   10  C   UNK N   1      26.277  26.727  -3.154  0.00  0.00     0.038 C 
HETATM   11  C   UNK N   1      25.741  28.059  -3.715  0.00  0.00     0.010 C 
ENDROOT
TORSDOF 0
ENDMDL
MODEL 2
REMARK VINA RESULT:      -4.7     23.380     25.708
REMARK  0 active torsions:
REMARK  status: ('A' for Active; 'I' for Inactive)
ROOT
HETATM    1  C   UNK N   1      36.652  12.427  12.836  0.00  0.00     0.038 C 
HETATM    2  C   UNK N   1      37.204  11.759  14.114  0.00  0.00     0.010 C 
HETATM    3  O   UNK N   1      34.610  13.008  13.998  0.00  0.00    -0.370 OA
HETATM    4  C   UNK N   1      34.410  13.129  16.389  0.00  0.00     0.046 C 
HETATM    5  C   UNK N   1      35.059  12.404  15.218  0.00  0.00     0.058 C 
HETATM    6  C   UNK N   1      34.577  10.962  15.262  0.00  0.00     0.046 C 
HETATM    7  C   UNK N   1      35.680  13.554  13.229  0.00  0.00     0.058 C 
HETATM    8  C   UNK N   1      35.127  14.215  11.985  0.00  0.00     0.046 C 
HETATM    9  C   UNK N   1      36.609  12.438  15.363  0.00  0.00     0.020 C 
HETATM   10  C   UNK N   1      36.450  14.594  14.064  0.00  0.00     0.038 C 
HETATM   11  C   UNK N   1      37.044  13.915  15.315  0.00  0.00     0.010 C 
ENDROOT
TORSDOF 0
ENDMDL
MODEL 3
REMARK VINA RESULT:      -4.6     25.934     27.208
REMARK  0 active torsions:
REMARK  status: ('A' for Active; 'I' for Inactive)
ROOT
HETATM    1  C   UNK N   1      34.666  10.273  15.922  0.00  0.00     0.038 C 
HETATM    2  C   UNK N   1      34.027  11.330  14.996  0.00  0.00     0.010 C 
HETATM    3  O   UNK N   1      36.788  11.431  15.815  0.00  0.00    -0.370 OA
HETATM    4  C   UNK N   1      37.031  13.737  15.186  0.00  0.00     0.046 C 
HETATM    5  C   UNK N   1      36.261  12.445  14.950  0.00  0.00     0.058 C 
HETATM    6  C   UNK N   1      36.504  12.038  13.505  0.00  0.00     0.046 C 
HETATM    7  C   UNK N   1      35.811  10.920  16.720  0.00  0.00     0.058 C 
HETATM    8  C   UNK N   1      36.450   9.894  17.631  0.00  0.00     0.046 C 
HETATM    9  C   UNK N   1      34.738  12.686  15.173  0.00  0.00     0.020 C 
HETATM   10  C   UNK N   1      35.229  12.067  17.568  0.00  0.00     0.038 C 
HETATM   11  C   UNK N   1      34.548  13.097  16.645  0.00  0.00     0.010 C 
ENDROOT
TORSDOF 0
ENDMDL
MODEL 4
REMARK VINA RESULT:      -4.6     24.586     26.749
REMARK  0 active torsions:
REMARK  status: ('A' for Active; 'I' for Inactive)
ROOT
HETATM    1  C   UNK N   1      36.715  13.325  15.707  0.00  0.00     0.038 C 
HETATM    2  C   UNK N   1      37.187  12.338  14.618  0.00  0.00     0.010 C 
HETATM    3  O   UNK N   1      34.412  12.696  15.309  0.00  0.00    -0.370 OA
HETATM    4  C   UNK N   1      33.742  10.650  14.243  0.00  0.00     0.046 C 
HETATM    5  C   UNK N   1      34.779  11.764  14.284  0.00  0.00     0.058 C 
HETATM    6  C   UNK N   1      34.734  12.466  12.937  0.00  0.00     0.046 C 
HETATM    7  C   UNK N   1      35.404  12.811  16.328  0.00  0.00     0.058 C 
HETATM    8  C   UNK N   1      34.927  13.772  17.396  0.00  0.00     0.046 C 
HETATM    9  C   UNK N   1      36.198  11.160  14.509  0.00  0.00     0.020 C 
HETATM   10  C   UNK N   1      35.670  11.433  16.960  0.00  0.00     0.038 C 
HETATM   11  C   UNK N   1      36.189  10.461  15.881  0.00  0.00     0.010 C 
ENDROOT
TORSDOF 0
ENDMDL
MODEL 5
REMARK VINA RESULT:      -4.5      1.299      2.943
REMARK  0 active torsions:
REMARK  status: ('A' for Active; 'I' for Inactive)
ROOT
HETATM    1  C   UNK N   1      27.216  28.066  -6.704  0.00  0.00     0.038 C 
HETATM    2  C   UNK N   1      27.544  28.614  -5.299  0.00  0.00     0.010 C 
HETATM    3  O   UNK N   1      27.084  25.817  -5.819  0.00  0.00    -0.370 OA
HETATM    4  C   UNK N   1      26.735  25.304  -3.498  0.00  0.00     0.046 C 
HETATM    5  C   UNK N   1      27.389  26.257  -4.489  0.00  0.00     0.058 C 
HETATM    6  C   UNK N   1      28.891  26.167  -4.270  0.00  0.00     0.046 C 
HETATM    7  C   UNK N   1      26.362  26.793  -6.568  0.00  0.00     0.058 C 
HETATM    8  C   UNK N   1      26.035  26.241  -7.939  0.00  0.00     0.046 C 
HETATM    9  C   UNK N   1      26.910  27.714  -4.220  0.00  0.00     0.020 C 
HETATM   10  C   UNK N   1      25.057  27.156  -5.836  0.00  0.00     0.038 C 
HETATM   11  C   UNK N   1      25.388  27.750  -4.452  0.00  0.00     0.010 C 
ENDROOT
TORSDOF 0
ENDMDL
MODEL 6
REMARK VINA RESULT:      -4.5      1.206      3.024
REMARK  0 active torsions:
REMARK  status: ('A' for Active; 'I' for Inactive)
ROOT
HETATM    1  C   UNK N   1      25.031  27.746  -4.933  0.00  0.00     0.038 C 
HETATM    2  C   UNK N   1      25.130  26.476  -5.806  0.00  0.00     0.010 C 
HETATM    3  O   UNK N   1      27.136  27.203  -3.869  0.00  0.00    -0.370 OA
HETATM    4  C   UNK N   1      28.776  25.722  -4.810  0.00  0.00     0.046 C 
HETATM    5  C   UNK N   1      27.290  26.007  -4.644  0.00  0.00     0.058 C 
HETATM    6  C   UNK N   1      26.694  24.839  -3.875  0.00  0.00     0.046 C 
HETATM    7  C   UNK N   1      26.447  28.232  -4.577  0.00  0.00     0.058 C 
HETATM    8  C   UNK N   1      26.365  29.475  -3.718  0.00  0.00     0.046 C 
HETATM    9  C   UNK N   1      26.609  26.111  -6.041  0.00  0.00     0.020 C 
HETATM   10  C   UNK N   1      27.193  28.560  -5.884  0.00  0.00     0.038 C 
HETATM   11  C   UNK N   1      27.248  27.304  -6.777  0.00  0.00     0.010 C 
ENDROOT
TORSDOF 0
ENDMDL
MODEL 7
REMARK VINA RESULT:      -4.4     14.878     16.975
REMARK  0 active torsions:
REMARK  status: ('A' for Active; 'I' for Inactive)
ROOT
HETATM    1  C   UNK N   1      34.153  16.254   8.291  0.00  0.00     0.038 C 
HETATM    2  C   UNK N   1      33.201  15.250   7.606  0.00  0.00     0.010 C 
HETATM    3  O   UNK N   1      34.176  17.625   6.297  0.00  0.00    -0.370 OA
HETATM    4  C   UNK N   1      32.494  17.536   4.585  0.00  0.00     0.046 C 
HETATM    5  C   UNK N   1      33.296  16.734   5.600  0.00  0.00     0.058 C 
HETATM    6  C   UNK N   1      34.127  15.728   4.819  0.00  0.00     0.046 C 
HETATM    7  C   UNK N   1      33.926  17.656   7.701  0.00  0.00     0.058 C 
HETATM    8  C   UNK N   1      34.856  18.651   8.361  0.00  0.00     0.046 C 
HETATM    9  C   UNK N   1      32.332  15.976   6.561  0.00  0.00     0.020 C 
HETATM   10  C   UNK N   1      32.465  18.066   7.965  0.00  0.00     0.038 C 
HETATM   11  C   UNK N   1      31.515  17.036   7.323  0.00  0.00     0.010 C 
ENDROOT
TORSDOF 0
ENDMDL
MODEL 8
REMARK VINA RESULT:      -4.3      1.361      3.250
REMARK  0 active torsions:
REMARK  status: ('A' for Active; 'I' for Inactive)
ROOT
HETATM    1  C   UNK N   1      28.556  27.649  -4.870  0.00  0.00     0.038 C 
HETATM    2  C   UNK N   1      27.758  26.791  -3.866  0.00  0.00     0.010 C 
HETATM    3  O   UNK N   1      26.666  27.676  -6.381  0.00  0.00    -0.370 OA
HETATM    4  C   UNK N   1      24.403  27.227  -5.712  0.00  0.00     0.046 C 
HETATM    5  C   UNK N   1      25.869  26.878  -5.497  0.00  0.00     0.058 C 
HETATM    6  C   UNK N   1      26.038  25.413  -5.865  0.00  0.00     0.046 C 
HETATM    7  C   UNK N   1      27.582  28.519  -5.685  0.00  0.00     0.058 C 
HETATM    8  C   UNK N   1      28.352  29.364  -6.678  0.00  0.00     0.046 C 
HETATM    9  C   UNK N   1      26.251  27.085  -4.001  0.00  0.00     0.020 C 
HETATM   10  C   UNK N   1      26.818  29.437  -4.714  0.00  0.00     0.038 C 
HETATM   11  C   UNK N   1      26.060  28.580  -3.680  0.00  0.00     0.010 C 
ENDROOT
TORSDOF 0
ENDMDL
MODEL 9
REMARK VINA RESULT:      -4.3      1.951      3.133
REMARK  0 active torsions:
REMARK  status: ('A' for Active; 'I' for Inactive)
ROOT
HETATM    1  C   UNK N   1      25.874  23.995  -4.478  0.00  0.00     0.038 C 
HETATM    2  C   UNK N   1      26.448  25.329  -3.954  0.00  0.00     0.010 C 
HETATM    3  O   UNK N   1      25.479  24.993  -6.647  0.00  0.00    -0.370 OA
HETATM    4  C   UNK N   1      26.582  26.976  -7.436  0.00  0.00     0.046 C 
HETATM    5  C   UNK N   1      25.996  26.262  -6.226  0.00  0.00     0.058 C 
HETATM    6  C   UNK N   1      24.849  27.118  -5.714  0.00  0.00     0.046 C 
HETATM    7  C   UNK N   1      26.117  23.896  -5.994  0.00  0.00     0.058 C 
HETATM    8  C   UNK N   1      25.556  22.594  -6.523  0.00  0.00     0.046 C 
HETATM    9  C   UNK N   1      27.078  26.125  -5.114  0.00  0.00     0.020 C 
HETATM   10  C   UNK N   1      27.635  23.943  -6.250  0.00  0.00     0.038 C 
HETATM   11  C   UNK N   1      28.214  25.254  -5.682  0.00  0.00     0.010 C 
ENDROOT
TORSDOF 0
ENDMDL
