MODEL 1
REMARK VINA RESULT:      -8.8      0.000      0.000
REMARK  11 active torsions:
REMARK  status: ('A' for Active; 'I' for Inactive)
REMARK    1  A    between atoms: N_1  and  C_2 
REMARK    2  A    between atoms: N_1  and  C_20 
REMARK    3  A    between atoms: C_5  and  C_8 
REMARK       I    between atoms: C_8  and  N_10 
REMARK    4  A    between atoms: C_11  and  N_10 
REMARK    5  A    between atoms: C_11  and  C_12 
REMARK    6  A    between atoms: C_11  and  C_17 
REMARK    7  A    between atoms: C_12  and  C_13 
REMARK    8  A    between atoms: C_13  and  C_14 
REMARK    9  A    between atoms: C_14  and  O_15 
REMARK   10  A    between atoms: C_17  and  O_18 
REMARK   11  A    between atoms: C_20  and  C_21 
REMARK       I    between atoms: C_30  and  N_32 
ROOT
HETATM    1  C   UNK N   1      27.993  18.794   4.423  0.00  0.00     0.028 A 
HETATM    2  C   UNK N   1      27.646  20.144   4.402  0.00  0.00     0.030 A 
HETATM    3  C   UNK N   1      26.355  20.538   4.068  0.00  0.00     0.019 A 
HETATM    4  C   UNK N   1      25.390  19.582   3.737  0.00  0.00     0.032 A 
HETATM    5  C   UNK N   1      25.728  18.215   3.789  0.00  0.00     0.019 A 
HETATM    6  C   UNK N   1      27.025  17.819   4.145  0.00  0.00     0.030 A 
ENDROOT
BRANCH   1   7
HETATM    7  N   UNK N   1      29.336  18.464   4.693  0.00  0.00    -0.388 N 
HETATM    8  H   UNK N   1      29.920  19.180   5.031  0.00  0.00     0.159 HD
BRANCH   7   9
HETATM    9  C   UNK N   1      29.921  17.162   4.511  0.00  0.00     0.146 C 
BRANCH   9  10
HETATM   10  C   UNK N   1      30.614  16.803   5.829  0.00  0.00     0.119 C 
HETATM   11  C   UNK N   1      29.973  17.443   7.053  0.00  0.00     0.148 C 
HETATM   12  N   UNK N   1      30.637  16.958   8.250  0.00  0.00    -0.372 N 
HETATM   13  C   UNK N   1      32.034  16.683   8.259  0.00  0.00     0.149 A 
HETATM   14  H   UNK N   1      30.112  16.816   9.070  0.00  0.00     0.161 HD
HETATM   15  C   UNK N   1      32.763  16.739   7.061  0.00  0.00     0.144 A 
HETATM   16  N   UNK N   1      32.667  16.413   9.429  0.00  0.00    -0.175 N 
HETATM   17  C   UNK N   1      34.154  16.513   7.121  0.00  0.00     0.290 A 
HETATM   18  N   UNK N   1      32.063  17.022   5.849  0.00  0.00    -0.370 N 
HETATM   19  O   UNK N   1      34.841  16.532   6.114  0.00  0.00    -0.265 OA
HETATM   20  N   UNK N   1      34.742  16.245   8.326  0.00  0.00    -0.154 N 
HETATM   21  C   UNK N   1      34.009  16.194   9.468  0.00  0.00     0.680 A 
ATOM     22  HN  UNK N   1      35.748  16.082   8.368  1.00  0.00     0.187 HD
HETATM   23  N   UNK N   1      34.643  15.925  10.695  0.00  0.00    -0.234 N 
HETATM   24  H   UNK N   1      35.603  15.710  10.718  0.00  0.00     0.174 HD
HETATM   25  H   UNK N   1      34.124  15.952  11.532  0.00  0.00     0.174 HD
HETATM   26  C   UNK N   1      32.773  17.523   4.691  0.00  0.00     0.150 C 
HETATM   27  H   UNK N   1      32.146  16.374  10.264  0.00  0.00     0.186 HD
ENDBRANCH   9  10
ENDBRANCH   7   9
ENDBRANCH   1   7
BRANCH   4  28
HETATM   28  C   UNK N   1      24.099  20.023   3.172  0.00  0.00     0.252 C 
HETATM   29  O   UNK N   1      24.082  20.877   2.295  0.00  0.00    -0.268 OA
HETATM   30  N   UNK N   1      22.961  19.377   3.531  0.00  0.00    -0.343 N 
HETATM   31  H   UNK N   1      22.990  18.831   4.349  0.00  0.00     0.163 HD
BRANCH  30  32
HETATM   32  C   UNK N   1      21.704  19.426   2.806  0.00  0.00     0.183 C 
BRANCH  32  33
HETATM   33  C   UNK N   1      20.865  18.249   3.259  0.00  0.00     0.046 C 
BRANCH  33  34
HETATM   34  C   UNK N   1      19.737  18.002   2.276  0.00  0.00     0.112 C 
BRANCH  34  35
HETATM   35  C   UNK N   1      20.236  17.194   1.124  0.00  0.00     0.139 C 
HETATM   36  O   UNK N   1      20.588  16.038   1.293  0.00  0.00    -0.650 OA
BRANCH  35  37
HETATM   37  O   UNK N   1      20.323  17.748  -0.099  0.00  0.00    -0.776 OA
HETATM   38  H   UNK N   1      20.795  17.322  -0.788  0.00  0.00     0.167 HD
ENDBRANCH  35  37
ENDBRANCH  34  35
ENDBRANCH  33  34
ENDBRANCH  32  33
BRANCH  32  39
HETATM   39  C   UNK N   1      20.912  20.706   2.907  0.00  0.00     0.163 C 
HETATM   40  O   UNK N   1      20.185  20.930   3.860  0.00  0.00    -0.648 OA
BRANCH  39  41
HETATM   41  O   UNK N   1      21.022  21.625   1.927  0.00  0.00    -0.775 OA
HETATM   42  H   UNK N   1      20.691  22.496   2.023  0.00  0.00     0.167 HD
ENDBRANCH  39  41
ENDBRANCH  32  39
ENDBRANCH  30  32
ENDBRANCH   4  28
TORSDOF 11
ENDMDL
MODEL 2
REMARK VINA RESULT:      -8.4      1.888      2.967
REMARK  11 active torsions:
REMARK  status: ('A' for Active; 'I' for Inactive)
REMARK    1  A    between atoms: N_1  and  C_2 
REMARK    2  A    between atoms: N_1  and  C_20 
REMARK    3  A    between atoms: C_5  and  C_8 
REMARK       I    between atoms: C_8  and  N_10 
REMARK    4  A    between atoms: C_11  and  N_10 
REMARK    5  A    between atoms: C_11  and  C_12 
REMARK    6  A    between atoms: C_11  and  C_17 
REMARK    7  A    between atoms: C_12  and  C_13 
REMARK    8  A    between atoms: C_13  and  C_14 
REMARK    9  A    between atoms: C_14  and  O_15 
REMARK   10  A    between atoms: C_17  and  O_18 
REMARK   11  A    between atoms: C_20  and  C_21 
REMARK       I    between atoms: C_30  and  N_32 
ROOT
HETATM    1  C   UNK N   1      27.244  18.406   3.893  0.00  0.00     0.028 A 
HETATM    2  C   UNK N   1      26.536  17.221   3.694  0.00  0.00     0.030 A 
HETATM    3  C   UNK N   1      25.153  17.192   3.830  0.00  0.00     0.019 A 
HETATM    4  C   UNK N   1      24.455  18.352   4.180  0.00  0.00     0.032 A 
HETATM    5  C   UNK N   1      25.163  19.558   4.350  0.00  0.00     0.019 A 
HETATM    6  C   UNK N   1      26.556  19.590   4.193  0.00  0.00     0.030 A 
ENDROOT
BRANCH   1   7
HETATM    7  N   UNK N   1      28.651  18.352   3.818  0.00  0.00    -0.388 N 
HETATM    8  H   UNK N   1      29.133  19.205   3.727  0.00  0.00     0.159 HD
BRANCH   7   9
HETATM    9  C   UNK N   1      29.436  17.148   3.861  0.00  0.00     0.146 C 
BRANCH   9  10
HETATM   10  C   UNK N   1      30.644  17.443   4.757  0.00  0.00     0.119 C 
HETATM   11  C   UNK N   1      31.978  17.053   4.134  0.00  0.00     0.148 C 
HETATM   12  N   UNK N   1      33.056  17.468   5.014  0.00  0.00    -0.372 N 
HETATM   13  C   UNK N   1      32.910  17.429   6.430  0.00  0.00     0.149 A 
HETATM   14  H   UNK N   1      33.904  17.782   4.625  0.00  0.00     0.161 HD
HETATM   15  C   UNK N   1      31.661  17.125   6.994  0.00  0.00     0.144 A 
HETATM   16  N   UNK N   1      33.985  17.640   7.232  0.00  0.00    -0.175 N 
HETATM   17  C   UNK N   1      31.570  17.043   8.398  0.00  0.00     0.290 A 
HETATM   18  N   UNK N   1      30.552  16.913   6.120  0.00  0.00    -0.370 N 
HETATM   19  O   UNK N   1      30.511  16.798   8.950  0.00  0.00    -0.265 OA
HETATM   20  N   UNK N   1      32.684  17.263   9.160  0.00  0.00    -0.154 N 
HETATM   21  C   UNK N   1      33.879  17.560   8.585  0.00  0.00     0.680 A 
ATOM     22  HN  UNK N   1      32.617  17.204  10.176  1.00  0.00     0.187 HD
HETATM   23  N   UNK N   1      35.011  17.774   9.394  0.00  0.00    -0.234 N 
HETATM   24  H   UNK N   1      34.924  17.773  10.374  0.00  0.00     0.174 HD
HETATM   25  H   UNK N   1      35.890  17.923   8.977  0.00  0.00     0.174 HD
HETATM   26  C   UNK N   1      29.387  16.183   6.575  0.00  0.00     0.150 C 
HETATM   27  H   UNK N   1      34.857  17.854   6.826  0.00  0.00     0.186 HD
ENDBRANCH   9  10
ENDBRANCH   7   9
ENDBRANCH   1   7
BRANCH   4  28
HETATM   28  C   UNK N   1      23.025  18.255   4.538  0.00  0.00     0.252 C 
HETATM   29  O   UNK N   1      22.702  18.112   5.709  0.00  0.00    -0.268 OA
HETATM   30  N   UNK N   1      22.086  18.466   3.582  0.00  0.00    -0.343 N 
HETATM   31  H   UNK N   1      22.374  18.403   2.643  0.00  0.00     0.163 HD
BRANCH  30  32
HETATM   32  C   UNK N   1      20.690  18.779   3.832  0.00  0.00     0.183 C 
BRANCH  32  33
HETATM   33  C   UNK N   1      20.429  20.176   3.306  0.00  0.00     0.046 C 
BRANCH  33  34
HETATM   34  C   UNK N   1      21.498  20.565   2.303  0.00  0.00     0.112 C 
BRANCH  34  35
HETATM   35  C   UNK N   1      20.874  20.815   0.970  0.00  0.00     0.139 C 
HETATM   36  O   UNK N   1      20.599  21.954   0.626  0.00  0.00    -0.650 OA
BRANCH  35  37
HETATM   37  O   UNK N   1      20.591  19.783   0.154  0.00  0.00    -0.776 OA
HETATM   38  H   UNK N   1      20.178  19.009   0.484  0.00  0.00     0.167 HD
ENDBRANCH  35  37
ENDBRANCH  34  35
ENDBRANCH  33  34
ENDBRANCH  32  33
BRANCH  32  39
HETATM   39  C   UNK N   1      19.670  17.812   3.284  0.00  0.00     0.163 C 
HETATM   40  O   UNK N   1      19.443  16.748   3.835  0.00  0.00    -0.648 OA
BRANCH  39  41
HETATM   41  O   UNK N   1      18.986  18.140   2.170  0.00  0.00    -0.775 OA
HETATM   42  H   UNK N   1      18.332  17.578   1.804  0.00  0.00     0.167 HD
ENDBRANCH  39  41
ENDBRANCH  32  39
ENDBRANCH  30  32
ENDBRANCH   4  28
TORSDOF 11
ENDMDL
MODEL 3
REMARK VINA RESULT:      -8.4      2.228     12.193
REMARK  11 active torsions:
REMARK  status: ('A' for Active; 'I' for Inactive)
REMARK    1  A    between atoms: N_1  and  C_2 
REMARK    2  A    between atoms: N_1  and  C_20 
REMARK    3  A    between atoms: C_5  and  C_8 
REMARK       I    between atoms: C_8  and  N_10 
REMARK    4  A    between atoms: C_11  and  N_10 
REMARK    5  A    between atoms: C_11  and  C_12 
REMARK    6  A    between atoms: C_11  and  C_17 
REMARK    7  A    between atoms: C_12  and  C_13 
REMARK    8  A    between atoms: C_13  and  C_14 
REMARK    9  A    between atoms: C_14  and  O_15 
REMARK   10  A    between atoms: C_17  and  O_18 
REMARK   11  A    between atoms: C_20  and  C_21 
REMARK       I    between atoms: C_30  and  N_32 
ROOT
HETATM    1  C   UNK N   1      27.735  17.696   5.999  0.00  0.00     0.028 A 
HETATM    2  C   UNK N   1      28.152  18.150   7.250  0.00  0.00     0.030 A 
HETATM    3  C   UNK N   1      29.453  17.924   7.686  0.00  0.00     0.019 A 
HETATM    4  C   UNK N   1      30.356  17.228   6.877  0.00  0.00     0.032 A 
HETATM    5  C   UNK N   1      29.948  16.796   5.600  0.00  0.00     0.019 A 
HETATM    6  C   UNK N   1      28.641  17.042   5.154  0.00  0.00     0.030 A 
ENDROOT
BRANCH   1   7
HETATM    7  N   UNK N   1      26.383  17.888   5.648  0.00  0.00    -0.388 N 
HETATM    8  H   UNK N   1      25.756  17.154   5.841  0.00  0.00     0.159 HD
BRANCH   7   9
HETATM    9  C   UNK N   1      25.849  19.070   5.027  0.00  0.00     0.146 C 
BRANCH   9  10
HETATM   10  C   UNK N   1      24.387  18.766   4.685  0.00  0.00     0.119 C 
HETATM   11  C   UNK N   1      24.140  17.319   4.281  0.00  0.00     0.148 C 
HETATM   12  N   UNK N   1      22.717  17.113   4.081  0.00  0.00    -0.372 N 
HETATM   13  C   UNK N   1      21.892  18.138   3.537  0.00  0.00     0.149 A 
HETATM   14  H   UNK N   1      22.314  16.249   4.326  0.00  0.00     0.161 HD
HETATM   15  C   UNK N   1      22.423  19.420   3.323  0.00  0.00     0.144 A 
HETATM   16  N   UNK N   1      20.609  17.866   3.185  0.00  0.00    -0.175 N 
HETATM   17  C   UNK N   1      21.590  20.392   2.733  0.00  0.00     0.290 A 
HETATM   18  N   UNK N   1      23.775  19.671   3.709  0.00  0.00    -0.370 N 
HETATM   19  O   UNK N   1      21.986  21.529   2.535  0.00  0.00    -0.265 OA
HETATM   20  N   UNK N   1      20.306  20.066   2.396  0.00  0.00    -0.154 N 
HETATM   21  C   UNK N   1      19.819  18.817   2.620  0.00  0.00     0.680 A 
ATOM     22  HN  UNK N   1      19.704  20.770   1.969  1.00  0.00     0.187 HD
HETATM   23  N   UNK N   1      18.496  18.507   2.256  0.00  0.00    -0.234 N 
HETATM   24  H   UNK N   1      17.903  19.208   1.900  0.00  0.00     0.174 HD
HETATM   25  H   UNK N   1      18.162  17.586   2.356  0.00  0.00     0.174 HD
HETATM   26  C   UNK N   1      24.509  20.780   3.135  0.00  0.00     0.150 C 
HETATM   27  H   UNK N   1      20.246  16.964   3.342  0.00  0.00     0.186 HD
ENDBRANCH   9  10
ENDBRANCH   7   9
ENDBRANCH   1   7
BRANCH   4  28
HETATM   28  C   UNK N   1      31.654  16.803   7.442  0.00  0.00     0.252 C 
HETATM   29  O   UNK N   1      32.314  15.949   6.866  0.00  0.00    -0.268 OA
HETATM   30  N   UNK N   1      32.160  17.463   8.513  0.00  0.00    -0.343 N 
HETATM   31  H   UNK N   1      31.536  18.009   9.044  0.00  0.00     0.163 HD
BRANCH  30  32
HETATM   32  C   UNK N   1      33.547  17.430   8.941  0.00  0.00     0.183 C 
BRANCH  32  33
HETATM   33  C   UNK N   1      33.966  15.977   9.036  0.00  0.00     0.046 C 
BRANCH  33  34
HETATM   34  C   UNK N   1      34.614  15.706  10.380  0.00  0.00     0.112 C 
BRANCH  34  35
HETATM   35  C   UNK N   1      36.068  15.422  10.193  0.00  0.00     0.139 C 
HETATM   36  O   UNK N   1      36.426  14.528   9.444  0.00  0.00    -0.650 OA
BRANCH  35  37
HETATM   37  O   UNK N   1      36.985  16.135  10.872  0.00  0.00    -0.776 OA
HETATM   38  H   UNK N   1      36.996  17.071  10.828  0.00  0.00     0.167 HD
ENDBRANCH  35  37
ENDBRANCH  34  35
ENDBRANCH  33  34
ENDBRANCH  32  33
BRANCH  32  39
HETATM   39  C   UNK N   1      34.533  18.208   8.105  0.00  0.00     0.163 C 
HETATM   40  O   UNK N   1      35.273  19.038   8.605  0.00  0.00    -0.648 OA
BRANCH  39  41
HETATM   41  O   UNK N   1      34.604  17.969   6.781  0.00  0.00    -0.775 OA
HETATM   42  H   UNK N   1      35.368  17.602   6.382  0.00  0.00     0.167 HD
ENDBRANCH  39  41
ENDBRANCH  32  39
ENDBRANCH  30  32
ENDBRANCH   4  28
TORSDOF 11
ENDMDL
MODEL 4
REMARK VINA RESULT:      -8.2      1.611      2.208
REMARK  11 active torsions:
REMARK  status: ('A' for Active; 'I' for Inactive)
REMARK    1  A    between atoms: N_1  and  C_2 
REMARK    2  A    between atoms: N_1  and  C_20 
REMARK    3  A    between atoms: C_5  and  C_8 
REMARK       I    between atoms: C_8  and  N_10 
REMARK    4  A    between atoms: C_11  and  N_10 
REMARK    5  A    between atoms: C_11  and  C_12 
REMARK    6  A    between atoms: C_11  and  C_17 
REMARK    7  A    between atoms: C_12  and  C_13 
REMARK    8  A    between atoms: C_13  and  C_14 
REMARK    9  A    between atoms: C_14  and  O_15 
REMARK   10  A    between atoms: C_17  and  O_18 
REMARK   11  A    between atoms: C_20  and  C_21 
REMARK       I    between atoms: C_30  and  N_32 
ROOT
HETATM    1  C   UNK N   1      27.807  18.765   5.322  0.00  0.00     0.028 A 
HETATM    2  C   UNK N   1      27.008  17.839   4.652  0.00  0.00     0.030 A 
HETATM    3  C   UNK N   1      25.910  18.258   3.910  0.00  0.00     0.019 A 
HETATM    4  C   UNK N   1      25.587  19.616   3.836  0.00  0.00     0.032 A 
HETATM    5  C   UNK N   1      26.410  20.558   4.485  0.00  0.00     0.019 A 
HETATM    6  C   UNK N   1      27.529  20.135   5.217  0.00  0.00     0.030 A 
ENDROOT
BRANCH   1   7
HETATM    7  N   UNK N   1      28.858  18.271   6.121  0.00  0.00    -0.388 N 
HETATM    8  H   UNK N   1      28.810  18.440   7.089  0.00  0.00     0.159 HD
BRANCH   7   9
HETATM    9  C   UNK N   1      29.997  17.541   5.631  0.00  0.00     0.146 C 
BRANCH   9  10
HETATM   10  C   UNK N   1      30.595  16.801   6.832  0.00  0.00     0.119 C 
HETATM   11  C   UNK N   1      30.238  17.423   8.175  0.00  0.00     0.148 C 
HETATM   12  N   UNK N   1      30.764  16.592   9.243  0.00  0.00    -0.372 N 
HETATM   13  C   UNK N   1      32.002  15.905   9.102  0.00  0.00     0.149 A 
HETATM   14  H   UNK N   1      30.255  16.501  10.081  0.00  0.00     0.161 HD
HETATM   15  C   UNK N   1      32.663  15.906   7.863  0.00  0.00     0.144 A 
HETATM   16  N   UNK N   1      32.566  15.288  10.172  0.00  0.00    -0.175 N 
HETATM   17  C   UNK N   1      33.913  15.260   7.778  0.00  0.00     0.290 A 
HETATM   18  N   UNK N   1      32.039  16.561   6.758  0.00  0.00    -0.370 N 
HETATM   19  O   UNK N   1      34.530  15.212   6.727  0.00  0.00    -0.265 OA
HETATM   20  N   UNK N   1      34.436  14.655   8.886  0.00  0.00    -0.154 N 
HETATM   21  C   UNK N   1      33.771  14.667  10.071  0.00  0.00     0.680 A 
ATOM     22  HN  UNK N   1      35.341  14.187   8.824  1.00  0.00     0.187 HD
HETATM   23  N   UNK N   1      34.338  14.043  11.198  0.00  0.00    -0.234 N 
HETATM   24  H   UNK N   1      35.182  13.543  11.114  0.00  0.00     0.174 HD
HETATM   25  H   UNK N   1      33.889  14.107  12.072  0.00  0.00     0.174 HD
HETATM   26  C   UNK N   1      32.823  16.982   5.615  0.00  0.00     0.150 C 
HETATM   27  H   UNK N   1      32.093  15.291  11.036  0.00  0.00     0.186 HD
ENDBRANCH   9  10
ENDBRANCH   7   9
ENDBRANCH   1   7
BRANCH   4  28
HETATM   28  C   UNK N   1      24.299  20.022   3.235  0.00  0.00     0.252 C 
HETATM   29  O   UNK N   1      24.291  20.791   2.283  0.00  0.00    -0.268 OA
HETATM   30  N   UNK N   1      23.154  19.429   3.656  0.00  0.00    -0.343 N 
HETATM   31  H   UNK N   1      23.179  18.960   4.521  0.00  0.00     0.163 HD
BRANCH  30  32
HETATM   32  C   UNK N   1      21.895  19.429   2.933  0.00  0.00     0.183 C 
BRANCH  32  33
HETATM   33  C   UNK N   1      21.104  18.218   3.385  0.00  0.00     0.046 C 
BRANCH  33  34
HETATM   34  C   UNK N   1      21.873  17.458   4.448  0.00  0.00     0.112 C 
BRANCH  34  35
HETATM   35  C   UNK N   1      21.223  17.650   5.778  0.00  0.00     0.139 C 
HETATM   36  O   UNK N   1      21.575  18.563   6.507  0.00  0.00    -0.650 OA
BRANCH  35  37
HETATM   37  O   UNK N   1      20.265  16.798   6.187  0.00  0.00    -0.776 OA
HETATM   38  H   UNK N   1      20.447  15.885   6.298  0.00  0.00     0.167 HD
ENDBRANCH  35  37
ENDBRANCH  34  35
ENDBRANCH  33  34
ENDBRANCH  32  33
BRANCH  32  39
HETATM   39  C   UNK N   1      21.052  20.676   3.037  0.00  0.00     0.163 C 
HETATM   40  O   UNK N   1      20.202  20.797   3.903  0.00  0.00    -0.648 OA
BRANCH  39  41
HETATM   41  O   UNK N   1      21.255  21.680   2.161  0.00  0.00    -0.775 OA
HETATM   42  H   UNK N   1      20.972  22.556   2.335  0.00  0.00     0.167 HD
ENDBRANCH  39  41
ENDBRANCH  32  39
ENDBRANCH  30  32
ENDBRANCH   4  28
TORSDOF 11
ENDMDL
MODEL 5
REMARK VINA RESULT:      -8.0      2.347     11.338
REMARK  11 active torsions:
REMARK  status: ('A' for Active; 'I' for Inactive)
REMARK    1  A    between atoms: N_1  and  C_2 
REMARK    2  A    between atoms: N_1  and  C_20 
REMARK    3  A    between atoms: C_5  and  C_8 
REMARK       I    between atoms: C_8  and  N_10 
REMARK    4  A    between atoms: C_11  and  N_10 
REMARK    5  A    between atoms: C_11  and  C_12 
REMARK    6  A    between atoms: C_11  and  C_17 
REMARK    7  A    between atoms: C_12  and  C_13 
REMARK    8  A    between atoms: C_13  and  C_14 
REMARK    9  A    between atoms: C_14  and  O_15 
REMARK   10  A    between atoms: C_17  and  O_18 
REMARK   11  A    between atoms: C_20  and  C_21 
REMARK       I    between atoms: C_30  and  N_32 
ROOT
HETATM    1  C   UNK N   1      27.864  18.890   6.797  0.00  0.00     0.028 A 
HETATM    2  C   UNK N   1      28.650  18.055   6.004  0.00  0.00     0.030 A 
HETATM    3  C   UNK N   1      29.758  17.409   6.538  0.00  0.00     0.019 A 
HETATM    4  C   UNK N   1      30.105  17.598   7.879  0.00  0.00     0.032 A 
HETATM    5  C   UNK N   1      29.296  18.416   8.693  0.00  0.00     0.019 A 
HETATM    6  C   UNK N   1      28.167  19.051   8.156  0.00  0.00     0.030 A 
ENDROOT
BRANCH   1   7
HETATM    7  N   UNK N   1      26.801  19.578   6.178  0.00  0.00    -0.388 N 
HETATM    8  H   UNK N   1      26.275  20.195   6.734  0.00  0.00     0.159 HD
BRANCH   7   9
HETATM    9  C   UNK N   1      26.424  19.445   4.796  0.00  0.00     0.146 C 
BRANCH   9  10
HETATM   10  C   UNK N   1      25.056  18.756   4.777  0.00  0.00     0.119 C 
HETATM   11  C   UNK N   1      25.125  17.265   4.478  0.00  0.00     0.148 C 
HETATM   12  N   UNK N   1      23.795  16.692   4.586  0.00  0.00    -0.372 N 
HETATM   13  C   UNK N   1      22.640  17.428   4.196  0.00  0.00     0.149 A 
HETATM   14  H   UNK N   1      23.689  15.778   4.937  0.00  0.00     0.161 HD
HETATM   15  C   UNK N   1      22.764  18.779   3.836  0.00  0.00     0.144 A 
HETATM   16  N   UNK N   1      21.432  16.813   4.128  0.00  0.00    -0.175 N 
HETATM   17  C   UNK N   1      21.606  19.458   3.403  0.00  0.00     0.290 A 
HETATM   18  N   UNK N   1      24.050  19.393   3.923  0.00  0.00    -0.370 N 
HETATM   19  O   UNK N   1      21.643  20.636   3.092  0.00  0.00    -0.265 OA
HETATM   20  N   UNK N   1      20.413  18.792   3.353  0.00  0.00    -0.154 N 
HETATM   21  C   UNK N   1      20.325  17.485   3.712  0.00  0.00     0.680 A 
ATOM     22  HN  UNK N   1      19.576  19.284   3.040  1.00  0.00     0.187 HD
HETATM   23  N   UNK N   1      19.085  16.822   3.642  0.00  0.00    -0.234 N 
HETATM   24  H   UNK N   1      18.272  17.320   3.396  0.00  0.00     0.174 HD
HETATM   25  H   UNK N   1      19.032  15.859   3.838  0.00  0.00     0.174 HD
HETATM   26  C   UNK N   1      24.341  20.598   3.174  0.00  0.00     0.150 C 
HETATM   27  H   UNK N   1      21.356  15.866   4.385  0.00  0.00     0.186 HD
ENDBRANCH   9  10
ENDBRANCH   7   9
ENDBRANCH   1   7
BRANCH   4  28
HETATM   28  C   UNK N   1      31.402  17.088   8.369  0.00  0.00     0.252 C 
HETATM   29  O   UNK N   1      31.457  15.992   8.910  0.00  0.00    -0.268 OA
HETATM   30  N   UNK N   1      32.536  17.779   8.090  0.00  0.00    -0.343 N 
HETATM   31  H   UNK N   1      32.437  18.720   7.818  0.00  0.00     0.163 HD
BRANCH  30  32
HETATM   32  C   UNK N   1      33.883  17.243   8.160  0.00  0.00     0.183 C 
BRANCH  32  33
HETATM   33  C   UNK N   1      34.336  16.946   6.744  0.00  0.00     0.046 C 
BRANCH  33  34
HETATM   34  C   UNK N   1      34.445  15.449   6.533  0.00  0.00     0.112 C 
BRANCH  34  35
HETATM   35  C   UNK N   1      33.197  14.935   5.894  0.00  0.00     0.139 C 
HETATM   36  O   UNK N   1      32.979  15.153   4.713  0.00  0.00    -0.650 OA
BRANCH  35  37
HETATM   37  O   UNK N   1      32.298  14.252   6.626  0.00  0.00    -0.776 OA
HETATM   38  H   UNK N   1      32.569  13.728   7.354  0.00  0.00     0.167 HD
ENDBRANCH  35  37
ENDBRANCH  34  35
ENDBRANCH  33  34
ENDBRANCH  32  33
BRANCH  32  39
HETATM   39  C   UNK N   1      34.912  18.084   8.875  0.00  0.00     0.163 C 
HETATM   40  O   UNK N   1      35.256  19.171   8.442  0.00  0.00    -0.648 OA
BRANCH  39  41
HETATM   41  O   UNK N   1      35.451  17.626  10.023  0.00  0.00    -0.775 OA
HETATM   42  H   UNK N   1      36.026  18.150  10.545  0.00  0.00     0.167 HD
ENDBRANCH  39  41
ENDBRANCH  32  39
ENDBRANCH  30  32
ENDBRANCH   4  28
TORSDOF 11
ENDMDL
MODEL 6
REMARK VINA RESULT:      -7.5      2.376     11.956
REMARK  11 active torsions:
REMARK  status: ('A' for Active; 'I' for Inactive)
REMARK    1  A    between atoms: N_1  and  C_2 
REMARK    2  A    between atoms: N_1  and  C_20 
REMARK    3  A    between atoms: C_5  and  C_8 
REMARK       I    between atoms: C_8  and  N_10 
REMARK    4  A    between atoms: C_11  and  N_10 
REMARK    5  A    between atoms: C_11  and  C_12 
REMARK    6  A    between atoms: C_11  and  C_17 
REMARK    7  A    between atoms: C_12  and  C_13 
REMARK    8  A    between atoms: C_13  and  C_14 
REMARK    9  A    between atoms: C_14  and  O_15 
REMARK   10  A    between atoms: C_17  and  O_18 
REMARK   11  A    between atoms: C_20  and  C_21 
REMARK       I    between atoms: C_30  and  N_32 
ROOT
HETATM    1  C   UNK N   1      27.992  17.297   5.416  0.00  0.00     0.028 A 
HETATM    2  C   UNK N   1      28.245  15.984   5.018  0.00  0.00     0.030 A 
HETATM    3  C   UNK N   1      29.357  15.302   5.497  0.00  0.00     0.019 A 
HETATM    4  C   UNK N   1      30.243  15.929   6.378  0.00  0.00     0.032 A 
HETATM    5  C   UNK N   1      29.974  17.243   6.808  0.00  0.00     0.019 A 
HETATM    6  C   UNK N   1      28.841  17.924   6.339  0.00  0.00     0.030 A 
ENDROOT
BRANCH   1   7
HETATM    7  N   UNK N   1      26.892  17.960   4.835  0.00  0.00    -0.388 N 
HETATM    8  H   UNK N   1      27.077  18.576   4.090  0.00  0.00     0.159 HD
BRANCH   7   9
HETATM    9  C   UNK N   1      25.522  17.809   5.246  0.00  0.00     0.146 C 
BRANCH   9  10
HETATM   10  C   UNK N   1      24.669  18.554   4.215  0.00  0.00     0.119 C 
HETATM   11  C   UNK N   1      25.077  20.007   4.017  0.00  0.00     0.148 C 
HETATM   12  N   UNK N   1      24.279  20.588   2.952  0.00  0.00    -0.372 N 
HETATM   13  C   UNK N   1      22.918  20.216   2.762  0.00  0.00     0.149 A 
HETATM   14  H   UNK N   1      24.686  21.252   2.349  0.00  0.00     0.161 HD
HETATM   15  C   UNK N   1      22.371  19.166   3.517  0.00  0.00     0.144 A 
HETATM   16  N   UNK N   1      22.139  20.902   1.887  0.00  0.00    -0.175 N 
HETATM   17  C   UNK N   1      21.006  18.863   3.339  0.00  0.00     0.290 A 
HETATM   18  N   UNK N   1      23.221  18.464   4.424  0.00  0.00    -0.370 N 
HETATM   19  O   UNK N   1      20.475  17.953   3.952  0.00  0.00    -0.265 OA
HETATM   20  N   UNK N   1      20.266  19.586   2.445  0.00  0.00    -0.154 N 
HETATM   21  C   UNK N   1      20.825  20.594   1.726  0.00  0.00     0.680 A 
ATOM     22  HN  UNK N   1      19.278  19.366   2.316  1.00  0.00     0.187 HD
HETATM   23  N   UNK N   1      20.037  21.327   0.819  0.00  0.00    -0.234 N 
HETATM   24  H   UNK N   1      19.100  21.069   0.657  0.00  0.00     0.174 HD
HETATM   25  H   UNK N   1      20.423  22.099   0.345  0.00  0.00     0.174 HD
HETATM   26  C   UNK N   1      22.657  17.704   5.521  0.00  0.00     0.150 C 
HETATM   27  H   UNK N   1      22.534  21.635   1.361  0.00  0.00     0.186 HD
ENDBRANCH   9  10
ENDBRANCH   7   9
ENDBRANCH   1   7
BRANCH   4  28
HETATM   28  C   UNK N   1      31.528  15.275   6.699  0.00  0.00     0.252 C 
HETATM   29  O   UNK N   1      32.222  14.827   5.796  0.00  0.00    -0.268 OA
HETATM   30  N   UNK N   1      31.988  15.304   7.975  0.00  0.00    -0.343 N 
HETATM   31  H   UNK N   1      31.338  15.509   8.685  0.00  0.00     0.163 HD
BRANCH  30  32
HETATM   32  C   UNK N   1      33.360  15.057   8.378  0.00  0.00     0.183 C 
BRANCH  32  33
HETATM   33  C   UNK N   1      33.814  16.235   9.216  0.00  0.00     0.046 C 
BRANCH  33  34
HETATM   34  C   UNK N   1      33.263  17.527   8.644  0.00  0.00     0.112 C 
BRANCH  34  35
HETATM   35  C   UNK N   1      34.318  18.220   7.848  0.00  0.00     0.139 C 
HETATM   36  O   UNK N   1      35.017  19.074   8.368  0.00  0.00    -0.650 OA
BRANCH  35  37
HETATM   37  O   UNK N   1      34.484  17.921   6.546  0.00  0.00    -0.776 OA
HETATM   38  H   UNK N   1      33.989  17.234   6.143  0.00  0.00     0.167 HD
ENDBRANCH  35  37
ENDBRANCH  34  35
ENDBRANCH  33  34
ENDBRANCH  32  33
BRANCH  32  39
HETATM   39  C   UNK N   1      33.633  13.762   9.102  0.00  0.00     0.163 C 
HETATM   40  O   UNK N   1      34.683  13.574   9.693  0.00  0.00    -0.648 OA
BRANCH  39  41
HETATM   41  O   UNK N   1      32.689  12.799   9.103  0.00  0.00    -0.775 OA
HETATM   42  H   UNK N   1      32.056  12.723   8.417  0.00  0.00     0.167 HD
ENDBRANCH  39  41
ENDBRANCH  32  39
ENDBRANCH  30  32
ENDBRANCH   4  28
TORSDOF 11
ENDMDL
MODEL 7
REMARK VINA RESULT:      -7.3      2.463     12.135
REMARK  11 active torsions:
REMARK  status: ('A' for Active; 'I' for Inactive)
REMARK    1  A    between atoms: N_1  and  C_2 
REMARK    2  A    between atoms: N_1  and  C_20 
REMARK    3  A    between atoms: C_5  and  C_8 
REMARK       I    between atoms: C_8  and  N_10 
REMARK    4  A    between atoms: C_11  and  N_10 
REMARK    5  A    between atoms: C_11  and  C_12 
REMARK    6  A    between atoms: C_11  and  C_17 
REMARK    7  A    between atoms: C_12  and  C_13 
REMARK    8  A    between atoms: C_13  and  C_14 
REMARK    9  A    between atoms: C_14  and  O_15 
REMARK   10  A    between atoms: C_17  and  O_18 
REMARK   11  A    between atoms: C_20  and  C_21 
REMARK       I    between atoms: C_30  and  N_32 
ROOT
HETATM    1  C   UNK N   1      29.298  17.768   7.039  0.00  0.00     0.028 A 
HETATM    2  C   UNK N   1      29.910  16.943   6.096  0.00  0.00     0.030 A 
HETATM    3  C   UNK N   1      31.190  16.447   6.314  0.00  0.00     0.019 A 
HETATM    4  C   UNK N   1      31.885  16.780   7.480  0.00  0.00     0.032 A 
HETATM    5  C   UNK N   1      31.259  17.586   8.451  0.00  0.00     0.019 A 
HETATM    6  C   UNK N   1      29.959  18.069   8.238  0.00  0.00     0.030 A 
ENDROOT
BRANCH   1   7
HETATM    7  N   UNK N   1      28.032  18.301   6.725  0.00  0.00    -0.388 N 
HETATM    8  H   UNK N   1      27.308  18.165   7.376  0.00  0.00     0.159 HD
BRANCH   7   9
HETATM    9  C   UNK N   1      27.716  19.029   5.524  0.00  0.00     0.146 C 
BRANCH   9  10
HETATM   10  C   UNK N   1      26.206  18.884   5.307  0.00  0.00     0.119 C 
HETATM   11  C   UNK N   1      25.719  17.442   5.329  0.00  0.00     0.148 C 
HETATM   12  N   UNK N   1      24.272  17.423   5.219  0.00  0.00    -0.372 N 
HETATM   13  C   UNK N   1      23.579  18.380   4.424  0.00  0.00     0.149 A 
HETATM   14  H   UNK N   1      23.759  16.737   5.704  0.00  0.00     0.161 HD
HETATM   15  C   UNK N   1      24.284  19.449   3.849  0.00  0.00     0.144 A 
HETATM   16  N   UNK N   1      22.251  18.233   4.184  0.00  0.00    -0.175 N 
HETATM   17  C   UNK N   1      23.573  20.344   3.024  0.00  0.00     0.290 A 
HETATM   18  N   UNK N   1      25.679  19.574   4.126  0.00  0.00    -0.370 N 
HETATM   19  O   UNK N   1      24.124  21.302   2.508  0.00  0.00    -0.265 OA
HETATM   20  N   UNK N   1      22.236  20.151   2.814  0.00  0.00    -0.154 N 
HETATM   21  C   UNK N   1      21.581  19.108   3.388  0.00  0.00     0.680 A 
ATOM     22  HN  UNK N   1      21.722  20.799   2.217  1.00  0.00     0.187 HD
HETATM   23  N   UNK N   1      20.205  18.929   3.148  0.00  0.00    -0.234 N 
HETATM   24  H   UNK N   1      19.705  19.592   2.619  0.00  0.00     0.174 HD
HETATM   25  H   UNK N   1      19.743  18.138   3.509  0.00  0.00     0.174 HD
HETATM   26  C   UNK N   1      26.536  20.347   3.251  0.00  0.00     0.150 C 
HETATM   27  H   UNK N   1      21.766  17.481   4.594  0.00  0.00     0.186 HD
ENDBRANCH   9  10
ENDBRANCH   7   9
ENDBRANCH   1   7
BRANCH   4  28
HETATM   28  C   UNK N   1      33.317  16.432   7.593  0.00  0.00     0.252 C 
HETATM   29  O   UNK N   1      34.163  17.309   7.486  0.00  0.00    -0.268 OA
HETATM   30  N   UNK N   1      33.668  15.172   7.952  0.00  0.00    -0.343 N 
HETATM   31  H   UNK N   1      32.986  14.468   7.857  0.00  0.00     0.163 HD
BRANCH  30  32
HETATM   32  C   UNK N   1      34.967  14.777   8.466  0.00  0.00     0.183 C 
BRANCH  32  33
HETATM   33  C   UNK N   1      34.769  14.270   9.880  0.00  0.00     0.046 C 
BRANCH  33  34
HETATM   34  C   UNK N   1      34.598  15.436  10.834  0.00  0.00     0.112 C 
BRANCH  34  35
HETATM   35  C   UNK N   1      35.700  16.423  10.632  0.00  0.00     0.139 C 
HETATM   36  O   UNK N   1      36.856  16.105  10.856  0.00  0.00    -0.650 OA
BRANCH  35  37
HETATM   37  O   UNK N   1      35.416  17.674  10.225  0.00  0.00    -0.776 OA
HETATM   38  H   UNK N   1      35.791  18.417  10.656  0.00  0.00     0.167 HD
ENDBRANCH  35  37
ENDBRANCH  34  35
ENDBRANCH  33  34
ENDBRANCH  32  33
BRANCH  32  39
HETATM   39  C   UNK N   1      35.742  13.772   7.651  0.00  0.00     0.163 C 
HETATM   40  O   UNK N   1      36.261  12.798   8.170  0.00  0.00    -0.648 OA
BRANCH  39  41
HETATM   41  O   UNK N   1      35.851  13.950   6.319  0.00  0.00    -0.775 OA
HETATM   42  H   UNK N   1      35.893  13.228   5.723  0.00  0.00     0.167 HD
ENDBRANCH  39  41
ENDBRANCH  32  39
ENDBRANCH  30  32
ENDBRANCH   4  28
TORSDOF 11
ENDMDL
MODEL 8
REMARK VINA RESULT:      -7.3      2.586     11.256
REMARK  11 active torsions:
REMARK  status: ('A' for Active; 'I' for Inactive)
REMARK    1  A    between atoms: N_1  and  C_2 
REMARK    2  A    between atoms: N_1  and  C_20 
REMARK    3  A    between atoms: C_5  and  C_8 
REMARK       I    between atoms: C_8  and  N_10 
REMARK    4  A    between atoms: C_11  and  N_10 
REMARK    5  A    between atoms: C_11  and  C_12 
REMARK    6  A    between atoms: C_11  and  C_17 
REMARK    7  A    between atoms: C_12  and  C_13 
REMARK    8  A    between atoms: C_13  and  C_14 
REMARK    9  A    between atoms: C_14  and  O_15 
REMARK   10  A    between atoms: C_17  and  O_18 
REMARK   11  A    between atoms: C_20  and  C_21 
REMARK       I    between atoms: C_30  and  N_32 
ROOT
HETATM    1  C   UNK N   1      26.849  15.941   5.236  0.00  0.00     0.028 A 
HETATM    2  C   UNK N   1      27.661  14.879   4.839  0.00  0.00     0.030 A 
HETATM    3  C   UNK N   1      28.951  14.749   5.339  0.00  0.00     0.019 A 
HETATM    4  C   UNK N   1      29.455  15.691   6.242  0.00  0.00     0.032 A 
HETATM    5  C   UNK N   1      28.627  16.747   6.671  0.00  0.00     0.019 A 
HETATM    6  C   UNK N   1      27.318  16.865   6.179  0.00  0.00     0.030 A 
ENDROOT
BRANCH   1   7
HETATM    7  N   UNK N   1      25.580  16.060   4.633  0.00  0.00    -0.388 N 
HETATM    8  H   UNK N   1      25.487  15.742   3.707  0.00  0.00     0.159 HD
BRANCH   7   9
HETATM    9  C   UNK N   1      24.413  16.613   5.266  0.00  0.00     0.146 C 
BRANCH   9  10
HETATM   10  C   UNK N   1      23.820  17.629   4.284  0.00  0.00     0.119 C 
HETATM   11  C   UNK N   1      24.372  19.038   4.453  0.00  0.00     0.148 C 
HETATM   12  N   UNK N   1      23.827  19.893   3.414  0.00  0.00    -0.372 N 
HETATM   13  C   UNK N   1      22.497  19.719   2.936  0.00  0.00     0.149 A 
HETATM   14  H   UNK N   1      24.386  20.607   3.032  0.00  0.00     0.161 HD
HETATM   15  C   UNK N   1      21.741  18.616   3.365  0.00  0.00     0.144 A 
HETATM   16  N   UNK N   1      21.944  20.640   2.105  0.00  0.00    -0.175 N 
HETATM   17  C   UNK N   1      20.410  18.508   2.912  0.00  0.00     0.290 A 
HETATM   18  N   UNK N   1      22.356  17.666   4.236  0.00  0.00    -0.370 N 
HETATM   19  O   UNK N   1      19.707  17.566   3.236  0.00  0.00    -0.265 OA
HETATM   20  N   UNK N   1      19.903  19.464   2.077  0.00  0.00    -0.154 N 
HETATM   21  C   UNK N   1      20.660  20.518   1.676  0.00  0.00     0.680 A 
ATOM     22  HN  UNK N   1      18.940  19.385   1.750  1.00  0.00     0.187 HD
HETATM   23  N   UNK N   1      20.108  21.491   0.822  0.00  0.00    -0.234 N 
HETATM   24  H   UNK N   1      19.199  21.376   0.463  0.00  0.00     0.174 HD
HETATM   25  H   UNK N   1      20.634  22.289   0.583  0.00  0.00     0.174 HD
HETATM   26  C   UNK N   1      21.545  16.784   5.050  0.00  0.00     0.150 C 
HETATM   27  H   UNK N   1      22.484  21.409   1.809  0.00  0.00     0.186 HD
ENDBRANCH   9  10
ENDBRANCH   7   9
ENDBRANCH   1   7
BRANCH   4  28
HETATM   28  C   UNK N   1      30.891  15.666   6.588  0.00  0.00     0.252 C 
HETATM   29  O   UNK N   1      31.472  14.593   6.681  0.00  0.00    -0.268 OA
HETATM   30  N   UNK N   1      31.577  16.833   6.661  0.00  0.00    -0.343 N 
HETATM   31  H   UNK N   1      31.053  17.661   6.755  0.00  0.00     0.163 HD
BRANCH  30  32
HETATM   32  C   UNK N   1      33.022  16.962   6.612  0.00  0.00     0.183 C 
BRANCH  32  33
HETATM   33  C   UNK N   1      33.381  17.639   5.305  0.00  0.00     0.046 C 
BRANCH  33  34
HETATM   34  C   UNK N   1      33.180  16.680   4.147  0.00  0.00     0.112 C 
BRANCH  34  35
HETATM   35  C   UNK N   1      32.080  17.172   3.266  0.00  0.00     0.139 C 
HETATM   36  O   UNK N   1      32.138  17.001   2.059  0.00  0.00    -0.650 OA
BRANCH  35  37
HETATM   37  O   UNK N   1      31.034  17.828   3.801  0.00  0.00    -0.776 OA
HETATM   38  H   UNK N   1      31.128  18.323   4.591  0.00  0.00     0.167 HD
ENDBRANCH  35  37
ENDBRANCH  34  35
ENDBRANCH  33  34
ENDBRANCH  32  33
BRANCH  32  39
HETATM   39  C   UNK N   1      33.681  17.671   7.769  0.00  0.00     0.163 C 
HETATM   40  O   UNK N   1      34.649  18.394   7.603  0.00  0.00    -0.648 OA
BRANCH  39  41
HETATM   41  O   UNK N   1      33.178  17.511   9.009  0.00  0.00    -0.775 OA
HETATM   42  H   UNK N   1      32.609  18.144   9.401  0.00  0.00     0.167 HD
ENDBRANCH  39  41
ENDBRANCH  32  39
ENDBRANCH  30  32
ENDBRANCH   4  28
TORSDOF 11
ENDMDL
MODEL 9
REMARK VINA RESULT:      -7.3      1.695      2.615
REMARK  11 active torsions:
REMARK  status: ('A' for Active; 'I' for Inactive)
REMARK    1  A    between atoms: N_1  and  C_2 
REMARK    2  A    between atoms: N_1  and  C_20 
REMARK    3  A    between atoms: C_5  and  C_8 
REMARK       I    between atoms: C_8  and  N_10 
REMARK    4  A    between atoms: C_11  and  N_10 
REMARK    5  A    between atoms: C_11  and  C_12 
REMARK    6  A    between atoms: C_11  and  C_17 
REMARK    7  A    between atoms: C_12  and  C_13 
REMARK    8  A    between atoms: C_13  and  C_14 
REMARK    9  A    between atoms: C_14  and  O_15 
REMARK   10  A    between atoms: C_17  and  O_18 
REMARK   11  A    between atoms: C_20  and  C_21 
REMARK       I    between atoms: C_30  and  N_32 
ROOT
HETATM    1  C   UNK N   1      27.632  18.861   5.298  0.00  0.00     0.028 A 
HETATM    2  C   UNK N   1      26.626  17.945   4.992  0.00  0.00     0.030 A 
HETATM    3  C   UNK N   1      25.523  18.331   4.237  0.00  0.00     0.019 A 
HETATM    4  C   UNK N   1      25.405  19.649   3.786  0.00  0.00     0.032 A 
HETATM    5  C   UNK N   1      26.435  20.569   4.066  0.00  0.00     0.019 A 
HETATM    6  C   UNK N   1      27.555  20.173   4.810  0.00  0.00     0.030 A 
ENDROOT
BRANCH   1   7
HETATM    7  N   UNK N   1      28.683  18.429   6.132  0.00  0.00    -0.388 N 
HETATM    8  H   UNK N   1      29.380  19.085   6.359  0.00  0.00     0.159 HD
BRANCH   7   9
HETATM    9  C   UNK N   1      28.817  17.104   6.675  0.00  0.00     0.146 C 
BRANCH   9  10
HETATM   10  C   UNK N   1      30.216  16.611   6.291  0.00  0.00     0.119 C 
HETATM   11  C   UNK N   1      30.222  15.243   5.622  0.00  0.00     0.148 C 
HETATM   12  N   UNK N   1      31.575  14.918   5.208  0.00  0.00    -0.372 N 
HETATM   13  C   UNK N   1      32.701  15.320   5.981  0.00  0.00     0.149 A 
HETATM   14  H   UNK N   1      31.718  14.412   4.376  0.00  0.00     0.161 HD
HETATM   15  C   UNK N   1      32.520  16.167   7.086  0.00  0.00     0.144 A 
HETATM   16  N   UNK N   1      33.938  14.849   5.680  0.00  0.00    -0.175 N 
HETATM   17  C   UNK N   1      33.652  16.498   7.859  0.00  0.00     0.290 A 
HETATM   18  N   UNK N   1      31.206  16.646   7.371  0.00  0.00    -0.370 N 
HETATM   19  O   UNK N   1      33.566  17.241   8.822  0.00  0.00    -0.265 OA
HETATM   20  N   UNK N   1      34.876  15.996   7.512  0.00  0.00    -0.154 N 
HETATM   21  C   UNK N   1      35.019  15.181   6.435  0.00  0.00     0.680 A 
ATOM     22  HN  UNK N   1      35.694  16.236   8.072  1.00  0.00     0.187 HD
HETATM   23  N   UNK N   1      36.290  14.672   6.106  0.00  0.00    -0.234 N 
HETATM   24  H   UNK N   1      37.083  14.957   6.615  0.00  0.00     0.174 HD
HETATM   25  H   UNK N   1      36.385  14.030   5.366  0.00  0.00     0.174 HD
HETATM   26  C   UNK N   1      30.872  17.133   8.694  0.00  0.00     0.150 C 
HETATM   27  H   UNK N   1      34.054  14.257   4.902  0.00  0.00     0.186 HD
ENDBRANCH   9  10
ENDBRANCH   7   9
ENDBRANCH   1   7
BRANCH   4  28
HETATM   28  C   UNK N   1      24.132  20.095   3.184  0.00  0.00     0.252 C 
HETATM   29  O   UNK N   1      24.144  20.951   2.309  0.00  0.00    -0.268 OA
HETATM   30  N   UNK N   1      22.982  19.453   3.508  0.00  0.00    -0.343 N 
HETATM   31  H   UNK N   1      22.986  18.905   4.326  0.00  0.00     0.163 HD
BRANCH  30  32
HETATM   32  C   UNK N   1      21.747  19.508   2.748  0.00  0.00     0.183 C 
BRANCH  32  33
HETATM   33  C   UNK N   1      20.930  18.283   3.107  0.00  0.00     0.046 C 
BRANCH  33  34
HETATM   34  C   UNK N   1      21.845  17.144   3.509  0.00  0.00     0.112 C 
BRANCH  34  35
HETATM   35  C   UNK N   1      21.335  16.500   4.756  0.00  0.00     0.139 C 
HETATM   36  O   UNK N   1      21.299  17.130   5.801  0.00  0.00    -0.650 OA
BRANCH  35  37
HETATM   37  O   UNK N   1      20.938  15.215   4.736  0.00  0.00    -0.776 OA
HETATM   38  H   UNK N   1      20.478  14.841   5.463  0.00  0.00     0.167 HD
ENDBRANCH  35  37
ENDBRANCH  34  35
ENDBRANCH  33  34
ENDBRANCH  32  33
BRANCH  32  39
HETATM   39  C   UNK N   1      20.914  20.757   2.894  0.00  0.00     0.163 C 
HETATM   40  O   UNK N   1      20.136  20.896   3.823  0.00  0.00    -0.648 OA
BRANCH  39  41
HETATM   41  O   UNK N   1      21.045  21.744   1.985  0.00  0.00    -0.775 OA
HETATM   42  H   UNK N   1      21.605  21.661   1.238  0.00  0.00     0.167 HD
ENDBRANCH  39  41
ENDBRANCH  32  39
ENDBRANCH  30  32
ENDBRANCH   4  28
TORSDOF 11
ENDMDL
