REMARK  11 active torsions:
REMARK  status: ('A' for Active; 'I' for Inactive)
REMARK    1  A    between atoms: N_1  and  C_2 
REMARK    2  A    between atoms: N_1  and  C_20 
REMARK    3  A    between atoms: C_5  and  C_8 
REMARK       I    between atoms: C_8  and  N_10 
REMARK    4  A    between atoms: C_11  and  N_10 
REMARK    5  A    between atoms: C_11  and  C_12 
REMARK    6  A    between atoms: C_11  and  C_17 
REMARK    7  A    between atoms: C_12  and  C_13 
REMARK    8  A    between atoms: C_13  and  C_14 
REMARK    9  A    between atoms: C_14  and  O_15 
REMARK   10  A    between atoms: C_17  and  O_18 
REMARK   11  A    between atoms: C_20  and  C_21 
REMARK       I    between atoms: C_30  and  N_32 
ROOT
HETATM    1  C   UNK N   1      -8.102  -4.485   0.429  0.00  0.00     0.028 A 
HETATM    2  C   UNK N   1      -8.164  -3.141   0.796  0.00  0.00     0.030 A 
HETATM    3  C   UNK N   1      -7.061  -2.311   0.631  0.00  0.00     0.019 A 
HETATM    4  C   UNK N   1      -5.870  -2.819   0.104  0.00  0.00     0.032 A 
HETATM    5  C   UNK N   1      -5.813  -4.168  -0.298  0.00  0.00     0.019 A 
HETATM    6  C   UNK N   1      -6.933  -4.999  -0.149  0.00  0.00     0.030 A 
ENDROOT
BRANCH   1   7
HETATM    7  N   UNK N   1      -9.227  -5.292   0.694  0.00  0.00    -0.388 N 
HETATM    8  H   UNK N   1      -9.825  -5.011   1.423  0.00  0.00     0.159 HD
BRANCH   7   9
HETATM    9  C   UNK N   1      -9.568  -6.495  -0.017  0.00  0.00     0.146 C 
BRANCH   9  10
HETATM   10  C   UNK N   1     -11.075  -6.702   0.166  0.00  0.00     0.119 C 
HETATM   11  C   UNK N   1     -11.594  -7.997  -0.443  0.00  0.00     0.148 C 
HETATM   12  N   UNK N   1     -13.003  -8.145  -0.125  0.00  0.00    -0.372 N 
HETATM   13  C   UNK N   1     -13.866  -7.015  -0.052  0.00  0.00     0.149 A 
HETATM   14  H   UNK N   1     -13.369  -9.043   0.044  0.00  0.00     0.161 HD
HETATM   15  C   UNK N   1     -13.329  -5.721  -0.144  0.00  0.00     0.144 A 
HETATM   16  N   UNK N   1     -15.208  -7.188   0.060  0.00  0.00    -0.175 N 
HETATM   17  C   UNK N   1     -14.222  -4.630  -0.122  0.00  0.00     0.290 A 
HETATM   18  N   UNK N   1     -11.913  -5.577  -0.257  0.00  0.00    -0.370 N 
HETATM   19  O   UNK N   1     -13.818  -3.481  -0.182  0.00  0.00    -0.265 OA
HETATM   20  N   UNK N   1     -15.565  -4.860  -0.008  0.00  0.00    -0.154 N 
HETATM   21  C   UNK N   1     -16.054  -6.124   0.083  0.00  0.00     0.680 A 
ATOM     22  HN  UNK N   1     -16.210  -4.070   0.008  1.00  0.00     0.187 HD
HETATM   23  N   UNK N   1     -17.442  -6.331   0.191  0.00  0.00    -0.234 N 
HETATM   24  H   UNK N   1     -18.052  -5.562   0.266  0.00  0.00     0.174 HD
HETATM   25  H   UNK N   1     -17.803  -7.247   0.191  0.00  0.00     0.174 HD
HETATM   26  C   UNK N   1     -11.339  -4.358  -0.789  0.00  0.00     0.150 C 
HETATM   27  H   UNK N   1     -15.574  -8.100   0.126  0.00  0.00     0.186 HD
ENDBRANCH   9  10
ENDBRANCH   7   9
ENDBRANCH   1   7
BRANCH   4  28
HETATM   28  C   UNK N   1      -4.649  -1.988   0.144  0.00  0.00     0.252 C 
HETATM   29  O   UNK N   1      -4.694  -0.869   0.637  0.00  0.00    -0.268 OA
HETATM   30  N   UNK N   1      -3.465  -2.528  -0.239  0.00  0.00    -0.343 N 
HETATM   31  H   UNK N   1      -3.497  -3.348  -0.783  0.00  0.00     0.163 HD
BRANCH  30  32
HETATM   32  C   UNK N   1      -2.155  -1.996   0.089  0.00  0.00     0.183 C 
BRANCH  32  33
HETATM   33  C   UNK N   1      -1.117  -2.920  -0.516  0.00  0.00     0.046 C 
BRANCH  33  34
HETATM   34  C   UNK N   1      -0.009  -3.187   0.484  0.00  0.00     0.112 C 
BRANCH  34  35
HETATM   35  C   UNK N   1       0.717  -4.438   0.114  0.00  0.00     0.139 C 
HETATM   36  O   UNK N   1       0.114  -5.496   0.034  0.00  0.00    -0.650 OA
BRANCH  35  37
HETATM   37  O   UNK N   1       2.044  -4.405  -0.107  0.00  0.00    -0.776 OA
HETATM   38  H   UNK N   1       2.526  -5.194  -0.261  0.00  0.00     0.167 HD
ENDBRANCH  35  37
ENDBRANCH  34  35
ENDBRANCH  33  34
ENDBRANCH  32  33
BRANCH  32  39
HETATM   39  C   UNK N   1      -1.883  -0.567  -0.311  0.00  0.00     0.163 C 
HETATM   40  O   UNK N   1      -2.712   0.092  -0.916  0.00  0.00    -0.648 OA
BRANCH  39  41
HETATM   41  O   UNK N   1      -0.703  -0.006   0.020  0.00  0.00    -0.775 OA
HETATM   42  H   UNK N   1       0.045  -0.521   0.251  0.00  0.00     0.167 HD
ENDBRANCH  39  41
ENDBRANCH  32  39
ENDBRANCH  30  32
ENDBRANCH   4  28
TORSDOF 11
