MODEL 1
REMARK VINA RESULT:      -5.1      0.000      0.000
REMARK  9 active torsions:
REMARK  status: ('A' for Active; 'I' for Inactive)
REMARK    1  A    between atoms: O_3  and  C_1 
REMARK    2  A    between atoms: C_1  and  C_12 
REMARK    3  A    between atoms: C_4  and  C_11 
REMARK    4  A    between atoms: O_6  and  C_4 
REMARK    5  A    between atoms: C_10  and  C_8 
REMARK    6  A    between atoms: C_8  and  O_9 
REMARK    7  A    between atoms: C_12  and  C_10 
REMARK    8  A    between atoms: C_11  and  C_12 
REMARK    9  A    between atoms: C_12  and  O_13 
ROOT
HETATM    1  C   UNK N   1      34.315  16.108   9.421  0.00  0.00     0.161 C 
ENDROOT
BRANCH   1   2
HETATM    2  C   UNK N   1      35.091  16.628  10.645  0.00  0.00     0.159 C 
BRANCH   2   3
HETATM    3  C   UNK N   1      36.156  15.723  11.200  0.00  0.00     0.142 C 
HETATM    4  O   UNK N   1      35.961  15.086  12.222  0.00  0.00    -0.650 OA
BRANCH   3   5
HETATM    5  O   UNK N   1      37.366  15.680  10.613  0.00  0.00    -0.776 OA
HETATM    6  H   UNK N   1      37.767  16.442  10.245  0.00  0.00     0.167 HD
ENDBRANCH   3   5
ENDBRANCH   2   3
ENDBRANCH   1   2
BRANCH   1   7
HETATM    7  C   UNK N   1      33.644  17.359   8.830  0.00  0.00     0.159 C 
BRANCH   7   8
HETATM    8  C   UNK N   1      34.478  18.214   7.920  0.00  0.00     0.142 C 
HETATM    9  O   UNK N   1      34.497  18.005   6.719  0.00  0.00    -0.650 OA
BRANCH   8  10
HETATM   10  O   UNK N   1      35.128  19.281   8.422  0.00  0.00    -0.776 OA
HETATM   11  H   UNK N   1      34.950  19.624   9.276  0.00  0.00     0.167 HD
ENDBRANCH   8  10
ENDBRANCH   7   8
ENDBRANCH   1   7
BRANCH   1  12
HETATM   12  C   UNK N   1      33.295  15.036   9.774  0.00  0.00     0.176 C 
HETATM   13  O   UNK N   1      33.030  14.157   8.972  0.00  0.00    -0.648 OA
BRANCH  12  14
HETATM   14  O   UNK N   1      32.681  15.032  10.974  0.00  0.00    -0.774 OA
HETATM   15  H   UNK N   1      32.884  14.441  11.671  0.00  0.00     0.167 HD
ENDBRANCH  12  14
ENDBRANCH   1  12
BRANCH   1  16
HETATM   16  O   UNK N   1      35.225  15.591   8.493  0.00  0.00    -0.378 OA
HETATM   17  H   UNK N   1      35.590  14.855   7.978  0.00  0.00     0.211 HD
ENDBRANCH   1  16
TORSDOF 9
ENDMDL
MODEL 2
REMARK VINA RESULT:      -4.9      2.182      3.735
REMARK  9 active torsions:
REMARK  status: ('A' for Active; 'I' for Inactive)
REMARK    1  A    between atoms: O_3  and  C_1 
REMARK    2  A    between atoms: C_1  and  C_12 
REMARK    3  A    between atoms: C_4  and  C_11 
REMARK    4  A    between atoms: O_6  and  C_4 
REMARK    5  A    between atoms: C_10  and  C_8 
REMARK    6  A    between atoms: C_8  and  O_9 
REMARK    7  A    between atoms: C_12  and  C_10 
REMARK    8  A    between atoms: C_11  and  C_12 
REMARK    9  A    between atoms: C_12  and  O_13 
ROOT
HETATM    1  C   UNK N   1      34.755  14.838  10.659  0.00  0.00     0.161 C 
ENDROOT
BRANCH   1   2
HETATM    2  C   UNK N   1      35.509  13.682  11.339  0.00  0.00     0.159 C 
BRANCH   2   3
HETATM    3  C   UNK N   1      35.677  13.773  12.831  0.00  0.00     0.142 C 
HETATM    4  O   UNK N   1      34.766  13.464  13.579  0.00  0.00    -0.650 OA
BRANCH   3   5
HETATM    5  O   UNK N   1      36.812  14.283  13.342  0.00  0.00    -0.776 OA
HETATM    6  H   UNK N   1      37.647  13.883  13.198  0.00  0.00     0.167 HD
ENDBRANCH   3   5
ENDBRANCH   2   3
ENDBRANCH   1   2
BRANCH   1   7
HETATM    7  C   UNK N   1      34.451  14.321   9.243  0.00  0.00     0.159 C 
BRANCH   7   8
HETATM    8  C   UNK N   1      33.008  14.113   8.888  0.00  0.00     0.142 C 
HETATM    9  O   UNK N   1      32.398  14.957   8.252  0.00  0.00    -0.650 OA
BRANCH   8  10
HETATM   10  O   UNK N   1      32.412  12.943   9.185  0.00  0.00    -0.776 OA
HETATM   11  H   UNK N   1      32.790  12.115   8.965  0.00  0.00     0.167 HD
ENDBRANCH   8  10
ENDBRANCH   7   8
ENDBRANCH   1   7
BRANCH   1  12
HETATM   12  C   UNK N   1      35.554  16.133  10.625  0.00  0.00     0.176 C 
HETATM   13  O   UNK N   1      34.992  17.192  10.406  0.00  0.00    -0.648 OA
BRANCH  12  14
HETATM   14  O   UNK N   1      36.883  16.133  10.849  0.00  0.00    -0.774 OA
HETATM   15  H   UNK N   1      37.431  15.376  10.784  0.00  0.00     0.167 HD
ENDBRANCH  12  14
ENDBRANCH   1  12
BRANCH   1  16
HETATM   16  O   UNK N   1      33.551  15.056  11.337  0.00  0.00    -0.378 OA
HETATM   17  H   UNK N   1      33.033  15.485  12.036  0.00  0.00     0.211 HD
ENDBRANCH   1  16
TORSDOF 9
ENDMDL
MODEL 3
REMARK VINA RESULT:      -4.9     15.125     16.565
REMARK  9 active torsions:
REMARK  status: ('A' for Active; 'I' for Inactive)
REMARK    1  A    between atoms: O_3  and  C_1 
REMARK    2  A    between atoms: C_1  and  C_12 
REMARK    3  A    between atoms: C_4  and  C_11 
REMARK    4  A    between atoms: O_6  and  C_4 
REMARK    5  A    between atoms: C_10  and  C_8 
REMARK    6  A    between atoms: C_8  and  O_9 
REMARK    7  A    between atoms: C_12  and  C_10 
REMARK    8  A    between atoms: C_11  and  C_12 
REMARK    9  A    between atoms: C_12  and  O_13 
ROOT
HETATM    1  C   UNK N   1      20.144  17.841   2.839  0.00  0.00     0.161 C 
ENDROOT
BRANCH   1   2
HETATM    2  C   UNK N   1      20.541  16.828   1.750  0.00  0.00     0.159 C 
BRANCH   2   3
HETATM    3  C   UNK N   1      19.918  17.020   0.394  0.00  0.00     0.142 C 
HETATM    4  O   UNK N   1      19.077  16.240  -0.020  0.00  0.00    -0.650 OA
BRANCH   3   5
HETATM    5  O   UNK N   1      20.354  18.011  -0.404  0.00  0.00    -0.776 OA
HETATM    6  H   UNK N   1      20.422  18.896  -0.106  0.00  0.00     0.167 HD
ENDBRANCH   3   5
ENDBRANCH   2   3
ENDBRANCH   1   2
BRANCH   1   7
HETATM    7  C   UNK N   1      21.341  18.802   2.926  0.00  0.00     0.159 C 
BRANCH   7   8
HETATM    8  C   UNK N   1      21.167  20.166   2.322  0.00  0.00     0.142 C 
HETATM    9  O   UNK N   1      21.317  20.335   1.123  0.00  0.00    -0.650 OA
BRANCH   8  10
HETATM   10  O   UNK N   1      20.745  21.186   3.091  0.00  0.00    -0.776 OA
HETATM   11  H   UNK N   1      21.334  21.721   3.585  0.00  0.00     0.167 HD
ENDBRANCH   8  10
ENDBRANCH   7   8
ENDBRANCH   1   7
BRANCH   1  12
HETATM   12  C   UNK N   1      19.847  17.189   4.181  0.00  0.00     0.176 C 
HETATM   13  O   UNK N   1      20.629  17.314   5.107  0.00  0.00    -0.648 OA
BRANCH  12  14
HETATM   14  O   UNK N   1      18.718  16.479   4.372  0.00  0.00    -0.774 OA
HETATM   15  H   UNK N   1      17.857  16.786   4.166  0.00  0.00     0.167 HD
ENDBRANCH  12  14
ENDBRANCH   1  12
BRANCH   1  16
HETATM   16  O   UNK N   1      19.016  18.549   2.410  0.00  0.00    -0.378 OA
HETATM   17  H   UNK N   1      18.410  19.304   2.472  0.00  0.00     0.211 HD
ENDBRANCH   1  16
TORSDOF 9
ENDMDL
MODEL 4
REMARK VINA RESULT:      -4.8     11.927     13.806
REMARK  9 active torsions:
REMARK  status: ('A' for Active; 'I' for Inactive)
REMARK    1  A    between atoms: O_3  and  C_1 
REMARK    2  A    between atoms: C_1  and  C_12 
REMARK    3  A    between atoms: C_4  and  C_11 
REMARK    4  A    between atoms: O_6  and  C_4 
REMARK    5  A    between atoms: C_10  and  C_8 
REMARK    6  A    between atoms: C_8  and  O_9 
REMARK    7  A    between atoms: C_12  and  C_10 
REMARK    8  A    between atoms: C_11  and  C_12 
REMARK    9  A    between atoms: C_12  and  O_13 
ROOT
HETATM    1  C   UNK N   1      43.305  22.927   2.833  0.00  0.00     0.161 C 
ENDROOT
BRANCH   1   2
HETATM    2  C   UNK N   1      44.376  23.227   1.769  0.00  0.00     0.159 C 
BRANCH   2   3
HETATM    3  C   UNK N   1      45.122  24.525   1.912  0.00  0.00     0.142 C 
HETATM    4  O   UNK N   1      44.743  25.528   1.330  0.00  0.00    -0.650 OA
BRANCH   3   5
HETATM    5  O   UNK N   1      46.266  24.561   2.619  0.00  0.00    -0.776 OA
HETATM    6  H   UNK N   1      46.277  24.742   3.538  0.00  0.00     0.167 HD
ENDBRANCH   3   5
ENDBRANCH   2   3
ENDBRANCH   1   2
BRANCH   1   7
HETATM    7  C   UNK N   1      43.637  21.509   3.326  0.00  0.00     0.159 C 
BRANCH   7   8
HETATM    8  C   UNK N   1      45.048  21.254   3.771  0.00  0.00     0.142 C 
HETATM    9  O   UNK N   1      45.599  20.198   3.507  0.00  0.00    -0.650 OA
BRANCH   8  10
HETATM   10  O   UNK N   1      45.742  22.235   4.376  0.00  0.00    -0.776 OA
HETATM   11  H   UNK N   1      46.569  22.086   4.791  0.00  0.00     0.167 HD
ENDBRANCH   8  10
ENDBRANCH   7   8
ENDBRANCH   1   7
BRANCH   1  12
HETATM   12  C   UNK N   1      41.886  23.017   2.293  0.00  0.00     0.176 C 
HETATM   13  O   UNK N   1      41.191  22.018   2.232  0.00  0.00    -0.648 OA
BRANCH  12  14
HETATM   14  O   UNK N   1      41.372  24.195   1.888  0.00  0.00    -0.774 OA
HETATM   15  H   UNK N   1      40.942  24.807   2.451  0.00  0.00     0.167 HD
ENDBRANCH  12  14
ENDBRANCH   1  12
BRANCH   1  16
HETATM   16  O   UNK N   1      43.454  23.829   3.892  0.00  0.00    -0.378 OA
HETATM   17  H   UNK N   1      43.219  24.149   4.777  0.00  0.00     0.211 HD
ENDBRANCH   1  16
TORSDOF 9
ENDMDL
MODEL 5
REMARK VINA RESULT:      -4.8      1.315      3.895
REMARK  9 active torsions:
REMARK  status: ('A' for Active; 'I' for Inactive)
REMARK    1  A    between atoms: O_3  and  C_1 
REMARK    2  A    between atoms: C_1  and  C_12 
REMARK    3  A    between atoms: C_4  and  C_11 
REMARK    4  A    between atoms: O_6  and  C_4 
REMARK    5  A    between atoms: C_10  and  C_8 
REMARK    6  A    between atoms: C_8  and  O_9 
REMARK    7  A    between atoms: C_12  and  C_10 
REMARK    8  A    between atoms: C_11  and  C_12 
REMARK    9  A    between atoms: C_12  and  O_13 
ROOT
HETATM    1  C   UNK N   1      34.774  16.043   9.507  0.00  0.00     0.161 C 
ENDROOT
BRANCH   1   2
HETATM    2  C   UNK N   1      34.638  16.785   8.166  0.00  0.00     0.159 C 
BRANCH   2   3
HETATM    3  C   UNK N   1      34.294  18.248   8.238  0.00  0.00     0.142 C 
HETATM    4  O   UNK N   1      33.149  18.627   8.062  0.00  0.00    -0.650 OA
BRANCH   3   5
HETATM    5  O   UNK N   1      35.274  19.153   8.413  0.00  0.00    -0.776 OA
HETATM    6  H   UNK N   1      36.176  18.906   8.461  0.00  0.00     0.167 HD
ENDBRANCH   3   5
ENDBRANCH   2   3
ENDBRANCH   1   2
BRANCH   1   7
HETATM    7  C   UNK N   1      35.906  15.029   9.274  0.00  0.00     0.159 C 
BRANCH   7   8
HETATM    8  C   UNK N   1      36.865  14.803  10.407  0.00  0.00     0.142 C 
HETATM    9  O   UNK N   1      36.466  14.378  11.479  0.00  0.00    -0.650 OA
BRANCH   8  10
HETATM   10  O   UNK N   1      38.184  14.977  10.207  0.00  0.00    -0.776 OA
HETATM   11  H   UNK N   1      38.600  15.813  10.282  0.00  0.00     0.167 HD
ENDBRANCH   8  10
ENDBRANCH   7   8
ENDBRANCH   1   7
BRANCH   1  12
HETATM   12  C   UNK N   1      33.487  15.358   9.943  0.00  0.00     0.176 C 
HETATM   13  O   UNK N   1      32.561  15.243   9.160  0.00  0.00    -0.648 OA
BRANCH  12  14
HETATM   14  O   UNK N   1      33.355  14.860  11.189  0.00  0.00    -0.774 OA
HETATM   15  H   UNK N   1      32.743  14.194  11.430  0.00  0.00     0.167 HD
ENDBRANCH  12  14
ENDBRANCH   1  12
BRANCH   1  16
HETATM   16  O   UNK N   1      35.168  16.955  10.492  0.00  0.00    -0.378 OA
HETATM   17  H   UNK N   1      35.061  17.792  10.969  0.00  0.00     0.211 HD
ENDBRANCH   1  16
TORSDOF 9
ENDMDL
MODEL 6
REMARK VINA RESULT:      -4.7     12.324     13.985
REMARK  9 active torsions:
REMARK  status: ('A' for Active; 'I' for Inactive)
REMARK    1  A    between atoms: O_3  and  C_1 
REMARK    2  A    between atoms: C_1  and  C_12 
REMARK    3  A    between atoms: C_4  and  C_11 
REMARK    4  A    between atoms: O_6  and  C_4 
REMARK    5  A    between atoms: C_10  and  C_8 
REMARK    6  A    between atoms: C_8  and  O_9 
REMARK    7  A    between atoms: C_12  and  C_10 
REMARK    8  A    between atoms: C_11  and  C_12 
REMARK    9  A    between atoms: C_12  and  O_13 
ROOT
HETATM    1  C   UNK N   1      43.809  22.942   3.010  0.00  0.00     0.161 C 
ENDROOT
BRANCH   1   2
HETATM    2  C   UNK N   1      42.487  22.390   2.447  0.00  0.00     0.159 C 
BRANCH   2   3
HETATM    3  C   UNK N   1      41.762  23.261   1.458  0.00  0.00     0.142 C 
HETATM    4  O   UNK N   1      41.314  24.344   1.795  0.00  0.00    -0.650 OA
BRANCH   3   5
HETATM    5  O   UNK N   1      41.531  22.805   0.214  0.00  0.00    -0.776 OA
HETATM    6  H   UNK N   1      41.464  23.381  -0.522  0.00  0.00     0.167 HD
ENDBRANCH   3   5
ENDBRANCH   2   3
ENDBRANCH   1   2
BRANCH   1   7
HETATM    7  C   UNK N   1      44.543  23.512   1.784  0.00  0.00     0.159 C 
BRANCH   7   8
HETATM    8  C   UNK N   1      45.335  24.771   1.988  0.00  0.00     0.142 C 
HETATM    9  O   UNK N   1      44.912  25.841   1.582  0.00  0.00    -0.650 OA
BRANCH   8  10
HETATM   10  O   UNK N   1      46.470  24.733   2.711  0.00  0.00    -0.776 OA
HETATM   11  H   UNK N   1      46.489  24.449   3.604  0.00  0.00     0.167 HD
ENDBRANCH   8  10
ENDBRANCH   7   8
ENDBRANCH   1   7
BRANCH   1  12
HETATM   12  C   UNK N   1      44.641  21.885   3.722  0.00  0.00     0.176 C 
HETATM   13  O   UNK N   1      44.256  20.730   3.764  0.00  0.00    -0.648 OA
BRANCH  12  14
HETATM   14  O   UNK N   1      45.816  22.203   4.302  0.00  0.00    -0.774 OA
HETATM   15  H   UNK N   1      45.910  22.469   5.195  0.00  0.00     0.167 HD
ENDBRANCH  12  14
ENDBRANCH   1  12
BRANCH   1  16
HETATM   16  O   UNK N   1      43.524  23.982   3.901  0.00  0.00    -0.378 OA
HETATM   17  H   UNK N   1      43.484  24.347   4.799  0.00  0.00     0.211 HD
ENDBRANCH   1  16
TORSDOF 9
ENDMDL
MODEL 7
REMARK VINA RESULT:      -4.7      1.557      3.647
REMARK  9 active torsions:
REMARK  status: ('A' for Active; 'I' for Inactive)
REMARK    1  A    between atoms: O_3  and  C_1 
REMARK    2  A    between atoms: C_1  and  C_12 
REMARK    3  A    between atoms: C_4  and  C_11 
REMARK    4  A    between atoms: O_6  and  C_4 
REMARK    5  A    between atoms: C_10  and  C_8 
REMARK    6  A    between atoms: C_8  and  O_9 
REMARK    7  A    between atoms: C_12  and  C_10 
REMARK    8  A    between atoms: C_11  and  C_12 
REMARK    9  A    between atoms: C_12  and  O_13 
ROOT
HETATM    1  C   UNK N   1      33.829  15.933   8.918  0.00  0.00     0.161 C 
ENDROOT
BRANCH   1   2
HETATM    2  C   UNK N   1      33.546  17.445   8.867  0.00  0.00     0.159 C 
BRANCH   2   3
HETATM    3  C   UNK N   1      34.425  18.264   7.961  0.00  0.00     0.142 C 
HETATM    4  O   UNK N   1      34.433  18.066   6.757  0.00  0.00    -0.650 OA
BRANCH   3   5
HETATM    5  O   UNK N   1      35.273  19.163   8.491  0.00  0.00    -0.776 OA
HETATM    6  H   UNK N   1      35.020  20.049   8.655  0.00  0.00     0.167 HD
ENDBRANCH   3   5
ENDBRANCH   2   3
ENDBRANCH   1   2
BRANCH   1   7
HETATM    7  C   UNK N   1      32.505  15.278   8.490  0.00  0.00     0.159 C 
BRANCH   7   8
HETATM    8  C   UNK N   1      32.394  14.837   7.059  0.00  0.00     0.142 C 
HETATM    9  O   UNK N   1      32.012  13.710   6.787  0.00  0.00    -0.650 OA
BRANCH   8  10
HETATM   10  O   UNK N   1      32.621  15.721   6.070  0.00  0.00    -0.776 OA
HETATM   11  H   UNK N   1      32.415  15.539   5.174  0.00  0.00     0.167 HD
ENDBRANCH   8  10
ENDBRANCH   7   8
ENDBRANCH   1   7
BRANCH   1  12
HETATM   12  C   UNK N   1      34.273  15.457  10.293  0.00  0.00     0.176 C 
HETATM   13  O   UNK N   1      35.447  15.526  10.613  0.00  0.00    -0.648 OA
BRANCH  12  14
HETATM   14  O   UNK N   1      33.383  14.965  11.177  0.00  0.00    -0.774 OA
HETATM   15  H   UNK N   1      32.454  14.978  11.057  0.00  0.00     0.167 HD
ENDBRANCH  12  14
ENDBRANCH   1  12
BRANCH   1  16
HETATM   16  O   UNK N   1      34.819  15.625   7.980  0.00  0.00    -0.378 OA
HETATM   17  H   UNK N   1      35.642  15.178   7.726  0.00  0.00     0.211 HD
ENDBRANCH   1  16
TORSDOF 9
ENDMDL
MODEL 8
REMARK VINA RESULT:      -4.6     11.296     13.107
REMARK  9 active torsions:
REMARK  status: ('A' for Active; 'I' for Inactive)
REMARK    1  A    between atoms: O_3  and  C_1 
REMARK    2  A    between atoms: C_1  and  C_12 
REMARK    3  A    between atoms: C_4  and  C_11 
REMARK    4  A    between atoms: O_6  and  C_4 
REMARK    5  A    between atoms: C_10  and  C_8 
REMARK    6  A    between atoms: C_8  and  O_9 
REMARK    7  A    between atoms: C_12  and  C_10 
REMARK    8  A    between atoms: C_11  and  C_12 
REMARK    9  A    between atoms: C_12  and  O_13 
ROOT
HETATM    1  C   UNK N   1      22.152  12.459  10.225  0.00  0.00     0.161 C 
ENDROOT
BRANCH   1   2
HETATM    2  C   UNK N   1      22.219  11.891   8.796  0.00  0.00     0.159 C 
BRANCH   2   3
HETATM    3  C   UNK N   1      23.586  11.547   8.272  0.00  0.00     0.142 C 
HETATM    4  O   UNK N   1      23.814  10.443   7.808  0.00  0.00    -0.650 OA
BRANCH   3   5
HETATM    5  O   UNK N   1      24.588  12.436   8.394  0.00  0.00    -0.776 OA
HETATM    6  H   UNK N   1      24.735  12.915   9.186  0.00  0.00     0.167 HD
ENDBRANCH   3   5
ENDBRANCH   2   3
ENDBRANCH   1   2
BRANCH   1   7
HETATM    7  C   UNK N   1      22.960  11.463  11.074  0.00  0.00     0.159 C 
BRANCH   7   8
HETATM    8  C   UNK N   1      23.992  12.037  12.001  0.00  0.00     0.142 C 
HETATM    9  O   UNK N   1      23.808  12.038  13.207  0.00  0.00    -0.650 OA
BRANCH   8  10
HETATM   10  O   UNK N   1      25.169  12.462  11.506  0.00  0.00    -0.776 OA
HETATM   11  H   UNK N   1      25.991  12.226  11.889  0.00  0.00     0.167 HD
ENDBRANCH   8  10
ENDBRANCH   7   8
ENDBRANCH   1   7
BRANCH   1  12
HETATM   12  C   UNK N   1      20.729  12.612  10.740  0.00  0.00     0.176 C 
HETATM   13  O   UNK N   1      19.946  13.347  10.164  0.00  0.00    -0.648 OA
BRANCH  12  14
HETATM   14  O   UNK N   1      20.309  11.935  11.827  0.00  0.00    -0.774 OA
HETATM   15  H   UNK N   1      19.538  11.404  11.854  0.00  0.00     0.167 HD
ENDBRANCH  12  14
ENDBRANCH   1  12
BRANCH   1  16
HETATM   16  O   UNK N   1      22.788  13.705  10.248  0.00  0.00    -0.378 OA
HETATM   17  H   UNK N   1      22.901  14.610   9.916  0.00  0.00     0.211 HD
ENDBRANCH   1  16
TORSDOF 9
ENDMDL
MODEL 9
REMARK VINA RESULT:      -4.6      1.587      3.911
REMARK  9 active torsions:
REMARK  status: ('A' for Active; 'I' for Inactive)
REMARK    1  A    between atoms: O_3  and  C_1 
REMARK    2  A    between atoms: C_1  and  C_12 
REMARK    3  A    between atoms: C_4  and  C_11 
REMARK    4  A    between atoms: O_6  and  C_4 
REMARK    5  A    between atoms: C_10  and  C_8 
REMARK    6  A    between atoms: C_8  and  O_9 
REMARK    7  A    between atoms: C_12  and  C_10 
REMARK    8  A    between atoms: C_11  and  C_12 
REMARK    9  A    between atoms: C_12  and  O_13 
ROOT
HETATM    1  C   UNK N   1      32.964  16.174   8.633  0.00  0.00     0.161 C 
ENDROOT
BRANCH   1   2
HETATM    2  C   UNK N   1      32.917  17.681   8.324  0.00  0.00     0.159 C 
BRANCH   2   3
HETATM    3  C   UNK N   1      34.122  18.264   7.636  0.00  0.00     0.142 C 
HETATM    4  O   UNK N   1      34.393  17.955   6.488  0.00  0.00    -0.650 OA
BRANCH   3   5
HETATM    5  O   UNK N   1      34.956  19.066   8.322  0.00  0.00    -0.776 OA
HETATM    6  H   UNK N   1      34.647  19.664   8.974  0.00  0.00     0.167 HD
ENDBRANCH   3   5
ENDBRANCH   2   3
ENDBRANCH   1   2
BRANCH   1   7
HETATM    7  C   UNK N   1      34.441  15.892   8.957  0.00  0.00     0.159 C 
BRANCH   7   8
HETATM    8  C   UNK N   1      34.906  16.208  10.349  0.00  0.00     0.142 C 
HETATM    9  O   UNK N   1      35.626  17.170  10.558  0.00  0.00    -0.650 OA
BRANCH   8  10
HETATM   10  O   UNK N   1      34.444  15.483  11.385  0.00  0.00    -0.776 OA
HETATM   11  H   UNK N   1      33.532  15.310  11.512  0.00  0.00     0.167 HD
ENDBRANCH   8  10
ENDBRANCH   7   8
ENDBRANCH   1   7
BRANCH   1  12
HETATM   12  C   UNK N   1      32.467  15.313   7.482  0.00  0.00     0.176 C 
HETATM   13  O   UNK N   1      32.175  14.145   7.673  0.00  0.00    -0.648 OA
BRANCH  12  14
HETATM   14  O   UNK N   1      32.330  15.825   6.243  0.00  0.00    -0.774 OA
HETATM   15  H   UNK N   1      32.578  15.382   5.456  0.00  0.00     0.167 HD
ENDBRANCH  12  14
ENDBRANCH   1  12
BRANCH   1  16
HETATM   16  O   UNK N   1      32.187  15.919   9.768  0.00  0.00    -0.378 OA
HETATM   17  H   UNK N   1      31.425  15.506  10.204  0.00  0.00     0.211 HD
ENDBRANCH   1  16
TORSDOF 9
ENDMDL
