MODEL 1
REMARK VINA RESULT:      -9.1      0.000      0.000
REMARK  29 active torsions:
REMARK  status: ('A' for Active; 'I' for Inactive)
REMARK    1  A    between atoms: C_3  and  C_2 
REMARK    2  A    between atoms: C_4  and  C_3 
REMARK    3  A    between atoms: C_5  and  C_4 
REMARK    4  A    between atoms: C_5  and  O_6 
REMARK    5  A    between atoms: C_35  and  C_5 
REMARK    6  A    between atoms: C_7  and  O_6 
REMARK    7  A    between atoms: C_9  and  O_14 
REMARK    8  A    between atoms: C_10  and  O_15 
REMARK    9  A    between atoms: C_11  and  O_16 
REMARK   10  A    between atoms: C_12  and  C_17 
REMARK   11  A    between atoms: C_17  and  O_18 
REMARK   12  A    between atoms: C_50  and  O_18 
REMARK   13  A    between atoms: C_26  and  O_44 
REMARK   14  A    between atoms: C_32  and  O_38 
REMARK   15  A    between atoms: C_56  and  O_44 
REMARK   16  A    between atoms: C_46  and  C_45 
REMARK   17  A    between atoms: C_47  and  O_54 
REMARK   18  A    between atoms: C_48  and  O_52 
REMARK   19  A    between atoms: C_49  and  O_53 
REMARK   20  A    between atoms: C_57  and  O_66 
REMARK   21  A    between atoms: C_58  and  O_62 
REMARK   22  A    between atoms: C_59  and  O_63 
REMARK   23  A    between atoms: C_60  and  C_64 
REMARK   24  A    between atoms: C_64  and  O_65 
REMARK   25  A    between atoms: C_67  and  O_66 
REMARK   26  A    between atoms: C_69  and  O_73 
REMARK   27  A    between atoms: C_70  and  O_74 
REMARK   28  A    between atoms: C_71  and  C_75 
REMARK   29  A    between atoms: C_75  and  O_76 
ROOT
HETATM    1  C   UNK N   1      35.424  15.368  11.817  0.00  0.00     0.198 C 
HETATM    2  O   UNK N   1      34.968  16.536  11.204  0.00  0.00    -0.398 OA
HETATM    3  H   UNK N   1      34.574  17.303  10.761  0.00  0.00     0.209 HD
ENDROOT
BRANCH   1   4
HETATM    4  C   UNK N   1      36.671  14.804  11.122  0.00  0.00     0.179 C 
HETATM    5  C   UNK N   1      37.140  13.416  11.590  0.00  0.00     0.180 C 
HETATM    6  C   UNK N   1      36.226  12.346  11.019  0.00  0.00     0.183 C 
HETATM    7  C   UNK N   1      36.248  12.496   9.510  0.00  0.00     0.204 C 
HETATM    8  C   UNK N   1      35.895  13.934   9.073  0.00  0.00     0.291 C 
HETATM    9  O   UNK N   1      36.658  14.949   9.709  0.00  0.00    -0.348 OA
BRANCH   5  10
HETATM   10  O   UNK N   1      37.179  13.348  12.984  0.00  0.00    -0.390 OA
HETATM   11  H   UNK N   1      38.032  13.318  13.444  0.00  0.00     0.210 HD
ENDBRANCH   5  10
BRANCH   6  12
HETATM   12  O   UNK N   1      36.701  11.081  11.370  0.00  0.00    -0.390 OA
HETATM   13  H   UNK N   1      36.601  10.282  10.828  0.00  0.00     0.210 HD
ENDBRANCH   6  12
BRANCH   7  14
HETATM   14  O   UNK N   1      35.406  11.563   8.902  0.00  0.00    -0.388 OA
HETATM   15  H   UNK N   1      34.676  10.924   8.867  0.00  0.00     0.210 HD
ENDBRANCH   7  14
BRANCH   8  16
HETATM   16  O   UNK N   1      34.528  14.240   9.039  0.00  0.00    -0.356 OA
BRANCH  16  17
HETATM   17  C   UNK N   1      34.383  15.173   8.000  0.00  0.00     0.205 C 
BRANCH  17  18
HETATM   18  C   UNK N   1      33.333  16.235   8.325  0.00  0.00     0.180 C 
HETATM   19  C   UNK N   1      32.082  15.586   8.961  0.00  0.00     0.180 C 
HETATM   20  C   UNK N   1      30.868  16.489   8.756  0.00  0.00     0.183 C 
HETATM   21  C   UNK N   1      30.649  16.671   7.239  0.00  0.00     0.204 C 
HETATM   22  C   UNK N   1      31.981  16.578   6.465  0.00  0.00     0.292 C 
HETATM   23  O   UNK N   1      33.059  17.097   7.216  0.00  0.00    -0.348 OA
BRANCH  19  24
HETATM   24  O   UNK N   1      32.301  15.331  10.316  0.00  0.00    -0.390 OA
HETATM   25  H   UNK N   1      31.727  15.722  10.992  0.00  0.00     0.210 HD
ENDBRANCH  19  24
BRANCH  20  26
HETATM   26  O   UNK N   1      31.098  17.723   9.375  0.00  0.00    -0.390 OA
HETATM   27  H   UNK N   1      31.474  18.613   9.458  0.00  0.00     0.210 HD
ENDBRANCH  20  26
BRANCH  21  28
HETATM   28  O   UNK N   1      29.975  17.867   6.980  0.00  0.00    -0.388 OA
HETATM   29  H   UNK N   1      30.051  18.690   6.474  0.00  0.00     0.210 HD
ENDBRANCH  21  28
BRANCH  22  30
HETATM   30  O   UNK N   1      31.888  17.175   5.181  0.00  0.00    -0.348 OA
BRANCH  30  31
HETATM   31  C   UNK N   1      31.968  16.216   4.123  0.00  0.00     0.065 C 
HETATM   32  C   UNK N   1      32.092  16.861   2.725  0.00  0.00     0.046 C 
BRANCH  31  33
HETATM   33  C   UNK N   1      33.258  15.408   4.341  0.00  0.00     0.042 C 
BRANCH  33  34
HETATM   34  C   UNK N   1      34.053  15.140   3.062  0.00  0.00     0.030 C 
BRANCH  34  35
HETATM   35  C   UNK N   1      34.834  13.868   3.201  0.00  0.00    -0.025 C 
HETATM   36  C   UNK N   1      34.650  12.816   2.392  0.00  0.00    -0.091 C 
HETATM   37  C   UNK N   1      35.450  11.580   2.611  0.00  0.00     0.042 C 
HETATM   38  C   UNK N   1      33.663  12.850   1.269  0.00  0.00     0.042 C 
ENDBRANCH  34  35
ENDBRANCH  33  34
ENDBRANCH  31  33
BRANCH  31  39
HETATM   39  C   UNK N   1      30.732  15.279   4.150  0.00  0.00     0.027 C 
HETATM   40  C   UNK N   1      29.634  15.557   3.105  0.00  0.00     0.030 C 
HETATM   41  C   UNK N   1      28.543  16.478   3.688  0.00  0.00     0.123 C 
HETATM   42  C   UNK N   1      29.126  14.181   2.662  0.00  0.00    -0.030 C 
HETATM   43  C   UNK N   1      27.096  16.084   3.387  0.00  0.00     0.038 C 
HETATM   44  C   UNK N   1      26.800  14.584   3.518  0.00  0.00     0.002 C 
HETATM   45  C   UNK N   1      25.621  14.198   4.421  0.00  0.00    -0.001 C 
HETATM   46  C   UNK N   1      27.998  13.625   3.593  0.00  0.00    -0.032 C 
HETATM   47  C   UNK N   1      25.858  14.338   5.940  0.00  0.00    -0.011 C 
HETATM   48  C   UNK N   1      25.149  12.764   4.078  0.00  0.00     0.001 C 
HETATM   49  C   UNK N   1      24.626  13.929   6.756  0.00  0.00     0.037 C 
HETATM   50  C   UNK N   1      26.268  15.740   6.343  0.00  0.00     0.010 C 
HETATM   51  C   UNK N   1      23.440  13.426   5.880  0.00  0.00     0.133 C 
HETATM   52  C   UNK N   1      23.970  12.276   4.990  0.00  0.00    -0.017 C 
HETATM   53  C   UNK N   1      22.859  11.744   4.101  0.00  0.00     0.018 C 
HETATM   54  C   UNK N   1      24.378  11.128   5.916  0.00  0.00     0.018 C 
HETATM   55  C   UNK N   1      26.311  11.745   3.963  0.00  0.00     0.007 C 
HETATM   56  C   UNK N   1      27.487  12.255   3.116  0.00  0.00     0.011 C 
HETATM   57  C   UNK N   1      28.486  13.477   5.042  0.00  0.00     0.016 C 
HETATM   58  C   UNK N   1      30.383  13.354   2.710  0.00  0.00     0.011 C 
HETATM   59  C   UNK N   1      28.654  14.264   1.212  0.00  0.00     0.016 C 
HETATM   60  C   UNK N   1      31.133  13.822   3.946  0.00  0.00     0.009 C 
BRANCH  41  61
HETATM   61  O   UNK N   1      28.748  17.783   3.246  0.00  0.00    -0.395 OA
HETATM   62  H   UNK N   1      29.585  18.201   2.991  0.00  0.00     0.210 HD
ENDBRANCH  41  61
BRANCH  51  63
HETATM   63  O   UNK N   1      22.854  14.437   5.067  0.00  0.00    -0.352 OA
BRANCH  63  64
HETATM   64  C   UNK N   1      21.709  14.953   5.695  0.00  0.00     0.292 C 
HETATM   65  C   UNK N   1      21.492  16.449   5.442  0.00  0.00     0.211 C 
HETATM   66  C   UNK N   1      20.419  17.003   6.398  0.00  0.00     0.183 C 
HETATM   67  C   UNK N   1      19.535  15.851   6.891  0.00  0.00     0.180 C 
HETATM   68  C   UNK N   1      20.397  14.741   7.579  0.00  0.00     0.179 C 
HETATM   69  O   UNK N   1      21.725  14.679   7.073  0.00  0.00    -0.348 OA
BRANCH  65  70
HETATM   70  O   UNK N   1      21.089  16.627   4.116  0.00  0.00    -0.346 OA
BRANCH  70  71
HETATM   71  C   UNK N   1      21.228  17.996   3.887  0.00  0.00     0.292 C 
HETATM   72  C   UNK N   1      20.222  18.470   2.833  0.00  0.00     0.204 C 
HETATM   73  C   UNK N   1      20.377  19.986   2.706  0.00  0.00     0.183 C 
HETATM   74  O   UNK N   1      20.481  17.842   1.610  0.00  0.00    -0.388 OA
HETATM   75  C   UNK N   1      21.841  20.376   2.485  0.00  0.00     0.180 C 
HETATM   76  C   UNK N   1      22.693  19.684   3.563  0.00  0.00     0.179 C 
HETATM   77  O   UNK N   1      22.540  18.286   3.470  0.00  0.00    -0.348 OA
HETATM   78  H   UNK N   1      20.488  17.412   0.740  0.00  0.00     0.210 HD
BRANCH  73  79
HETATM   79  O   UNK N   1      19.571  20.482   1.681  0.00  0.00    -0.390 OA
HETATM   80  H   UNK N   1      19.273  19.953   0.924  0.00  0.00     0.210 HD
ENDBRANCH  73  79
BRANCH  75  81
HETATM   81  O   UNK N   1      21.971  21.763   2.582  0.00  0.00    -0.390 OA
HETATM   82  H   UNK N   1      22.660  22.354   2.925  0.00  0.00     0.210 HD
ENDBRANCH  75  81
BRANCH  76  83
HETATM   83  C   UNK N   1      24.169  20.047   3.437  0.00  0.00     0.198 C 
BRANCH  83  84
HETATM   84  O   UNK N   1      24.416  20.683   2.220  0.00  0.00    -0.398 OA
HETATM   85  H   UNK N   1      24.360  20.841   1.263  0.00  0.00     0.209 HD
ENDBRANCH  83  84
ENDBRANCH  76  83
ENDBRANCH  70  71
ENDBRANCH  65  70
BRANCH  66  86
HETATM   86  O   UNK N   1      21.040  17.619   7.487  0.00  0.00    -0.390 OA
HETATM   87  H   UNK N   1      21.205  17.822   8.422  0.00  0.00     0.210 HD
ENDBRANCH  66  86
BRANCH  67  88
HETATM   88  O   UNK N   1      18.472  16.296   7.678  0.00  0.00    -0.390 OA
HETATM   89  H   UNK N   1      17.635  15.806   7.708  0.00  0.00     0.210 HD
ENDBRANCH  67  88
BRANCH  68  90
HETATM   90  C   UNK N   1      20.498  14.935   9.088  0.00  0.00     0.198 C 
BRANCH  90  91
HETATM   91  O   UNK N   1      19.508  14.200   9.739  0.00  0.00    -0.398 OA
HETATM   92  H   UNK N   1      18.839  13.629   9.328  0.00  0.00     0.209 HD
ENDBRANCH  90  91
ENDBRANCH  68  90
ENDBRANCH  63  64
ENDBRANCH  51  63
ENDBRANCH  31  39
ENDBRANCH  30  31
ENDBRANCH  22  30
ENDBRANCH  17  18
ENDBRANCH  16  17
ENDBRANCH   8  16
ENDBRANCH   1   4
TORSDOF 29
ENDMDL
MODEL 2
REMARK VINA RESULT:      -8.9      1.844     13.051
REMARK  29 active torsions:
REMARK  status: ('A' for Active; 'I' for Inactive)
REMARK    1  A    between atoms: C_3  and  C_2 
REMARK    2  A    between atoms: C_4  and  C_3 
REMARK    3  A    between atoms: C_5  and  C_4 
REMARK    4  A    between atoms: C_5  and  O_6 
REMARK    5  A    between atoms: C_35  and  C_5 
REMARK    6  A    between atoms: C_7  and  O_6 
REMARK    7  A    between atoms: C_9  and  O_14 
REMARK    8  A    between atoms: C_10  and  O_15 
REMARK    9  A    between atoms: C_11  and  O_16 
REMARK   10  A    between atoms: C_12  and  C_17 
REMARK   11  A    between atoms: C_17  and  O_18 
REMARK   12  A    between atoms: C_50  and  O_18 
REMARK   13  A    between atoms: C_26  and  O_44 
REMARK   14  A    between atoms: C_32  and  O_38 
REMARK   15  A    between atoms: C_56  and  O_44 
REMARK   16  A    between atoms: C_46  and  C_45 
REMARK   17  A    between atoms: C_47  and  O_54 
REMARK   18  A    between atoms: C_48  and  O_52 
REMARK   19  A    between atoms: C_49  and  O_53 
REMARK   20  A    between atoms: C_57  and  O_66 
REMARK   21  A    between atoms: C_58  and  O_62 
REMARK   22  A    between atoms: C_59  and  O_63 
REMARK   23  A    between atoms: C_60  and  C_64 
REMARK   24  A    between atoms: C_64  and  O_65 
REMARK   25  A    between atoms: C_67  and  O_66 
REMARK   26  A    between atoms: C_69  and  O_73 
REMARK   27  A    between atoms: C_70  and  O_74 
REMARK   28  A    between atoms: C_71  and  C_75 
REMARK   29  A    between atoms: C_75  and  O_76 
ROOT
HETATM    1  C   UNK N   1      21.816  19.102   4.192  0.00  0.00     0.198 C 
HETATM    2  O   UNK N   1      21.619  18.755   5.530  0.00  0.00    -0.398 OA
HETATM    3  H   UNK N   1      21.505  18.429   6.436  0.00  0.00     0.209 HD
ENDROOT
BRANCH   1   4
HETATM    4  C   UNK N   1      20.535  19.652   3.548  0.00  0.00     0.179 C 
HETATM    5  C   UNK N   1      20.731  20.645   2.391  0.00  0.00     0.180 C 
HETATM    6  C   UNK N   1      21.149  19.897   1.137  0.00  0.00     0.183 C 
HETATM    7  C   UNK N   1      20.075  18.865   0.851  0.00  0.00     0.204 C 
HETATM    8  C   UNK N   1      19.811  17.960   2.074  0.00  0.00     0.291 C 
HETATM    9  O   UNK N   1      19.553  18.660   3.281  0.00  0.00    -0.348 OA
BRANCH   5  10
HETATM   10  O   UNK N   1      21.670  21.622   2.727  0.00  0.00    -0.390 OA
HETATM   11  H   UNK N   1      22.495  21.695   2.223  0.00  0.00     0.210 HD
ENDBRANCH   5  10
BRANCH   6  12
HETATM   12  O   UNK N   1      21.242  20.786   0.065  0.00  0.00    -0.390 OA
HETATM   13  H   UNK N   1      20.653  21.544  -0.078  0.00  0.00     0.210 HD
ENDBRANCH   6  12
BRANCH   7  14
HETATM   14  O   UNK N   1      20.397  18.108  -0.277  0.00  0.00    -0.388 OA
HETATM   15  H   UNK N   1      20.387  17.319  -0.842  0.00  0.00     0.210 HD
ENDBRANCH   7  14
BRANCH   8  16
HETATM   16  O   UNK N   1      20.715  16.904   2.254  0.00  0.00    -0.356 OA
BRANCH  16  17
HETATM   17  C   UNK N   1      19.931  15.741   2.247  0.00  0.00     0.205 C 
BRANCH  17  18
HETATM   18  C   UNK N   1      20.052  14.960   3.555  0.00  0.00     0.180 C 
HETATM   19  C   UNK N   1      19.814  15.889   4.768  0.00  0.00     0.180 C 
HETATM   20  C   UNK N   1      20.477  15.300   6.011  0.00  0.00     0.183 C 
HETATM   21  C   UNK N   1      21.990  15.171   5.739  0.00  0.00     0.204 C 
HETATM   22  C   UNK N   1      22.274  14.943   4.240  0.00  0.00     0.292 C 
HETATM   23  O   UNK N   1      21.253  14.185   3.624  0.00  0.00    -0.348 OA
BRANCH  19  24
HETATM   24  O   UNK N   1      18.447  16.088   4.967  0.00  0.00    -0.390 OA
HETATM   25  H   UNK N   1      17.830  16.062   4.219  0.00  0.00     0.210 HD
ENDBRANCH  19  24
BRANCH  20  26
HETATM   26  O   UNK N   1      19.915  14.048   6.287  0.00  0.00    -0.390 OA
HETATM   27  H   UNK N   1      19.883  13.079   6.305  0.00  0.00     0.210 HD
ENDBRANCH  20  26
BRANCH  21  28
HETATM   28  O   UNK N   1      22.549  14.169   6.537  0.00  0.00    -0.388 OA
HETATM   29  H   UNK N   1      23.402  13.834   6.853  0.00  0.00     0.210 HD
ENDBRANCH  21  28
BRANCH  22  30
HETATM   30  O   UNK N   1      23.559  14.382   4.025  0.00  0.00    -0.348 OA
BRANCH  30  31
HETATM   31  C   UNK N   1      24.255  15.001   2.939  0.00  0.00     0.065 C 
HETATM   32  C   UNK N   1      23.572  14.775   1.572  0.00  0.00     0.046 C 
BRANCH  31  33
HETATM   33  C   UNK N   1      24.227  16.518   3.190  0.00  0.00     0.042 C 
BRANCH  33  34
HETATM   34  C   UNK N   1      25.588  17.201   3.048  0.00  0.00     0.030 C 
BRANCH  34  35
HETATM   35  C   UNK N   1      25.828  18.113   4.212  0.00  0.00    -0.025 C 
HETATM   36  C   UNK N   1      25.750  19.448   4.112  0.00  0.00    -0.091 C 
HETATM   37  C   UNK N   1      26.026  20.285   5.311  0.00  0.00     0.042 C 
HETATM   38  C   UNK N   1      25.387  20.121   2.827  0.00  0.00     0.042 C 
ENDBRANCH  34  35
ENDBRANCH  33  34
ENDBRANCH  31  33
BRANCH  31  39
HETATM   39  C   UNK N   1      25.718  14.491   2.875  0.00  0.00     0.027 C 
HETATM   40  C   UNK N   1      26.219  13.685   4.089  0.00  0.00     0.030 C 
HETATM   41  C   UNK N   1      26.928  14.606   5.104  0.00  0.00     0.123 C 
HETATM   42  C   UNK N   1      27.111  12.579   3.513  0.00  0.00    -0.030 C 
HETATM   43  C   UNK N   1      28.239  14.081   5.692  0.00  0.00     0.038 C 
HETATM   44  C   UNK N   1      29.175  13.415   4.674  0.00  0.00     0.002 C 
HETATM   45  C   UNK N   1      30.616  13.940   4.628  0.00  0.00    -0.001 C 
HETATM   46  C   UNK N   1      28.590  13.044   3.302  0.00  0.00    -0.032 C 
HETATM   47  C   UNK N   1      30.810  15.327   3.979  0.00  0.00    -0.011 C 
HETATM   48  C   UNK N   1      31.531  12.893   3.948  0.00  0.00     0.001 C 
HETATM   49  C   UNK N   1      32.280  15.764   3.980  0.00  0.00     0.037 C 
HETATM   50  C   UNK N   1      29.979  16.406   4.642  0.00  0.00     0.010 C 
HETATM   51  C   UNK N   1      33.243  14.701   4.588  0.00  0.00     0.133 C 
HETATM   52  C   UNK N   1      33.019  13.374   3.823  0.00  0.00    -0.017 C 
HETATM   53  C   UNK N   1      33.927  12.289   4.376  0.00  0.00     0.018 C 
HETATM   54  C   UNK N   1      33.444  13.602   2.371  0.00  0.00     0.018 C 
HETATM   55  C   UNK N   1      30.946  12.327   2.631  0.00  0.00     0.007 C 
HETATM   56  C   UNK N   1      29.472  11.913   2.747  0.00  0.00     0.011 C 
HETATM   57  C   UNK N   1      28.673  14.236   2.336  0.00  0.00     0.016 C 
HETATM   58  C   UNK N   1      26.411  12.256   2.220  0.00  0.00     0.011 C 
HETATM   59  C   UNK N   1      27.042  11.355   4.423  0.00  0.00     0.016 C 
HETATM   60  C   UNK N   1      25.942  13.591   1.665  0.00  0.00     0.009 C 
BRANCH  41  61
HETATM   61  O   UNK N   1      26.058  14.900   6.152  0.00  0.00    -0.395 OA
HETATM   62  H   UNK N   1      25.546  15.712   6.291  0.00  0.00     0.210 HD
ENDBRANCH  41  61
BRANCH  51  63
HETATM   63  O   UNK N   1      33.063  14.491   5.985  0.00  0.00    -0.352 OA
BRANCH  63  64
HETATM   64  C   UNK N   1      33.573  15.583   6.703  0.00  0.00     0.292 C 
HETATM   65  C   UNK N   1      34.446  15.180   7.897  0.00  0.00     0.211 C 
HETATM   66  C   UNK N   1      34.705  16.396   8.806  0.00  0.00     0.183 C 
HETATM   67  C   UNK N   1      34.509  17.685   7.997  0.00  0.00     0.180 C 
HETATM   68  C   UNK N   1      33.077  17.736   7.367  0.00  0.00     0.179 C 
HETATM   69  O   UNK N   1      32.539  16.444   7.111  0.00  0.00    -0.348 OA
BRANCH  65  70
HETATM   70  O   UNK N   1      35.657  14.674   7.418  0.00  0.00    -0.346 OA
BRANCH  70  71
HETATM   71  C   UNK N   1      36.379  14.345   8.565  0.00  0.00     0.292 C 
HETATM   72  C   UNK N   1      37.570  13.448   8.213  0.00  0.00     0.204 C 
HETATM   73  C   UNK N   1      38.354  13.207   9.503  0.00  0.00     0.183 C 
HETATM   74  O   UNK N   1      37.114  12.238   7.678  0.00  0.00    -0.388 OA
HETATM   75  C   UNK N   1      37.436  12.721  10.628  0.00  0.00     0.180 C 
HETATM   76  C   UNK N   1      36.236  13.680  10.719  0.00  0.00     0.179 C 
HETATM   77  O   UNK N   1      35.542  13.698   9.493  0.00  0.00    -0.348 OA
HETATM   78  H   UNK N   1      36.942  11.406   7.209  0.00  0.00     0.210 HD
BRANCH  73  79
HETATM   79  O   UNK N   1      39.396  12.304   9.288  0.00  0.00    -0.390 OA
HETATM   80  H   UNK N   1      39.267  11.393   8.980  0.00  0.00     0.210 HD
ENDBRANCH  73  79
BRANCH  75  81
HETATM   81  O   UNK N   1      38.142  12.713  11.832  0.00  0.00    -0.390 OA
HETATM   82  H   UNK N   1      38.932  12.246  12.148  0.00  0.00     0.210 HD
ENDBRANCH  75  81
BRANCH  76  83
HETATM   83  C   UNK N   1      35.283  13.288  11.843  0.00  0.00     0.198 C 
BRANCH  83  84
HETATM   84  O   UNK N   1      34.100  14.023  11.763  0.00  0.00    -0.398 OA
HETATM   85  H   UNK N   1      33.488  14.758  11.931  0.00  0.00     0.209 HD
ENDBRANCH  83  84
ENDBRANCH  76  83
ENDBRANCH  70  71
ENDBRANCH  65  70
BRANCH  66  86
HETATM   86  O   UNK N   1      33.811  16.373   9.880  0.00  0.00    -0.390 OA
HETATM   87  H   UNK N   1      33.361  16.707  10.672  0.00  0.00     0.210 HD
ENDBRANCH  66  86
BRANCH  67  88
HETATM   88  O   UNK N   1      34.833  18.827   8.731  0.00  0.00    -0.390 OA
HETATM   89  H   UNK N   1      34.146  19.335   9.191  0.00  0.00     0.210 HD
ENDBRANCH  67  88
BRANCH  68  90
HETATM   90  C   UNK N   1      32.078  18.473   8.252  0.00  0.00     0.198 C 
BRANCH  90  91
HETATM   91  O   UNK N   1      31.387  17.571   9.060  0.00  0.00    -0.398 OA
HETATM   92  H   UNK N   1      31.609  17.313   9.969  0.00  0.00     0.209 HD
ENDBRANCH  90  91
ENDBRANCH  68  90
ENDBRANCH  63  64
ENDBRANCH  51  63
ENDBRANCH  31  39
ENDBRANCH  30  31
ENDBRANCH  22  30
ENDBRANCH  17  18
ENDBRANCH  16  17
ENDBRANCH   8  16
ENDBRANCH   1   4
TORSDOF 29
ENDMDL
MODEL 3
REMARK VINA RESULT:      -8.9      2.467     11.871
REMARK  29 active torsions:
REMARK  status: ('A' for Active; 'I' for Inactive)
REMARK    1  A    between atoms: C_3  and  C_2 
REMARK    2  A    between atoms: C_4  and  C_3 
REMARK    3  A    between atoms: C_5  and  C_4 
REMARK    4  A    between atoms: C_5  and  O_6 
REMARK    5  A    between atoms: C_35  and  C_5 
REMARK    6  A    between atoms: C_7  and  O_6 
REMARK    7  A    between atoms: C_9  and  O_14 
REMARK    8  A    between atoms: C_10  and  O_15 
REMARK    9  A    between atoms: C_11  and  O_16 
REMARK   10  A    between atoms: C_12  and  C_17 
REMARK   11  A    between atoms: C_17  and  O_18 
REMARK   12  A    between atoms: C_50  and  O_18 
REMARK   13  A    between atoms: C_26  and  O_44 
REMARK   14  A    between atoms: C_32  and  O_38 
REMARK   15  A    between atoms: C_56  and  O_44 
REMARK   16  A    between atoms: C_46  and  C_45 
REMARK   17  A    between atoms: C_47  and  O_54 
REMARK   18  A    between atoms: C_48  and  O_52 
REMARK   19  A    between atoms: C_49  and  O_53 
REMARK   20  A    between atoms: C_57  and  O_66 
REMARK   21  A    between atoms: C_58  and  O_62 
REMARK   22  A    between atoms: C_59  and  O_63 
REMARK   23  A    between atoms: C_60  and  C_64 
REMARK   24  A    between atoms: C_64  and  O_65 
REMARK   25  A    between atoms: C_67  and  O_66 
REMARK   26  A    between atoms: C_69  and  O_73 
REMARK   27  A    between atoms: C_70  and  O_74 
REMARK   28  A    between atoms: C_71  and  C_75 
REMARK   29  A    between atoms: C_75  and  O_76 
ROOT
HETATM    1  C   UNK N   1      25.060  13.786   9.494  0.00  0.00     0.198 C 
HETATM    2  O   UNK N   1      25.964  13.865  10.554  0.00  0.00    -0.398 OA
HETATM    3  H   UNK N   1      26.657  13.937  11.229  0.00  0.00     0.209 HD
ENDROOT
BRANCH   1   4
HETATM    4  C   UNK N   1      24.412  12.398   9.393  0.00  0.00     0.179 C 
HETATM    5  C   UNK N   1      23.915  11.784  10.712  0.00  0.00     0.180 C 
HETATM    6  C   UNK N   1      22.622  12.458  11.138  0.00  0.00     0.183 C 
HETATM    7  C   UNK N   1      21.632  12.287  10.001  0.00  0.00     0.204 C 
HETATM    8  C   UNK N   1      22.206  12.799   8.662  0.00  0.00     0.291 C 
HETATM    9  O   UNK N   1      23.481  12.273   8.326  0.00  0.00    -0.348 OA
BRANCH   5  10
HETATM   10  O   UNK N   1      24.887  11.893  11.709  0.00  0.00    -0.390 OA
HETATM   11  H   UNK N   1      24.781  11.412  12.544  0.00  0.00     0.210 HD
ENDBRANCH   5  10
BRANCH   6  12
HETATM   12  O   UNK N   1      22.124  11.842  12.288  0.00  0.00    -0.390 OA
HETATM   13  H   UNK N   1      22.669  11.533  13.030  0.00  0.00     0.210 HD
ENDBRANCH   6  12
BRANCH   7  14
HETATM   14  O   UNK N   1      20.417  12.907  10.299  0.00  0.00    -0.388 OA
HETATM   15  H   UNK N   1      19.663  13.495  10.134  0.00  0.00     0.210 HD
ENDBRANCH   7  14
BRANCH   8  16
HETATM   16  O   UNK N   1      22.132  14.184   8.460  0.00  0.00    -0.356 OA
BRANCH  16  17
HETATM   17  C   UNK N   1      22.039  14.351   7.070  0.00  0.00     0.205 C 
BRANCH  17  18
HETATM   18  C   UNK N   1      22.073  15.824   6.665  0.00  0.00     0.180 C 
HETATM   19  C   UNK N   1      20.641  16.362   6.443  0.00  0.00     0.180 C 
HETATM   20  C   UNK N   1      20.679  17.578   5.521  0.00  0.00     0.183 C 
HETATM   21  C   UNK N   1      21.291  17.145   4.172  0.00  0.00     0.204 C 
HETATM   22  C   UNK N   1      22.293  15.986   4.356  0.00  0.00     0.292 C 
HETATM   23  O   UNK N   1      22.979  16.079   5.587  0.00  0.00    -0.348 OA
BRANCH  19  24
HETATM   24  O   UNK N   1      20.041  16.670   7.665  0.00  0.00    -0.390 OA
HETATM   25  H   UNK N   1      20.558  16.659   8.486  0.00  0.00     0.210 HD
ENDBRANCH  19  24
BRANCH  20  26
HETATM   26  O   UNK N   1      21.450  18.585   6.114  0.00  0.00    -0.390 OA
HETATM   27  H   UNK N   1      21.807  19.480   6.213  0.00  0.00     0.210 HD
ENDBRANCH  20  26
BRANCH  21  28
HETATM   28  O   UNK N   1      21.870  18.238   3.522  0.00  0.00    -0.388 OA
HETATM   29  H   UNK N   1      22.118  19.165   3.663  0.00  0.00     0.210 HD
ENDBRANCH  21  28
BRANCH  22  30
HETATM   30  O   UNK N   1      23.181  15.875   3.256  0.00  0.00    -0.348 OA
BRANCH  30  31
HETATM   31  C   UNK N   1      23.262  14.541   2.746  0.00  0.00     0.065 C 
HETATM   32  C   UNK N   1      22.421  13.529   3.554  0.00  0.00     0.046 C 
BRANCH  31  33
HETATM   33  C   UNK N   1      22.666  14.562   1.328  0.00  0.00     0.042 C 
BRANCH  33  34
HETATM   34  C   UNK N   1      21.588  13.504   1.087  0.00  0.00     0.030 C 
BRANCH  34  35
HETATM   35  C   UNK N   1      20.291  14.165   0.729  0.00  0.00    -0.025 C 
HETATM   36  C   UNK N   1      19.188  13.470   0.417  0.00  0.00    -0.091 C 
HETATM   37  C   UNK N   1      17.946  14.203   0.051  0.00  0.00     0.042 C 
HETATM   38  C   UNK N   1      19.170  11.975   0.432  0.00  0.00     0.042 C 
ENDBRANCH  34  35
ENDBRANCH  33  34
ENDBRANCH  31  33
BRANCH  31  39
HETATM   39  C   UNK N   1      24.738  14.069   2.704  0.00  0.00     0.027 C 
HETATM   40  C   UNK N   1      25.190  13.121   3.832  0.00  0.00     0.030 C 
HETATM   41  C   UNK N   1      25.816  13.914   4.998  0.00  0.00     0.123 C 
HETATM   42  C   UNK N   1      26.140  12.115   3.173  0.00  0.00    -0.030 C 
HETATM   43  C   UNK N   1      27.105  13.340   5.590  0.00  0.00     0.038 C 
HETATM   44  C   UNK N   1      28.113  12.828   4.553  0.00  0.00     0.002 C 
HETATM   45  C   UNK N   1      29.541  13.380   4.661  0.00  0.00    -0.001 C 
HETATM   46  C   UNK N   1      27.617  12.629   3.112  0.00  0.00    -0.032 C 
HETATM   47  C   UNK N   1      29.737  14.842   4.208  0.00  0.00    -0.011 C 
HETATM   48  C   UNK N   1      30.519  12.446   3.908  0.00  0.00     0.001 C 
HETATM   49  C   UNK N   1      31.193  15.301   4.353  0.00  0.00     0.037 C 
HETATM   50  C   UNK N   1      28.843  15.812   4.954  0.00  0.00     0.010 C 
HETATM   51  C   UNK N   1      32.146  14.185   4.876  0.00  0.00     0.133 C 
HETATM   52  C   UNK N   1      31.999  12.965   3.934  0.00  0.00    -0.017 C 
HETATM   53  C   UNK N   1      32.901  11.833   4.396  0.00  0.00     0.018 C 
HETATM   54  C   UNK N   1      32.500  13.387   2.552  0.00  0.00     0.018 C 
HETATM   55  C   UNK N   1      30.024  12.046   2.495  0.00  0.00     0.007 C 
HETATM   56  C   UNK N   1      28.556  11.595   2.469  0.00  0.00     0.011 C 
HETATM   57  C   UNK N   1      27.725  13.937   2.314  0.00  0.00     0.016 C 
HETATM   58  C   UNK N   1      25.523  11.951   1.810  0.00  0.00     0.011 C 
HETATM   59  C   UNK N   1      26.050  10.782   3.912  0.00  0.00     0.016 C 
HETATM   60  C   UNK N   1      25.053  13.338   1.404  0.00  0.00     0.009 C 
BRANCH  41  61
HETATM   61  O   UNK N   1      24.882  14.055   6.022  0.00  0.00    -0.395 OA
HETATM   62  H   UNK N   1      24.207  13.418   6.305  0.00  0.00     0.210 HD
ENDBRANCH  41  61
BRANCH  51  63
HETATM   63  O   UNK N   1      31.893  13.792   6.220  0.00  0.00    -0.352 OA
BRANCH  63  64
HETATM   64  C   UNK N   1      32.412  14.749   7.106  0.00  0.00     0.292 C 
HETATM   65  C   UNK N   1      33.010  14.146   8.381  0.00  0.00     0.211 C 
HETATM   66  C   UNK N   1      33.268  15.249   9.425  0.00  0.00     0.183 C 
HETATM   67  C   UNK N   1      33.382  16.603   8.714  0.00  0.00     0.180 C 
HETATM   68  C   UNK N   1      32.097  16.901   7.872  0.00  0.00     0.179 C 
HETATM   69  O   UNK N   1      31.446  15.720   7.420  0.00  0.00    -0.348 OA
BRANCH  65  70
HETATM   70  O   UNK N   1      34.208  13.504   8.057  0.00  0.00    -0.346 OA
BRANCH  70  71
HETATM   71  C   UNK N   1      34.986  13.609   9.210  0.00  0.00     0.292 C 
HETATM   72  C   UNK N   1      36.426  13.991   8.854  0.00  0.00     0.204 C 
HETATM   73  C   UNK N   1      37.186  14.172  10.169  0.00  0.00     0.183 C 
HETATM   74  O   UNK N   1      37.010  12.983   8.080  0.00  0.00    -0.388 OA
HETATM   75  C   UNK N   1      37.003  12.960  11.086  0.00  0.00     0.180 C 
HETATM   76  C   UNK N   1      35.497  12.661  11.195  0.00  0.00     0.179 C 
HETATM   77  O   UNK N   1      34.968  12.393   9.917  0.00  0.00    -0.348 OA
HETATM   78  H   UNK N   1      37.500  12.415   7.464  0.00  0.00     0.210 HD
BRANCH  73  79
HETATM   79  O   UNK N   1      38.539  14.413   9.929  0.00  0.00    -0.390 OA
HETATM   80  H   UNK N   1      39.016  14.091   9.147  0.00  0.00     0.210 HD
ENDBRANCH  73  79
BRANCH  75  81
HETATM   81  O   UNK N   1      37.532  13.246  12.346  0.00  0.00    -0.390 OA
HETATM   82  H   UNK N   1      38.127  13.932  12.688  0.00  0.00     0.210 HD
ENDBRANCH  75  81
BRANCH  76  83
HETATM   83  C   UNK N   1      35.220  11.482  12.123  0.00  0.00     0.198 C 
BRANCH  83  84
HETATM   84  O   UNK N   1      34.334  11.852  13.135  0.00  0.00    -0.398 OA
HETATM   85  H   UNK N   1      33.526  11.823  13.674  0.00  0.00     0.209 HD
ENDBRANCH  83  84
ENDBRANCH  76  83
ENDBRANCH  70  71
ENDBRANCH  65  70
BRANCH  66  86
HETATM   86  O   UNK N   1      32.210  15.283  10.337  0.00  0.00    -0.390 OA
HETATM   87  H   UNK N   1      31.763  15.154  11.189  0.00  0.00     0.210 HD
ENDBRANCH  66  86
BRANCH  67  88
HETATM   88  O   UNK N   1      33.724  17.636   9.589  0.00  0.00    -0.390 OA
HETATM   89  H   UNK N   1      34.369  18.313   9.332  0.00  0.00     0.210 HD
ENDBRANCH  67  88
BRANCH  68  90
HETATM   90  C   UNK N   1      31.068  17.714   8.650  0.00  0.00     0.198 C 
BRANCH  90  91
HETATM   91  O   UNK N   1      30.241  16.869   9.390  0.00  0.00    -0.398 OA
HETATM   92  H   UNK N   1      30.346  15.913   9.516  0.00  0.00     0.209 HD
ENDBRANCH  90  91
ENDBRANCH  68  90
ENDBRANCH  63  64
ENDBRANCH  51  63
ENDBRANCH  31  39
ENDBRANCH  30  31
ENDBRANCH  22  30
ENDBRANCH  17  18
ENDBRANCH  16  17
ENDBRANCH   8  16
ENDBRANCH   1   4
TORSDOF 29
ENDMDL
MODEL 4
REMARK VINA RESULT:      -8.1      4.083      8.886
REMARK  29 active torsions:
REMARK  status: ('A' for Active; 'I' for Inactive)
REMARK    1  A    between atoms: C_3  and  C_2 
REMARK    2  A    between atoms: C_4  and  C_3 
REMARK    3  A    between atoms: C_5  and  C_4 
REMARK    4  A    between atoms: C_5  and  O_6 
REMARK    5  A    between atoms: C_35  and  C_5 
REMARK    6  A    between atoms: C_7  and  O_6 
REMARK    7  A    between atoms: C_9  and  O_14 
REMARK    8  A    between atoms: C_10  and  O_15 
REMARK    9  A    between atoms: C_11  and  O_16 
REMARK   10  A    between atoms: C_12  and  C_17 
REMARK   11  A    between atoms: C_17  and  O_18 
REMARK   12  A    between atoms: C_50  and  O_18 
REMARK   13  A    between atoms: C_26  and  O_44 
REMARK   14  A    between atoms: C_32  and  O_38 
REMARK   15  A    between atoms: C_56  and  O_44 
REMARK   16  A    between atoms: C_46  and  C_45 
REMARK   17  A    between atoms: C_47  and  O_54 
REMARK   18  A    between atoms: C_48  and  O_52 
REMARK   19  A    between atoms: C_49  and  O_53 
REMARK   20  A    between atoms: C_57  and  O_66 
REMARK   21  A    between atoms: C_58  and  O_62 
REMARK   22  A    between atoms: C_59  and  O_63 
REMARK   23  A    between atoms: C_60  and  C_64 
REMARK   24  A    between atoms: C_64  and  O_65 
REMARK   25  A    between atoms: C_67  and  O_66 
REMARK   26  A    between atoms: C_69  and  O_73 
REMARK   27  A    between atoms: C_70  and  O_74 
REMARK   28  A    between atoms: C_71  and  C_75 
REMARK   29  A    between atoms: C_75  and  O_76 
ROOT
HETATM    1  C   UNK N   1      35.314  11.893  17.453  0.00  0.00     0.198 C 
HETATM    2  O   UNK N   1      34.552  10.803  17.032  0.00  0.00    -0.398 OA
HETATM    3  H   UNK N   1      34.098  10.012  16.700  0.00  0.00     0.209 HD
ENDROOT
BRANCH   1   4
HETATM    4  C   UNK N   1      34.801  13.215  16.864  0.00  0.00     0.179 C 
HETATM    5  C   UNK N   1      35.801  14.382  16.844  0.00  0.00     0.180 C 
HETATM    6  C   UNK N   1      36.813  14.173  15.731  0.00  0.00     0.183 C 
HETATM    7  C   UNK N   1      36.034  14.044  14.435  0.00  0.00     0.204 C 
HETATM    8  C   UNK N   1      34.951  12.947  14.526  0.00  0.00     0.291 C 
HETATM    9  O   UNK N   1      34.086  13.063  15.645  0.00  0.00    -0.348 OA
BRANCH   5  10
HETATM   10  O   UNK N   1      36.438  14.514  18.079  0.00  0.00    -0.390 OA
HETATM   11  H   UNK N   1      35.921  14.738  18.869  0.00  0.00     0.210 HD
ENDBRANCH   5  10
BRANCH   6  12
HETATM   12  O   UNK N   1      37.667  15.274  15.655  0.00  0.00    -0.390 OA
HETATM   13  H   UNK N   1      37.399  16.165  15.377  0.00  0.00     0.210 HD
ENDBRANCH   6  12
BRANCH   7  14
HETATM   14  O   UNK N   1      36.891  13.819  13.357  0.00  0.00    -0.388 OA
HETATM   15  H   UNK N   1      37.636  13.403  12.894  0.00  0.00     0.210 HD
ENDBRANCH   7  14
BRANCH   8  16
HETATM   16  O   UNK N   1      35.401  11.633  14.336  0.00  0.00    -0.356 OA
BRANCH  16  17
HETATM   17  C   UNK N   1      34.376  10.991  13.623  0.00  0.00     0.205 C 
BRANCH  17  18
HETATM   18  C   UNK N   1      34.717   9.533  13.316  0.00  0.00     0.180 C 
HETATM   19  C   UNK N   1      35.931   9.070  14.155  0.00  0.00     0.180 C 
HETATM   20  C   UNK N   1      36.614   7.888  13.472  0.00  0.00     0.183 C 
HETATM   21  C   UNK N   1      37.085   8.341  12.074  0.00  0.00     0.204 C 
HETATM   22  C   UNK N   1      36.172   9.446  11.505  0.00  0.00     0.292 C 
HETATM   23  O   UNK N   1      34.831   9.278  11.913  0.00  0.00    -0.348 OA
BRANCH  19  24
HETATM   24  O   UNK N   1      35.530   8.745  15.452  0.00  0.00    -0.390 OA
HETATM   25  H   UNK N   1      36.077   8.991  16.215  0.00  0.00     0.210 HD
ENDBRANCH  19  24
BRANCH  20  26
HETATM   26  O   UNK N   1      35.707   6.826  13.368  0.00  0.00    -0.390 OA
HETATM   27  H   UNK N   1      35.398   5.914  13.483  0.00  0.00     0.210 HD
ENDBRANCH  20  26
BRANCH  21  28
HETATM   28  O   UNK N   1      37.185   7.247  11.211  0.00  0.00    -0.388 OA
HETATM   29  H   UNK N   1      37.243   7.022  10.269  0.00  0.00     0.210 HD
ENDBRANCH  21  28
BRANCH  22  30
HETATM   30  O   UNK N   1      36.293   9.556  10.095  0.00  0.00    -0.348 OA
BRANCH  30  31
HETATM   31  C   UNK N   1      37.306  10.486   9.701  0.00  0.00     0.065 C 
HETATM   32  C   UNK N   1      37.937  11.240  10.891  0.00  0.00     0.046 C 
BRANCH  31  33
HETATM   33  C   UNK N   1      38.440   9.671   9.056  0.00  0.00     0.042 C 
BRANCH  33  34
HETATM   34  C   UNK N   1      39.745   9.674   9.854  0.00  0.00     0.030 C 
BRANCH  34  35
HETATM   35  C   UNK N   1      40.881   9.230   8.982  0.00  0.00    -0.025 C 
HETATM   36  C   UNK N   1      41.751  10.091   8.437  0.00  0.00    -0.091 C 
HETATM   37  C   UNK N   1      42.838   9.571   7.563  0.00  0.00     0.042 C 
HETATM   38  C   UNK N   1      41.665  11.563   8.687  0.00  0.00     0.042 C 
ENDBRANCH  34  35
ENDBRANCH  33  34
ENDBRANCH  31  33
BRANCH  31  39
HETATM   39  C   UNK N   1      36.733  11.510   8.687  0.00  0.00     0.027 C 
HETATM   40  C   UNK N   1      35.648  12.468   9.215  0.00  0.00     0.030 C 
HETATM   41  C   UNK N   1      34.238  11.902   8.946  0.00  0.00     0.123 C 
HETATM   42  C   UNK N   1      35.923  13.817   8.544  0.00  0.00    -0.030 C 
HETATM   43  C   UNK N   1      33.202  12.895   8.415  0.00  0.00     0.038 C 
HETATM   44  C   UNK N   1      33.725  13.846   7.330  0.00  0.00     0.002 C 
HETATM   45  C   UNK N   1      32.918  13.904   6.027  0.00  0.00    -0.001 C 
HETATM   46  C   UNK N   1      35.247  13.942   7.139  0.00  0.00    -0.032 C 
HETATM   47  C   UNK N   1      33.050  12.681   5.094  0.00  0.00    -0.011 C 
HETATM   48  C   UNK N   1      33.255  15.206   5.261  0.00  0.00     0.001 C 
HETATM   49  C   UNK N   1      32.209  12.833   3.821  0.00  0.00     0.037 C 
HETATM   50  C   UNK N   1      32.677  11.380   5.775  0.00  0.00     0.010 C 
HETATM   51  C   UNK N   1      31.452  14.192   3.735  0.00  0.00     0.133 C 
HETATM   52  C   UNK N   1      32.499  15.322   3.892  0.00  0.00    -0.017 C 
HETATM   53  C   UNK N   1      31.822  16.679   3.825  0.00  0.00     0.018 C 
HETATM   54  C   UNK N   1      33.443  15.244   2.690  0.00  0.00     0.018 C 
HETATM   55  C   UNK N   1      34.775  15.485   5.160  0.00  0.00     0.007 C 
HETATM   56  C   UNK N   1      35.517  15.312   6.494  0.00  0.00     0.011 C 
HETATM   57  C   UNK N   1      35.744  12.853   6.176  0.00  0.00     0.016 C 
HETATM   58  C   UNK N   1      37.427  13.828   8.471  0.00  0.00     0.011 C 
HETATM   59  C   UNK N   1      35.474  14.942   9.474  0.00  0.00     0.016 C 
HETATM   60  C   UNK N   1      37.829  12.405   8.120  0.00  0.00     0.009 C 
BRANCH  41  61
HETATM   61  O   UNK N   1      33.739  11.320  10.109  0.00  0.00    -0.395 OA
HETATM   62  H   UNK N   1      34.076  11.411  11.014  0.00  0.00     0.210 HD
ENDBRANCH  41  61
BRANCH  51  63
HETATM   63  O   UNK N   1      30.426  14.344   4.711  0.00  0.00    -0.352 OA
BRANCH  63  64
HETATM   64  C   UNK N   1      29.192  14.559   4.078  0.00  0.00     0.292 C 
HETATM   65  C   UNK N   1      28.164  15.273   4.963  0.00  0.00     0.211 C 
HETATM   66  C   UNK N   1      26.763  15.192   4.328  0.00  0.00     0.183 C 
HETATM   67  C   UNK N   1      26.903  14.940   2.821  0.00  0.00     0.180 C 
HETATM   68  C   UNK N   1      27.731  13.642   2.547  0.00  0.00     0.179 C 
HETATM   69  O   UNK N   1      28.666  13.354   3.579  0.00  0.00    -0.348 OA
BRANCH  65  70
HETATM   70  O   UNK N   1      28.547  16.608   5.108  0.00  0.00    -0.346 OA
BRANCH  70  71
HETATM   71  C   UNK N   1      28.891  16.731   6.455  0.00  0.00     0.292 C 
HETATM   72  C   UNK N   1      27.814  17.511   7.216  0.00  0.00     0.204 C 
HETATM   73  C   UNK N   1      28.219  17.524   8.690  0.00  0.00     0.183 C 
HETATM   74  O   UNK N   1      27.724  18.814   6.716  0.00  0.00    -0.388 OA
HETATM   75  C   UNK N   1      29.664  17.999   8.863  0.00  0.00     0.180 C 
HETATM   76  C   UNK N   1      30.557  17.187   7.910  0.00  0.00     0.179 C 
HETATM   77  O   UNK N   1      30.135  17.377   6.579  0.00  0.00    -0.348 OA
HETATM   78  H   UNK N   1      27.492  19.703   6.406  0.00  0.00     0.210 HD
BRANCH  73  79
HETATM   79  O   UNK N   1      27.344  18.312   9.438  0.00  0.00    -0.390 OA
HETATM   80  H   UNK N   1      27.035  18.081  10.328  0.00  0.00     0.210 HD
ENDBRANCH  73  79
BRANCH  75  81
HETATM   81  O   UNK N   1      30.062  17.801  10.187  0.00  0.00    -0.390 OA
HETATM   82  H   UNK N   1      30.353  17.028  10.696  0.00  0.00     0.210 HD
ENDBRANCH  75  81
BRANCH  76  83
HETATM   83  C   UNK N   1      32.026  17.574   8.043  0.00  0.00     0.198 C 
BRANCH  83  84
HETATM   84  O   UNK N   1      32.630  16.865   9.082  0.00  0.00    -0.398 OA
HETATM   85  H   UNK N   1      32.840  16.099   9.641  0.00  0.00     0.209 HD
ENDBRANCH  83  84
ENDBRANCH  76  83
ENDBRANCH  70  71
ENDBRANCH  65  70
BRANCH  66  86
HETATM   86  O   UNK N   1      26.045  14.148   4.915  0.00  0.00    -0.390 OA
HETATM   87  H   UNK N   1      25.329  13.499   5.007  0.00  0.00     0.210 HD
ENDBRANCH  66  86
BRANCH  67  88
HETATM   88  O   UNK N   1      25.672  14.964   2.162  0.00  0.00    -0.390 OA
HETATM   89  H   UNK N   1      25.588  15.359   1.280  0.00  0.00     0.210 HD
ENDBRANCH  67  88
BRANCH  68  90
HETATM   90  C   UNK N   1      26.846  12.411   2.385  0.00  0.00     0.198 C 
BRANCH  90  91
HETATM   91  O   UNK N   1      26.798  11.687   3.576  0.00  0.00    -0.398 OA
HETATM   92  H   UNK N   1      26.257  11.883   4.357  0.00  0.00     0.209 HD
ENDBRANCH  90  91
ENDBRANCH  68  90
ENDBRANCH  63  64
ENDBRANCH  51  63
ENDBRANCH  31  39
ENDBRANCH  30  31
ENDBRANCH  22  30
ENDBRANCH  17  18
ENDBRANCH  16  17
ENDBRANCH   8  16
ENDBRANCH   1   4
TORSDOF 29
ENDMDL
MODEL 5
REMARK VINA RESULT:      -7.9      2.305     12.808
REMARK  29 active torsions:
REMARK  status: ('A' for Active; 'I' for Inactive)
REMARK    1  A    between atoms: C_3  and  C_2 
REMARK    2  A    between atoms: C_4  and  C_3 
REMARK    3  A    between atoms: C_5  and  C_4 
REMARK    4  A    between atoms: C_5  and  O_6 
REMARK    5  A    between atoms: C_35  and  C_5 
REMARK    6  A    between atoms: C_7  and  O_6 
REMARK    7  A    between atoms: C_9  and  O_14 
REMARK    8  A    between atoms: C_10  and  O_15 
REMARK    9  A    between atoms: C_11  and  O_16 
REMARK   10  A    between atoms: C_12  and  C_17 
REMARK   11  A    between atoms: C_17  and  O_18 
REMARK   12  A    between atoms: C_50  and  O_18 
REMARK   13  A    between atoms: C_26  and  O_44 
REMARK   14  A    between atoms: C_32  and  O_38 
REMARK   15  A    between atoms: C_56  and  O_44 
REMARK   16  A    between atoms: C_46  and  C_45 
REMARK   17  A    between atoms: C_47  and  O_54 
REMARK   18  A    between atoms: C_48  and  O_52 
REMARK   19  A    between atoms: C_49  and  O_53 
REMARK   20  A    between atoms: C_57  and  O_66 
REMARK   21  A    between atoms: C_58  and  O_62 
REMARK   22  A    between atoms: C_59  and  O_63 
REMARK   23  A    between atoms: C_60  and  C_64 
REMARK   24  A    between atoms: C_64  and  O_65 
REMARK   25  A    between atoms: C_67  and  O_66 
REMARK   26  A    between atoms: C_69  and  O_73 
REMARK   27  A    between atoms: C_70  and  O_74 
REMARK   28  A    between atoms: C_71  and  C_75 
REMARK   29  A    between atoms: C_75  and  O_76 
ROOT
HETATM    1  C   UNK N   1      21.861  19.099   4.211  0.00  0.00     0.198 C 
HETATM    2  O   UNK N   1      21.706  18.782   5.561  0.00  0.00    -0.398 OA
HETATM    3  H   UNK N   1      21.622  18.477   6.478  0.00  0.00     0.209 HD
ENDROOT
BRANCH   1   4
HETATM    4  C   UNK N   1      20.554  19.609   3.587  0.00  0.00     0.179 C 
HETATM    5  C   UNK N   1      20.700  20.577   2.402  0.00  0.00     0.180 C 
HETATM    6  C   UNK N   1      21.100  19.806   1.156  0.00  0.00     0.183 C 
HETATM    7  C   UNK N   1      20.038  18.747   0.923  0.00  0.00     0.204 C 
HETATM    8  C   UNK N   1      19.824  17.868   2.174  0.00  0.00     0.291 C 
HETATM    9  O   UNK N   1      19.584  18.593   3.371  0.00  0.00    -0.348 OA
BRANCH   5  10
HETATM   10  O   UNK N   1      21.628  21.579   2.688  0.00  0.00    -0.390 OA
HETATM   11  H   UNK N   1      22.501  21.568   2.265  0.00  0.00     0.210 HD
ENDBRANCH   5  10
BRANCH   6  12
HETATM   12  O   UNK N   1      21.147  20.669   0.060  0.00  0.00    -0.390 OA
HETATM   13  H   UNK N   1      20.556  21.428  -0.073  0.00  0.00     0.210 HD
ENDBRANCH   6  12
BRANCH   7  14
HETATM   14  O   UNK N   1      20.345  17.968  -0.194  0.00  0.00    -0.388 OA
HETATM   15  H   UNK N   1      20.384  17.762  -1.141  0.00  0.00     0.210 HD
ENDBRANCH   7  14
BRANCH   8  16
HETATM   16  O   UNK N   1      20.753  16.834   2.356  0.00  0.00    -0.356 OA
BRANCH  16  17
HETATM   17  C   UNK N   1      19.992  15.655   2.388  0.00  0.00     0.205 C 
BRANCH  17  18
HETATM   18  C   UNK N   1      20.088  14.947   3.739  0.00  0.00     0.180 C 
HETATM   19  C   UNK N   1      19.762  15.925   4.891  0.00  0.00     0.180 C 
HETATM   20  C   UNK N   1      20.393  15.428   6.189  0.00  0.00     0.183 C 
HETATM   21  C   UNK N   1      21.920  15.349   5.986  0.00  0.00     0.204 C 
HETATM   22  C   UNK N   1      22.277  15.057   4.514  0.00  0.00     0.292 C 
HETATM   23  O   UNK N   1      21.315  14.227   3.897  0.00  0.00    -0.348 OA
BRANCH  19  24
HETATM   24  O   UNK N   1      18.380  16.078   5.023  0.00  0.00    -0.390 OA
HETATM   25  H   UNK N   1      17.945  15.920   5.875  0.00  0.00     0.210 HD
ENDBRANCH  19  24
BRANCH  20  26
HETATM   26  O   UNK N   1      19.869  14.169   6.506  0.00  0.00    -0.390 OA
HETATM   27  H   UNK N   1      19.231  13.550   6.893  0.00  0.00     0.210 HD
ENDBRANCH  20  26
BRANCH  21  28
HETATM   28  O   UNK N   1      22.483  14.412   6.857  0.00  0.00    -0.388 OA
HETATM   29  H   UNK N   1      22.818  13.503   6.885  0.00  0.00     0.210 HD
ENDBRANCH  21  28
BRANCH  22  30
HETATM   30  O   UNK N   1      23.592  14.540   4.382  0.00  0.00    -0.348 OA
BRANCH  30  31
HETATM   31  C   UNK N   1      24.454  15.413   3.646  0.00  0.00     0.065 C 
HETATM   32  C   UNK N   1      23.741  16.136   2.484  0.00  0.00     0.046 C 
BRANCH  31  33
HETATM   33  C   UNK N   1      24.921  16.511   4.617  0.00  0.00     0.042 C 
BRANCH  33  34
HETATM   34  C   UNK N   1      26.215  17.209   4.196  0.00  0.00     0.030 C 
BRANCH  34  35
HETATM   35  C   UNK N   1      25.905  18.351   3.275  0.00  0.00    -0.025 C 
HETATM   36  C   UNK N   1      25.949  19.631   3.672  0.00  0.00    -0.091 C 
HETATM   37  C   UNK N   1      25.605  20.705   2.702  0.00  0.00     0.042 C 
HETATM   38  C   UNK N   1      26.340  20.010   5.064  0.00  0.00     0.042 C 
ENDBRANCH  34  35
ENDBRANCH  33  34
ENDBRANCH  31  33
BRANCH  31  39
HETATM   39  C   UNK N   1      25.672  14.627   3.094  0.00  0.00     0.027 C 
HETATM   40  C   UNK N   1      26.108  13.383   3.891  0.00  0.00     0.030 C 
HETATM   41  C   UNK N   1      27.212  13.741   4.908  0.00  0.00     0.123 C 
HETATM   42  C   UNK N   1      26.528  12.345   2.845  0.00  0.00    -0.030 C 
HETATM   43  C   UNK N   1      28.389  12.768   4.997  0.00  0.00     0.038 C 
HETATM   44  C   UNK N   1      28.908  12.266   3.643  0.00  0.00     0.002 C 
HETATM   45  C   UNK N   1      30.411  12.431   3.385  0.00  0.00    -0.001 C 
HETATM   46  C   UNK N   1      28.023  12.499   2.408  0.00  0.00    -0.032 C 
HETATM   47  C   UNK N   1      30.894  13.869   3.097  0.00  0.00    -0.011 C 
HETATM   48  C   UNK N   1      30.855  11.475   2.251  0.00  0.00     0.001 C 
HETATM   49  C   UNK N   1      32.407  13.931   2.853  0.00  0.00     0.037 C 
HETATM   50  C   UNK N   1      30.537  14.840   4.204  0.00  0.00     0.010 C 
HETATM   51  C   UNK N   1      33.102  12.538   2.905  0.00  0.00     0.133 C 
HETATM   52  C   UNK N   1      32.376  11.614   1.896  0.00  0.00    -0.017 C 
HETATM   53  C   UNK N   1      33.003  10.231   1.904  0.00  0.00     0.018 C 
HETATM   54  C   UNK N   1      32.604  12.191   0.498  0.00  0.00     0.018 C 
HETATM   55  C   UNK N   1      29.921  11.511   1.015  0.00  0.00     0.007 C 
HETATM   56  C   UNK N   1      28.430  11.434   1.376  0.00  0.00     0.011 C 
HETATM   57  C   UNK N   1      28.292  13.884   1.800  0.00  0.00     0.016 C 
HETATM   58  C   UNK N   1      25.562  12.623   1.725  0.00  0.00     0.011 C 
HETATM   59  C   UNK N   1      26.253  10.945   3.388  0.00  0.00     0.016 C 
HETATM   60  C   UNK N   1      25.420  14.136   1.673  0.00  0.00     0.009 C 
BRANCH  41  61
HETATM   61  O   UNK N   1      26.652  13.877   6.176  0.00  0.00    -0.395 OA
HETATM   62  H   UNK N   1      25.920  13.371   6.562  0.00  0.00     0.210 HD
ENDBRANCH  41  61
BRANCH  51  63
HETATM   63  O   UNK N   1      33.101  11.939   4.197  0.00  0.00    -0.352 OA
BRANCH  63  64
HETATM   64  C   UNK N   1      34.377  12.038   4.772  0.00  0.00     0.292 C 
HETATM   65  C   UNK N   1      34.531  13.227   5.725  0.00  0.00     0.211 C 
HETATM   66  C   UNK N   1      36.017  13.452   6.066  0.00  0.00     0.183 C 
HETATM   67  C   UNK N   1      36.794  12.151   5.825  0.00  0.00     0.180 C 
HETATM   68  C   UNK N   1      36.613  11.657   4.352  0.00  0.00     0.179 C 
HETATM   69  O   UNK N   1      35.374  12.062   3.781  0.00  0.00    -0.348 OA
BRANCH  65  70
HETATM   70  O   UNK N   1      33.808  12.965   6.892  0.00  0.00    -0.346 OA
BRANCH  70  71
HETATM   71  C   UNK N   1      34.187  13.976   7.775  0.00  0.00     0.292 C 
HETATM   72  C   UNK N   1      33.647  13.692   9.181  0.00  0.00     0.204 C 
HETATM   73  C   UNK N   1      34.177  14.792  10.101  0.00  0.00     0.183 C 
HETATM   74  O   UNK N   1      32.248  13.694   9.164  0.00  0.00    -0.388 OA
HETATM   75  C   UNK N   1      33.896  16.182   9.524  0.00  0.00     0.180 C 
HETATM   76  C   UNK N   1      34.388  16.207   8.065  0.00  0.00     0.179 C 
HETATM   77  O   UNK N   1      33.716  15.220   7.316  0.00  0.00    -0.348 OA
HETATM   78  H   UNK N   1      31.292  13.571   9.274  0.00  0.00     0.210 HD
BRANCH  73  79
HETATM   79  O   UNK N   1      33.638  14.668  11.382  0.00  0.00    -0.390 OA
HETATM   80  H   UNK N   1      33.424  13.818  11.799  0.00  0.00     0.210 HD
ENDBRANCH  73  79
BRANCH  75  81
HETATM   81  O   UNK N   1      34.571  17.143  10.278  0.00  0.00    -0.390 OA
HETATM   82  H   UNK N   1      34.637  18.110  10.236  0.00  0.00     0.210 HD
ENDBRANCH  75  81
BRANCH  76  83
HETATM   83  C   UNK N   1      34.177  17.572   7.421  0.00  0.00     0.198 C 
BRANCH  83  84
HETATM   84  O   UNK N   1      34.252  17.477   6.030  0.00  0.00    -0.398 OA
HETATM   85  H   UNK N   1      34.627  17.236   5.168  0.00  0.00     0.209 HD
ENDBRANCH  83  84
ENDBRANCH  76  83
ENDBRANCH  70  71
ENDBRANCH  65  70
BRANCH  66  86
HETATM   86  O   UNK N   1      36.532  14.465   5.254  0.00  0.00    -0.390 OA
HETATM   87  H   UNK N   1      37.218  14.998   4.820  0.00  0.00     0.210 HD
ENDBRANCH  66  86
BRANCH  67  88
HETATM   88  O   UNK N   1      38.130  12.251   6.217  0.00  0.00    -0.390 OA
HETATM   89  H   UNK N   1      38.715  12.918   5.825  0.00  0.00     0.210 HD
ENDBRANCH  67  88
BRANCH  68  90
HETATM   90  C   UNK N   1      37.719  12.157   3.430  0.00  0.00     0.198 C 
BRANCH  90  91
HETATM   91  O   UNK N   1      37.261  13.223   2.656  0.00  0.00    -0.398 OA
HETATM   92  H   UNK N   1      36.410  13.682   2.740  0.00  0.00     0.209 HD
ENDBRANCH  90  91
ENDBRANCH  68  90
ENDBRANCH  63  64
ENDBRANCH  51  63
ENDBRANCH  31  39
ENDBRANCH  30  31
ENDBRANCH  22  30
ENDBRANCH  17  18
ENDBRANCH  16  17
ENDBRANCH   8  16
ENDBRANCH   1   4
TORSDOF 29
ENDMDL
MODEL 6
REMARK VINA RESULT:      -7.7      2.537     11.401
REMARK  29 active torsions:
REMARK  status: ('A' for Active; 'I' for Inactive)
REMARK    1  A    between atoms: C_3  and  C_2 
REMARK    2  A    between atoms: C_4  and  C_3 
REMARK    3  A    between atoms: C_5  and  C_4 
REMARK    4  A    between atoms: C_5  and  O_6 
REMARK    5  A    between atoms: C_35  and  C_5 
REMARK    6  A    between atoms: C_7  and  O_6 
REMARK    7  A    between atoms: C_9  and  O_14 
REMARK    8  A    between atoms: C_10  and  O_15 
REMARK    9  A    between atoms: C_11  and  O_16 
REMARK   10  A    between atoms: C_12  and  C_17 
REMARK   11  A    between atoms: C_17  and  O_18 
REMARK   12  A    between atoms: C_50  and  O_18 
REMARK   13  A    between atoms: C_26  and  O_44 
REMARK   14  A    between atoms: C_32  and  O_38 
REMARK   15  A    between atoms: C_56  and  O_44 
REMARK   16  A    between atoms: C_46  and  C_45 
REMARK   17  A    between atoms: C_47  and  O_54 
REMARK   18  A    between atoms: C_48  and  O_52 
REMARK   19  A    between atoms: C_49  and  O_53 
REMARK   20  A    between atoms: C_57  and  O_66 
REMARK   21  A    between atoms: C_58  and  O_62 
REMARK   22  A    between atoms: C_59  and  O_63 
REMARK   23  A    between atoms: C_60  and  C_64 
REMARK   24  A    between atoms: C_64  and  O_65 
REMARK   25  A    between atoms: C_67  and  O_66 
REMARK   26  A    between atoms: C_69  and  O_73 
REMARK   27  A    between atoms: C_70  and  O_74 
REMARK   28  A    between atoms: C_71  and  C_75 
REMARK   29  A    between atoms: C_75  and  O_76 
ROOT
HETATM    1  C   UNK N   1      25.795  16.967   2.759  0.00  0.00     0.198 C 
HETATM    2  O   UNK N   1      26.394  16.020   1.928  0.00  0.00    -0.398 OA
HETATM    3  H   UNK N   1      26.732  15.317   1.351  0.00  0.00     0.209 HD
ENDROOT
BRANCH   1   4
HETATM    4  C   UNK N   1      26.514  17.081   4.111  0.00  0.00     0.179 C 
HETATM    5  C   UNK N   1      27.791  17.937   4.131  0.00  0.00     0.180 C 
HETATM    6  C   UNK N   1      27.422  19.410   4.100  0.00  0.00     0.183 C 
HETATM    7  C   UNK N   1      26.521  19.672   5.291  0.00  0.00     0.204 C 
HETATM    8  C   UNK N   1      25.311  18.713   5.314  0.00  0.00     0.291 C 
HETATM    9  O   UNK N   1      25.644  17.338   5.205  0.00  0.00    -0.348 OA
BRANCH   5  10
HETATM   10  O   UNK N   1      28.627  17.608   3.062  0.00  0.00    -0.390 OA
HETATM   11  H   UNK N   1      28.493  16.778   2.579  0.00  0.00     0.210 HD
ENDBRANCH   5  10
BRANCH   6  12
HETATM   12  O   UNK N   1      28.577  20.188   4.206  0.00  0.00    -0.390 OA
HETATM   13  H   UNK N   1      29.469  19.837   4.355  0.00  0.00     0.210 HD
ENDBRANCH   6  12
BRANCH   7  14
HETATM   14  O   UNK N   1      26.109  21.006   5.323  0.00  0.00    -0.388 OA
HETATM   15  H   UNK N   1      25.471  21.734   5.253  0.00  0.00     0.210 HD
ENDBRANCH   7  14
BRANCH   8  16
HETATM   16  O   UNK N   1      24.240  19.068   4.481  0.00  0.00    -0.356 OA
BRANCH  16  17
HETATM   17  C   UNK N   1      23.152  18.305   4.933  0.00  0.00     0.205 C 
BRANCH  17  18
HETATM   18  C   UNK N   1      22.134  18.045   3.822  0.00  0.00     0.180 C 
HETATM   19  C   UNK N   1      20.744  18.594   4.219  0.00  0.00     0.180 C 
HETATM   20  C   UNK N   1      19.655  17.863   3.437  0.00  0.00     0.183 C 
HETATM   21  C   UNK N   1      19.740  16.360   3.775  0.00  0.00     0.204 C 
HETATM   22  C   UNK N   1      21.184  15.944   4.123  0.00  0.00     0.292 C 
HETATM   23  O   UNK N   1      22.134  16.683   3.383  0.00  0.00    -0.348 OA
BRANCH  19  24
HETATM   24  O   UNK N   1      20.686  19.972   4.005  0.00  0.00    -0.390 OA
HETATM   25  H   UNK N   1      20.750  20.336   3.108  0.00  0.00     0.210 HD
ENDBRANCH  19  24
BRANCH  20  26
HETATM   26  O   UNK N   1      19.848  18.075   2.067  0.00  0.00    -0.390 OA
HETATM   27  H   UNK N   1      19.901  17.820   1.133  0.00  0.00     0.210 HD
ENDBRANCH  20  26
BRANCH  21  28
HETATM   28  O   UNK N   1      19.210  15.593   2.735  0.00  0.00    -0.388 OA
HETATM   29  H   UNK N   1      18.567  15.631   2.010  0.00  0.00     0.210 HD
ENDBRANCH  21  28
BRANCH  22  30
HETATM   30  O   UNK N   1      21.376  14.544   3.992  0.00  0.00    -0.348 OA
BRANCH  30  31
HETATM   31  C   UNK N   1      22.383  14.043   4.876  0.00  0.00     0.065 C 
HETATM   32  C   UNK N   1      22.933  15.114   5.843  0.00  0.00     0.046 C 
BRANCH  31  33
HETATM   33  C   UNK N   1      21.718  12.969   5.754  0.00  0.00     0.042 C 
BRANCH  33  34
HETATM   34  C   UNK N   1      21.106  13.510   7.048  0.00  0.00     0.030 C 
BRANCH  34  35
HETATM   35  C   UNK N   1      21.659  12.768   8.226  0.00  0.00    -0.025 C 
HETATM   36  C   UNK N   1      21.345  13.083   9.491  0.00  0.00    -0.091 C 
HETATM   37  C   UNK N   1      21.956  12.311  10.607  0.00  0.00     0.042 C 
HETATM   38  C   UNK N   1      20.390  14.188   9.812  0.00  0.00     0.042 C 
ENDBRANCH  34  35
ENDBRANCH  33  34
ENDBRANCH  31  33
BRANCH  31  39
HETATM   39  C   UNK N   1      23.555  13.429   4.066  0.00  0.00     0.027 C 
HETATM   40  C   UNK N   1      24.345  12.297   4.749  0.00  0.00     0.030 C 
HETATM   41  C   UNK N   1      25.578  12.856   5.488  0.00  0.00     0.123 C 
HETATM   42  C   UNK N   1      24.678  11.295   3.638  0.00  0.00    -0.030 C 
HETATM   43  C   UNK N   1      26.882  12.077   5.313  0.00  0.00     0.038 C 
HETATM   44  C   UNK N   1      27.159  11.607   3.878  0.00  0.00     0.002 C 
HETATM   45  C   UNK N   1      28.523  11.988   3.287  0.00  0.00    -0.001 C 
HETATM   46  C   UNK N   1      25.996  11.656   2.875  0.00  0.00    -0.032 C 
HETATM   47  C   UNK N   1      28.699  13.469   2.893  0.00  0.00    -0.011 C 
HETATM   48  C   UNK N   1      28.846  11.067   2.085  0.00  0.00     0.001 C 
HETATM   49  C   UNK N   1      30.091  13.750   2.313  0.00  0.00     0.037 C 
HETATM   50  C   UNK N   1      28.450  14.418   4.048  0.00  0.00     0.010 C 
HETATM   51  C   UNK N   1      30.989  12.481   2.211  0.00  0.00     0.133 C 
HETATM   52  C   UNK N   1      30.209  11.420   1.396  0.00  0.00    -0.017 C 
HETATM   53  C   UNK N   1      31.030  10.149   1.266  0.00  0.00     0.018 C 
HETATM   54  C   UNK N   1      30.028  11.970  -0.020  0.00  0.00     0.018 C 
HETATM   55  C   UNK N   1      27.666  10.914   1.093  0.00  0.00     0.007 C 
HETATM   56  C   UNK N   1      26.324  10.626   1.781  0.00  0.00     0.011 C 
HETATM   57  C   UNK N   1      25.904  13.041   2.217  0.00  0.00     0.016 C 
HETATM   58  C   UNK N   1      23.456  11.381   2.764  0.00  0.00     0.011 C 
HETATM   59  C   UNK N   1      24.753   9.891   4.234  0.00  0.00     0.016 C 
HETATM   60  C   UNK N   1      23.072  12.851   2.741  0.00  0.00     0.009 C 
BRANCH  41  61
HETATM   61  O   UNK N   1      25.300  12.955   6.850  0.00  0.00    -0.395 OA
HETATM   62  H   UNK N   1      25.122  13.757   7.366  0.00  0.00     0.210 HD
ENDBRANCH  41  61
BRANCH  51  63
HETATM   63  O   UNK N   1      31.368  11.940   3.472  0.00  0.00    -0.352 OA
BRANCH  63  64
HETATM   64  C   UNK N   1      32.646  12.399   3.826  0.00  0.00     0.292 C 
HETATM   65  C   UNK N   1      32.627  13.677   4.671  0.00  0.00     0.211 C 
HETATM   66  C   UNK N   1      34.040  14.286   4.753  0.00  0.00     0.183 C 
HETATM   67  C   UNK N   1      35.079  13.196   4.465  0.00  0.00     0.180 C 
HETATM   68  C   UNK N   1      34.822  12.533   3.072  0.00  0.00     0.179 C 
HETATM   69  O   UNK N   1      33.453  12.569   2.687  0.00  0.00    -0.348 OA
BRANCH  65  70
HETATM   70  O   UNK N   1      32.168  13.361   5.953  0.00  0.00    -0.346 OA
BRANCH  70  71
HETATM   71  C   UNK N   1      32.195  14.572   6.644  0.00  0.00     0.292 C 
HETATM   72  C   UNK N   1      32.867  14.397   8.010  0.00  0.00     0.204 C 
HETATM   73  C   UNK N   1      32.936  15.778   8.663  0.00  0.00     0.183 C 
HETATM   74  O   UNK N   1      32.122  13.514   8.799  0.00  0.00    -0.388 OA
HETATM   75  C   UNK N   1      31.568  16.465   8.652  0.00  0.00     0.180 C 
HETATM   76  C   UNK N   1      31.009  16.406   7.220  0.00  0.00     0.179 C 
HETATM   77  O   UNK N   1      30.887  15.064   6.807  0.00  0.00    -0.348 OA
HETATM   78  H   UNK N   1      31.761  12.852   9.409  0.00  0.00     0.210 HD
BRANCH  73  79
HETATM   79  O   UNK N   1      33.437  15.687   9.962  0.00  0.00    -0.390 OA
HETATM   80  H   UNK N   1      34.383  15.657  10.176  0.00  0.00     0.210 HD
ENDBRANCH  73  79
BRANCH  75  81
HETATM   81  O   UNK N   1      31.712  17.792   9.062  0.00  0.00    -0.390 OA
HETATM   82  H   UNK N   1      31.409  18.644   8.710  0.00  0.00     0.210 HD
ENDBRANCH  75  81
BRANCH  76  83
HETATM   83  C   UNK N   1      29.657  17.102   7.112  0.00  0.00     0.198 C 
BRANCH  83  84
HETATM   84  O   UNK N   1      29.046  17.187   8.364  0.00  0.00    -0.398 OA
HETATM   85  H   UNK N   1      28.351  17.072   9.032  0.00  0.00     0.209 HD
ENDBRANCH  83  84
ENDBRANCH  76  83
ENDBRANCH  70  71
ENDBRANCH  65  70
BRANCH  66  86
HETATM   86  O   UNK N   1      34.159  15.311   3.812  0.00  0.00    -0.390 OA
HETATM   87  H   UNK N   1      34.493  15.758   3.017  0.00  0.00     0.210 HD
ENDBRANCH  66  86
BRANCH  67  88
HETATM   88  O   UNK N   1      36.388  13.653   4.628  0.00  0.00    -0.390 OA
HETATM   89  H   UNK N   1      36.994  13.707   3.873  0.00  0.00     0.210 HD
ENDBRANCH  67  88
BRANCH  68  90
HETATM   90  C   UNK N   1      35.621  13.195   1.955  0.00  0.00     0.198 C 
BRANCH  90  91
HETATM   91  O   UNK N   1      34.825  14.106   1.263  0.00  0.00    -0.398 OA
HETATM   92  H   UNK N   1      35.000  14.486   0.387  0.00  0.00     0.209 HD
ENDBRANCH  90  91
ENDBRANCH  68  90
ENDBRANCH  63  64
ENDBRANCH  51  63
ENDBRANCH  31  39
ENDBRANCH  30  31
ENDBRANCH  22  30
ENDBRANCH  17  18
ENDBRANCH  16  17
ENDBRANCH   8  16
ENDBRANCH   1   4
TORSDOF 29
ENDMDL
MODEL 7
REMARK VINA RESULT:      -7.7      4.461      9.288
REMARK  29 active torsions:
REMARK  status: ('A' for Active; 'I' for Inactive)
REMARK    1  A    between atoms: C_3  and  C_2 
REMARK    2  A    between atoms: C_4  and  C_3 
REMARK    3  A    between atoms: C_5  and  C_4 
REMARK    4  A    between atoms: C_5  and  O_6 
REMARK    5  A    between atoms: C_35  and  C_5 
REMARK    6  A    between atoms: C_7  and  O_6 
REMARK    7  A    between atoms: C_9  and  O_14 
REMARK    8  A    between atoms: C_10  and  O_15 
REMARK    9  A    between atoms: C_11  and  O_16 
REMARK   10  A    between atoms: C_12  and  C_17 
REMARK   11  A    between atoms: C_17  and  O_18 
REMARK   12  A    between atoms: C_50  and  O_18 
REMARK   13  A    between atoms: C_26  and  O_44 
REMARK   14  A    between atoms: C_32  and  O_38 
REMARK   15  A    between atoms: C_56  and  O_44 
REMARK   16  A    between atoms: C_46  and  C_45 
REMARK   17  A    between atoms: C_47  and  O_54 
REMARK   18  A    between atoms: C_48  and  O_52 
REMARK   19  A    between atoms: C_49  and  O_53 
REMARK   20  A    between atoms: C_57  and  O_66 
REMARK   21  A    between atoms: C_58  and  O_62 
REMARK   22  A    between atoms: C_59  and  O_63 
REMARK   23  A    between atoms: C_60  and  C_64 
REMARK   24  A    between atoms: C_64  and  O_65 
REMARK   25  A    between atoms: C_67  and  O_66 
REMARK   26  A    between atoms: C_69  and  O_73 
REMARK   27  A    between atoms: C_70  and  O_74 
REMARK   28  A    between atoms: C_71  and  C_75 
REMARK   29  A    between atoms: C_75  and  O_76 
ROOT
HETATM    1  C   UNK N   1      36.211  10.480  17.629  0.00  0.00     0.198 C 
HETATM    2  O   UNK N   1      35.820  10.191  18.937  0.00  0.00    -0.398 OA
HETATM    3  H   UNK N   1      35.546   9.902  19.822  0.00  0.00     0.209 HD
ENDROOT
BRANCH   1   4
HETATM    4  C   UNK N   1      35.204  11.396  16.919  0.00  0.00     0.179 C 
HETATM    5  C   UNK N   1      35.079  12.825  17.473  0.00  0.00     0.180 C 
HETATM    6  C   UNK N   1      36.277  13.651  17.038  0.00  0.00     0.183 C 
HETATM    7  C   UNK N   1      36.323  13.611  15.523  0.00  0.00     0.204 C 
HETATM    8  C   UNK N   1      36.323  12.162  14.989  0.00  0.00     0.291 C 
HETATM    9  O   UNK N   1      35.281  11.345  15.500  0.00  0.00    -0.348 OA
BRANCH   5  10
HETATM   10  O   UNK N   1      34.959  12.810  18.864  0.00  0.00    -0.390 OA
HETATM   11  H   UNK N   1      34.222  12.340  19.282  0.00  0.00     0.210 HD
ENDBRANCH   5  10
BRANCH   6  12
HETATM   12  O   UNK N   1      36.121  14.971  17.467  0.00  0.00    -0.390 OA
HETATM   13  H   UNK N   1      36.824  15.511  17.862  0.00  0.00     0.210 HD
ENDBRANCH   6  12
BRANCH   7  14
HETATM   14  O   UNK N   1      37.419  14.327  15.037  0.00  0.00    -0.388 OA
HETATM   15  H   UNK N   1      37.893  15.120  14.739  0.00  0.00     0.210 HD
ENDBRANCH   7  14
BRANCH   8  16
HETATM   16  O   UNK N   1      37.564  11.510  15.001  0.00  0.00    -0.356 OA
BRANCH  16  17
HETATM   17  C   UNK N   1      37.796  11.133  13.669  0.00  0.00     0.205 C 
BRANCH  17  18
HETATM   18  C   UNK N   1      37.462   9.662  13.424  0.00  0.00     0.180 C 
HETATM   19  C   UNK N   1      38.669   8.763  13.778  0.00  0.00     0.180 C 
HETATM   20  C   UNK N   1      38.569   7.439  13.025  0.00  0.00     0.183 C 
HETATM   21  C   UNK N   1      38.567   7.740  11.512  0.00  0.00     0.204 C 
HETATM   22  C   UNK N   1      37.943   9.119  11.215  0.00  0.00     0.292 C 
HETATM   23  O   UNK N   1      36.908   9.432  12.125  0.00  0.00    -0.348 OA
BRANCH  19  24
HETATM   24  O   UNK N   1      38.737   8.559  15.157  0.00  0.00    -0.390 OA
HETATM   25  H   UNK N   1      39.579   8.338  15.584  0.00  0.00     0.210 HD
ENDBRANCH  19  24
BRANCH  20  26
HETATM   26  O   UNK N   1      37.393   6.780  13.401  0.00  0.00    -0.390 OA
HETATM   27  H   UNK N   1      36.659   6.551  13.992  0.00  0.00     0.210 HD
ENDBRANCH  20  26
BRANCH  21  28
HETATM   28  O   UNK N   1      37.930   6.715  10.808  0.00  0.00    -0.388 OA
HETATM   29  H   UNK N   1      37.898   5.748  10.730  0.00  0.00     0.210 HD
ENDBRANCH  21  28
BRANCH  22  30
HETATM   30  O   UNK N   1      37.519   9.228   9.866  0.00  0.00    -0.348 OA
BRANCH  30  31
HETATM   31  C   UNK N   1      38.233  10.236   9.144  0.00  0.00     0.065 C 
HETATM   32  C   UNK N   1      39.660  10.475   9.684  0.00  0.00     0.046 C 
BRANCH  31  33
HETATM   33  C   UNK N   1      38.397   9.728   7.701  0.00  0.00     0.042 C 
BRANCH  33  34
HETATM   34  C   UNK N   1      39.316  10.592   6.835  0.00  0.00     0.030 C 
BRANCH  34  35
HETATM   35  C   UNK N   1      38.498  11.496   5.964  0.00  0.00    -0.025 C 
HETATM   36  C   UNK N   1      38.681  12.824   5.928  0.00  0.00    -0.091 C 
HETATM   37  C   UNK N   1      37.811  13.655   5.052  0.00  0.00     0.042 C 
HETATM   38  C   UNK N   1      39.742  13.494   6.740  0.00  0.00     0.042 C 
ENDBRANCH  34  35
ENDBRANCH  33  34
ENDBRANCH  31  33
BRANCH  31  39
HETATM   39  C   UNK N   1      37.444  11.571   9.161  0.00  0.00     0.027 C 
HETATM   40  C   UNK N   1      36.023  11.524   9.755  0.00  0.00     0.030 C 
HETATM   41  C   UNK N   1      34.973  11.294   8.649  0.00  0.00     0.123 C 
HETATM   42  C   UNK N   1      35.851  12.839  10.523  0.00  0.00    -0.030 C 
HETATM   43  C   UNK N   1      33.713  12.158   8.723  0.00  0.00     0.038 C 
HETATM   44  C   UNK N   1      33.968  13.633   9.063  0.00  0.00     0.002 C 
HETATM   45  C   UNK N   1      33.362  14.667   8.106  0.00  0.00    -0.001 C 
HETATM   46  C   UNK N   1      35.353  14.010   9.612  0.00  0.00    -0.032 C 
HETATM   47  C   UNK N   1      34.056  14.809   6.735  0.00  0.00    -0.011 C 
HETATM   48  C   UNK N   1      33.275  16.043   8.811  0.00  0.00     0.001 C 
HETATM   49  C   UNK N   1      33.381  15.865   5.852  0.00  0.00     0.037 C 
HETATM   50  C   UNK N   1      34.120  13.501   5.972  0.00  0.00     0.010 C 
HETATM   51  C   UNK N   1      32.185  16.582   6.547  0.00  0.00     0.133 C 
HETATM   52  C   UNK N   1      32.703  17.169   7.882  0.00  0.00    -0.017 C 
HETATM   53  C   UNK N   1      31.579  17.879   8.616  0.00  0.00     0.018 C 
HETATM   54  C   UNK N   1      33.746  18.237   7.542  0.00  0.00     0.018 C 
HETATM   55  C   UNK N   1      34.580  16.442   9.545  0.00  0.00     0.007 C 
HETATM   56  C   UNK N   1      35.164  15.313  10.407  0.00  0.00     0.011 C 
HETATM   57  C   UNK N   1      36.335  14.286   8.464  0.00  0.00     0.016 C 
HETATM   58  C   UNK N   1      37.237  13.069  11.062  0.00  0.00     0.011 C 
HETATM   59  C   UNK N   1      34.903  12.613  11.698  0.00  0.00     0.016 C 
HETATM   60  C   UNK N   1      38.184  12.645   9.952  0.00  0.00     0.009 C 
BRANCH  41  61
HETATM   61  O   UNK N   1      34.592   9.954   8.639  0.00  0.00    -0.395 OA
HETATM   62  H   UNK N   1      34.776   9.277   9.308  0.00  0.00     0.210 HD
ENDBRANCH  41  61
BRANCH  51  63
HETATM   63  O   UNK N   1      31.067  15.736   6.792  0.00  0.00    -0.352 OA
BRANCH  63  64
HETATM   64  C   UNK N   1      30.637  15.150   5.592  0.00  0.00     0.292 C 
HETATM   65  C   UNK N   1      29.291  15.687   5.094  0.00  0.00     0.211 C 
HETATM   66  C   UNK N   1      28.741  14.793   3.966  0.00  0.00     0.183 C 
HETATM   67  C   UNK N   1      29.898  14.016   3.326  0.00  0.00     0.180 C 
HETATM   68  C   UNK N   1      30.667  13.176   4.399  0.00  0.00     0.179 C 
HETATM   69  O   UNK N   1      30.603  13.749   5.700  0.00  0.00    -0.348 OA
BRANCH  65  70
HETATM   70  O   UNK N   1      29.473  16.991   4.625  0.00  0.00    -0.346 OA
BRANCH  70  71
HETATM   71  C   UNK N   1      28.488  17.738   5.270  0.00  0.00     0.292 C 
HETATM   72  C   UNK N   1      28.069  18.934   4.409  0.00  0.00     0.204 C 
HETATM   73  C   UNK N   1      26.931  19.645   5.143  0.00  0.00     0.183 C 
HETATM   74  O   UNK N   1      29.155  19.796   4.227  0.00  0.00    -0.388 OA
HETATM   75  C   UNK N   1      27.310  19.944   6.596  0.00  0.00     0.180 C 
HETATM   76  C   UNK N   1      27.837  18.646   7.233  0.00  0.00     0.179 C 
HETATM   77  O   UNK N   1      28.960  18.182   6.520  0.00  0.00    -0.348 OA
HETATM   78  H   UNK N   1      29.839  20.422   3.943  0.00  0.00     0.210 HD
BRANCH  73  79
HETATM   79  O   UNK N   1      26.566  20.815   4.474  0.00  0.00    -0.390 OA
HETATM   80  H   UNK N   1      27.166  21.321   3.903  0.00  0.00     0.210 HD
ENDBRANCH  73  79
BRANCH  75  81
HETATM   81  O   UNK N   1      26.184  20.400   7.284  0.00  0.00    -0.390 OA
HETATM   82  H   UNK N   1      25.784  21.273   7.421  0.00  0.00     0.210 HD
ENDBRANCH  75  81
BRANCH  76  83
HETATM   83  C   UNK N   1      28.207  18.846   8.699  0.00  0.00     0.198 C 
BRANCH  83  84
HETATM   84  O   UNK N   1      27.495  17.961   9.511  0.00  0.00    -0.398 OA
HETATM   85  H   UNK N   1      26.799  17.330   9.753  0.00  0.00     0.209 HD
ENDBRANCH  83  84
ENDBRANCH  76  83
ENDBRANCH  70  71
ENDBRANCH  65  70
BRANCH  66  86
HETATM   86  O   UNK N   1      27.808  13.898   4.495  0.00  0.00    -0.390 OA
HETATM   87  H   UNK N   1      27.103  13.592   5.088  0.00  0.00     0.210 HD
ENDBRANCH  66  86
BRANCH  67  88
HETATM   88  O   UNK N   1      29.487  13.265   2.223  0.00  0.00    -0.390 OA
HETATM   89  H   UNK N   1      28.910  12.493   2.334  0.00  0.00     0.210 HD
ENDBRANCH  67  88
BRANCH  68  90
HETATM   90  C   UNK N   1      30.141  11.749   4.508  0.00  0.00     0.198 C 
BRANCH  90  91
HETATM   91  O   UNK N   1      30.714  10.944   3.525  0.00  0.00    -0.398 OA
HETATM   92  H   UNK N   1      31.147  10.085   3.653  0.00  0.00     0.209 HD
ENDBRANCH  90  91
ENDBRANCH  68  90
ENDBRANCH  63  64
ENDBRANCH  51  63
ENDBRANCH  31  39
ENDBRANCH  30  31
ENDBRANCH  22  30
ENDBRANCH  17  18
ENDBRANCH  16  17
ENDBRANCH   8  16
ENDBRANCH   1   4
TORSDOF 29
ENDMDL
MODEL 8
REMARK VINA RESULT:      -7.7      2.550     12.292
REMARK  29 active torsions:
REMARK  status: ('A' for Active; 'I' for Inactive)
REMARK    1  A    between atoms: C_3  and  C_2 
REMARK    2  A    between atoms: C_4  and  C_3 
REMARK    3  A    between atoms: C_5  and  C_4 
REMARK    4  A    between atoms: C_5  and  O_6 
REMARK    5  A    between atoms: C_35  and  C_5 
REMARK    6  A    between atoms: C_7  and  O_6 
REMARK    7  A    between atoms: C_9  and  O_14 
REMARK    8  A    between atoms: C_10  and  O_15 
REMARK    9  A    between atoms: C_11  and  O_16 
REMARK   10  A    between atoms: C_12  and  C_17 
REMARK   11  A    between atoms: C_17  and  O_18 
REMARK   12  A    between atoms: C_50  and  O_18 
REMARK   13  A    between atoms: C_26  and  O_44 
REMARK   14  A    between atoms: C_32  and  O_38 
REMARK   15  A    between atoms: C_56  and  O_44 
REMARK   16  A    between atoms: C_46  and  C_45 
REMARK   17  A    between atoms: C_47  and  O_54 
REMARK   18  A    between atoms: C_48  and  O_52 
REMARK   19  A    between atoms: C_49  and  O_53 
REMARK   20  A    between atoms: C_57  and  O_66 
REMARK   21  A    between atoms: C_58  and  O_62 
REMARK   22  A    between atoms: C_59  and  O_63 
REMARK   23  A    between atoms: C_60  and  C_64 
REMARK   24  A    between atoms: C_64  and  O_65 
REMARK   25  A    between atoms: C_67  and  O_66 
REMARK   26  A    between atoms: C_69  and  O_73 
REMARK   27  A    between atoms: C_70  and  O_74 
REMARK   28  A    between atoms: C_71  and  C_75 
REMARK   29  A    between atoms: C_75  and  O_76 
ROOT
HETATM    1  C   UNK N   1      24.529   8.743   5.610  0.00  0.00     0.198 C 
HETATM    2  O   UNK N   1      25.518   9.700   5.381  0.00  0.00    -0.398 OA
HETATM    3  H   UNK N   1      26.173  10.411   5.294  0.00  0.00     0.209 HD
ENDROOT
BRANCH   1   4
HETATM    4  C   UNK N   1      23.569   8.613   4.419  0.00  0.00     0.179 C 
HETATM    5  C   UNK N   1      22.345   7.707   4.630  0.00  0.00     0.180 C 
HETATM    6  C   UNK N   1      21.321   8.420   5.495  0.00  0.00     0.183 C 
HETATM    7  C   UNK N   1      20.974   9.723   4.798  0.00  0.00     0.204 C 
HETATM    8  C   UNK N   1      22.236  10.557   4.486  0.00  0.00     0.291 C 
HETATM    9  O   UNK N   1      23.255   9.851   3.795  0.00  0.00    -0.348 OA
BRANCH   5  10
HETATM   10  O   UNK N   1      22.720   6.489   5.200  0.00  0.00    -0.390 OA
HETATM   11  H   UNK N   1      22.080   5.762   5.255  0.00  0.00     0.210 HD
ENDBRANCH   5  10
BRANCH   6  12
HETATM   12  O   UNK N   1      20.173   7.634   5.614  0.00  0.00    -0.390 OA
HETATM   13  H   UNK N   1      19.415   7.845   6.182  0.00  0.00     0.210 HD
ENDBRANCH   6  12
BRANCH   7  14
HETATM   14  O   UNK N   1      20.054  10.460   5.545  0.00  0.00    -0.388 OA
HETATM   15  H   UNK N   1      19.727  11.239   6.022  0.00  0.00     0.210 HD
ENDBRANCH   7  14
BRANCH   8  16
HETATM   16  O   UNK N   1      22.743  11.313   5.553  0.00  0.00    -0.356 OA
BRANCH  16  17
HETATM   17  C   UNK N   1      22.756  12.639   5.092  0.00  0.00     0.205 C 
BRANCH  17  18
HETATM   18  C   UNK N   1      22.275  13.621   6.160  0.00  0.00     0.180 C 
HETATM   19  C   UNK N   1      20.806  14.031   5.900  0.00  0.00     0.180 C 
HETATM   20  C   UNK N   1      20.518  15.376   6.561  0.00  0.00     0.183 C 
HETATM   21  C   UNK N   1      21.471  16.429   5.956  0.00  0.00     0.204 C 
HETATM   22  C   UNK N   1      22.801  15.789   5.506  0.00  0.00     0.292 C 
HETATM   23  O   UNK N   1      23.176  14.717   6.346  0.00  0.00    -0.348 OA
BRANCH  19  24
HETATM   24  O   UNK N   1      19.936  13.041   6.360  0.00  0.00    -0.390 OA
HETATM   25  H   UNK N   1      19.794  12.230   5.847  0.00  0.00     0.210 HD
ENDBRANCH  19  24
BRANCH  20  26
HETATM   26  O   UNK N   1      20.716  15.265   7.943  0.00  0.00    -0.390 OA
HETATM   27  H   UNK N   1      20.615  15.520   8.873  0.00  0.00     0.210 HD
ENDBRANCH  20  26
BRANCH  21  28
HETATM   28  O   UNK N   1      21.672  17.482   6.852  0.00  0.00    -0.388 OA
HETATM   29  H   UNK N   1      22.130  18.332   6.938  0.00  0.00     0.210 HD
ENDBRANCH  21  28
BRANCH  22  30
HETATM   30  O   UNK N   1      23.833  16.754   5.378  0.00  0.00    -0.348 OA
BRANCH  30  31
HETATM   31  C   UNK N   1      24.269  16.916   4.025  0.00  0.00     0.065 C 
HETATM   32  C   UNK N   1      23.222  16.455   2.989  0.00  0.00     0.046 C 
BRANCH  31  33
HETATM   33  C   UNK N   1      24.472  18.423   3.793  0.00  0.00     0.042 C 
BRANCH  33  34
HETATM   34  C   UNK N   1      25.934  18.872   3.839  0.00  0.00     0.030 C 
BRANCH  34  35
HETATM   35  C   UNK N   1      26.036  20.217   4.491  0.00  0.00    -0.025 C 
HETATM   36  C   UNK N   1      26.830  20.451   5.545  0.00  0.00    -0.091 C 
HETATM   37  C   UNK N   1      26.857  21.811   6.149  0.00  0.00     0.042 C 
HETATM   38  C   UNK N   1      27.696  19.381   6.130  0.00  0.00     0.042 C 
ENDBRANCH  34  35
ENDBRANCH  33  34
ENDBRANCH  31  33
BRANCH  31  39
HETATM   39  C   UNK N   1      25.598  16.150   3.792  0.00  0.00     0.027 C 
HETATM   40  C   UNK N   1      26.059  15.212   4.923  0.00  0.00     0.030 C 
HETATM   41  C   UNK N   1      27.026  15.940   5.880  0.00  0.00     0.123 C 
HETATM   42  C   UNK N   1      26.666  13.989   4.227  0.00  0.00    -0.030 C 
HETATM   43  C   UNK N   1      28.268  15.158   6.310  0.00  0.00     0.038 C 
HETATM   44  C   UNK N   1      28.956  14.379   5.181  0.00  0.00     0.002 C 
HETATM   45  C   UNK N   1      30.458  14.633   4.994  0.00  0.00    -0.001 C 
HETATM   46  C   UNK N   1      28.177  14.184   3.871  0.00  0.00    -0.032 C 
HETATM   47  C   UNK N   1      30.841  15.989   4.364  0.00  0.00    -0.011 C 
HETATM   48  C   UNK N   1      31.088  13.468   4.193  0.00  0.00     0.001 C 
HETATM   49  C   UNK N   1      32.359  16.149   4.218  0.00  0.00     0.037 C 
HETATM   50  C   UNK N   1      30.297  17.171   5.140  0.00  0.00     0.010 C 
HETATM   51  C   UNK N   1      33.163  14.902   4.693  0.00  0.00     0.133 C 
HETATM   52  C   UNK N   1      32.619  13.674   3.922  0.00  0.00    -0.017 C 
HETATM   53  C   UNK N   1      33.359  12.417   4.346  0.00  0.00     0.018 C 
HETATM   54  C   UNK N   1      32.931  13.886   2.439  0.00  0.00     0.018 C 
HETATM   55  C   UNK N   1      30.278  13.079   2.932  0.00  0.00     0.007 C 
HETATM   56  C   UNK N   1      28.772  12.937   3.195  0.00  0.00     0.011 C 
HETATM   57  C   UNK N   1      28.384  15.383   2.932  0.00  0.00     0.016 C 
HETATM   58  C   UNK N   1      25.792  13.858   3.009  0.00  0.00     0.011 C 
HETATM   59  C   UNK N   1      26.462  12.758   5.107  0.00  0.00     0.016 C 
HETATM   60  C   UNK N   1      25.527  15.280   2.541  0.00  0.00     0.009 C 
BRANCH  41  61
HETATM   61  O   UNK N   1      26.337  16.341   7.023  0.00  0.00    -0.395 OA
HETATM   62  H   UNK N   1      25.956  17.212   7.214  0.00  0.00     0.210 HD
ENDBRANCH  41  61
BRANCH  51  63
HETATM   63  O   UNK N   1      33.089  14.665   6.094  0.00  0.00    -0.352 OA
BRANCH  63  64
HETATM   64  C   UNK N   1      33.630  15.755   6.794  0.00  0.00     0.292 C 
HETATM   65  C   UNK N   1      34.514  15.347   7.977  0.00  0.00     0.211 C 
HETATM   66  C   UNK N   1      34.810  16.567   8.870  0.00  0.00     0.183 C 
HETATM   67  C   UNK N   1      34.625  17.851   8.052  0.00  0.00     0.180 C 
HETATM   68  C   UNK N   1      33.185  17.922   7.443  0.00  0.00     0.179 C 
HETATM   69  O   UNK N   1      32.619  16.638   7.209  0.00  0.00    -0.348 OA
BRANCH  65  70
HETATM   70  O   UNK N   1      35.708  14.814   7.485  0.00  0.00    -0.346 OA
BRANCH  70  71
HETATM   71  C   UNK N   1      36.441  14.481   8.624  0.00  0.00     0.292 C 
HETATM   72  C   UNK N   1      37.583  13.523   8.268  0.00  0.00     0.204 C 
HETATM   73  C   UNK N   1      38.386  13.279   9.546  0.00  0.00     0.183 C 
HETATM   74  O   UNK N   1      37.062  12.322   7.775  0.00  0.00    -0.388 OA
HETATM   75  C   UNK N   1      37.474  12.863  10.703  0.00  0.00     0.180 C 
HETATM   76  C   UNK N   1      36.319  13.876  10.797  0.00  0.00     0.179 C 
HETATM   77  O   UNK N   1      35.598  13.895   9.586  0.00  0.00    -0.348 OA
HETATM   78  H   UNK N   1      36.843  11.488   7.331  0.00  0.00     0.210 HD
BRANCH  73  79
HETATM   79  O   UNK N   1      39.382  12.326   9.331  0.00  0.00    -0.390 OA
HETATM   80  H   UNK N   1      39.246  11.370   9.433  0.00  0.00     0.210 HD
ENDBRANCH  73  79
BRANCH  75  81
HETATM   81  O   UNK N   1      38.206  12.853  11.892  0.00  0.00    -0.390 OA
HETATM   82  H   UNK N   1      38.387  12.180  12.568  0.00  0.00     0.210 HD
ENDBRANCH  75  81
BRANCH  76  83
HETATM   83  C   UNK N   1      35.376  13.555  11.951  0.00  0.00     0.198 C 
BRANCH  83  84
HETATM   84  O   UNK N   1      34.131  14.153  11.751  0.00  0.00    -0.398 OA
HETATM   85  H   UNK N   1      33.491  14.875  11.643  0.00  0.00     0.209 HD
ENDBRANCH  83  84
ENDBRANCH  76  83
ENDBRANCH  70  71
ENDBRANCH  65  70
BRANCH  66  86
HETATM   86  O   UNK N   1      33.933  16.571   9.958  0.00  0.00    -0.390 OA
HETATM   87  H   UNK N   1      33.102  16.414  10.434  0.00  0.00     0.210 HD
ENDBRANCH  66  86
BRANCH  67  88
HETATM   88  O   UNK N   1      34.982  18.994   8.768  0.00  0.00    -0.390 OA
HETATM   89  H   UNK N   1      34.305  19.601   9.107  0.00  0.00     0.210 HD
ENDBRANCH  67  88
BRANCH  68  90
HETATM   90  C   UNK N   1      32.214  18.687   8.336  0.00  0.00     0.198 C 
BRANCH  90  91
HETATM   91  O   UNK N   1      31.437  17.799   9.081  0.00  0.00    -0.398 OA
HETATM   92  H   UNK N   1      30.550  17.960   9.440  0.00  0.00     0.209 HD
ENDBRANCH  90  91
ENDBRANCH  68  90
ENDBRANCH  63  64
ENDBRANCH  51  63
ENDBRANCH  31  39
ENDBRANCH  30  31
ENDBRANCH  22  30
ENDBRANCH  17  18
ENDBRANCH  16  17
ENDBRANCH   8  16
ENDBRANCH   1   4
TORSDOF 29
ENDMDL
MODEL 9
REMARK VINA RESULT:      -7.7      4.238     11.870
REMARK  29 active torsions:
REMARK  status: ('A' for Active; 'I' for Inactive)
REMARK    1  A    between atoms: C_3  and  C_2 
REMARK    2  A    between atoms: C_4  and  C_3 
REMARK    3  A    between atoms: C_5  and  C_4 
REMARK    4  A    between atoms: C_5  and  O_6 
REMARK    5  A    between atoms: C_35  and  C_5 
REMARK    6  A    between atoms: C_7  and  O_6 
REMARK    7  A    between atoms: C_9  and  O_14 
REMARK    8  A    between atoms: C_10  and  O_15 
REMARK    9  A    between atoms: C_11  and  O_16 
REMARK   10  A    between atoms: C_12  and  C_17 
REMARK   11  A    between atoms: C_17  and  O_18 
REMARK   12  A    between atoms: C_50  and  O_18 
REMARK   13  A    between atoms: C_26  and  O_44 
REMARK   14  A    between atoms: C_32  and  O_38 
REMARK   15  A    between atoms: C_56  and  O_44 
REMARK   16  A    between atoms: C_46  and  C_45 
REMARK   17  A    between atoms: C_47  and  O_54 
REMARK   18  A    between atoms: C_48  and  O_52 
REMARK   19  A    between atoms: C_49  and  O_53 
REMARK   20  A    between atoms: C_57  and  O_66 
REMARK   21  A    between atoms: C_58  and  O_62 
REMARK   22  A    between atoms: C_59  and  O_63 
REMARK   23  A    between atoms: C_60  and  C_64 
REMARK   24  A    between atoms: C_64  and  O_65 
REMARK   25  A    between atoms: C_67  and  O_66 
REMARK   26  A    between atoms: C_69  and  O_73 
REMARK   27  A    between atoms: C_70  and  O_74 
REMARK   28  A    between atoms: C_71  and  C_75 
REMARK   29  A    between atoms: C_75  and  O_76 
ROOT
HETATM    1  C   UNK N   1      34.300  18.591   8.219  0.00  0.00     0.198 C 
HETATM    2  O   UNK N   1      35.308  19.443   8.670  0.00  0.00    -0.398 OA
HETATM    3  H   UNK N   1      36.000  20.081   8.906  0.00  0.00     0.209 HD
ENDROOT
BRANCH   1   4
HETATM    4  C   UNK N   1      34.783  17.138   8.107  0.00  0.00     0.179 C 
HETATM    5  C   UNK N   1      34.550  16.249   9.339  0.00  0.00     0.180 C 
HETATM    6  C   UNK N   1      33.087  15.852   9.417  0.00  0.00     0.183 C 
HETATM    7  C   UNK N   1      32.742  15.154   8.115  0.00  0.00     0.204 C 
HETATM    8  C   UNK N   1      33.102  16.020   6.889  0.00  0.00     0.291 C 
HETATM    9  O   UNK N   1      34.435  16.508   6.881  0.00  0.00    -0.348 OA
BRANCH   5  10
HETATM   10  O   UNK N   1      34.954  16.900  10.506  0.00  0.00    -0.390 OA
HETATM   11  H   UNK N   1      35.065  16.397  11.328  0.00  0.00     0.210 HD
ENDBRANCH   5  10
BRANCH   6  12
HETATM   12  O   UNK N   1      32.891  14.973  10.484  0.00  0.00    -0.390 OA
HETATM   13  H   UNK N   1      33.423  14.961  11.296  0.00  0.00     0.210 HD
ENDBRANCH   6  12
BRANCH   7  14
HETATM   14  O   UNK N   1      31.397  14.778   8.090  0.00  0.00    -0.388 OA
HETATM   15  H   UNK N   1      30.480  14.805   7.775  0.00  0.00     0.210 HD
ENDBRANCH   7  14
BRANCH   8  16
HETATM   16  O   UNK N   1      32.171  17.013   6.552  0.00  0.00    -0.356 OA
BRANCH  16  17
HETATM   17  C   UNK N   1      31.682  16.648   5.288  0.00  0.00     0.205 C 
BRANCH  17  18
HETATM   18  C   UNK N   1      30.409  17.411   4.924  0.00  0.00     0.180 C 
HETATM   19  C   UNK N   1      29.371  17.316   6.066  0.00  0.00     0.180 C 
HETATM   20  C   UNK N   1      27.968  17.548   5.513  0.00  0.00     0.183 C 
HETATM   21  C   UNK N   1      27.679  16.466   4.452  0.00  0.00     0.204 C 
HETATM   22  C   UNK N   1      28.975  16.005   3.754  0.00  0.00     0.292 C 
HETATM   23  O   UNK N   1      29.907  17.059   3.631  0.00  0.00    -0.348 OA
BRANCH  19  24
HETATM   24  O   UNK N   1      29.676  18.228   7.078  0.00  0.00    -0.390 OA
HETATM   25  H   UNK N   1      29.022  18.883   7.367  0.00  0.00     0.210 HD
ENDBRANCH  19  24
BRANCH  20  26
HETATM   26  O   UNK N   1      27.898  18.827   4.948  0.00  0.00    -0.390 OA
HETATM   27  H   UNK N   1      27.456  19.632   4.635  0.00  0.00     0.210 HD
ENDBRANCH  20  26
BRANCH  21  28
HETATM   28  O   UNK N   1      26.724  16.918   3.537  0.00  0.00    -0.388 OA
HETATM   29  H   UNK N   1      26.637  17.407   2.704  0.00  0.00     0.210 HD
ENDBRANCH  21  28
BRANCH  22  30
HETATM   30  O   UNK N   1      28.710  15.378   2.509  0.00  0.00    -0.348 OA
BRANCH  30  31
HETATM   31  C   UNK N   1      28.509  13.967   2.635  0.00  0.00     0.065 C 
HETATM   32  C   UNK N   1      27.868  13.561   3.979  0.00  0.00     0.046 C 
BRANCH  31  33
HETATM   33  C   UNK N   1      27.512  13.553   1.539  0.00  0.00     0.042 C 
BRANCH  33  34
HETATM   34  C   UNK N   1      26.325  12.735   2.050  0.00  0.00     0.030 C 
BRANCH  34  35
HETATM   35  C   UNK N   1      26.175  11.485   1.236  0.00  0.00    -0.025 C 
HETATM   36  C   UNK N   1      26.430  10.266   1.731  0.00  0.00    -0.091 C 
HETATM   37  C   UNK N   1      26.279   9.076   0.850  0.00  0.00     0.042 C 
HETATM   38  C   UNK N   1      26.858  10.066   3.150  0.00  0.00     0.042 C 
ENDBRANCH  34  35
ENDBRANCH  33  34
ENDBRANCH  31  33
BRANCH  31  39
HETATM   39  C   UNK N   1      29.853  13.214   2.456  0.00  0.00     0.027 C 
HETATM   40  C   UNK N   1      30.303  12.320   3.628  0.00  0.00     0.030 C 
HETATM   41  C   UNK N   1      31.237  13.094   4.581  0.00  0.00     0.123 C 
HETATM   42  C   UNK N   1      30.942  11.085   2.986  0.00  0.00    -0.030 C 
HETATM   43  C   UNK N   1      32.480  12.345   5.064  0.00  0.00     0.038 C 
HETATM   44  C   UNK N   1      33.205  11.540   3.976  0.00  0.00     0.002 C 
HETATM   45  C   UNK N   1      34.706  11.810   3.814  0.00  0.00    -0.001 C 
HETATM   46  C   UNK N   1      32.458  11.291   2.656  0.00  0.00    -0.032 C 
HETATM   47  C   UNK N   1      35.084  13.151   3.149  0.00  0.00    -0.011 C 
HETATM   48  C   UNK N   1      35.371  10.630   3.066  0.00  0.00     0.001 C 
HETATM   49  C   UNK N   1      36.602  13.329   3.031  0.00  0.00     0.037 C 
HETATM   50  C   UNK N   1      34.506  14.349   3.873  0.00  0.00     0.010 C 
HETATM   51  C   UNK N   1      37.413  12.110   3.563  0.00  0.00     0.133 C 
HETATM   52  C   UNK N   1      36.905  10.849   2.822  0.00  0.00    -0.017 C 
HETATM   53  C   UNK N   1      37.653   9.618   3.303  0.00  0.00     0.018 C 
HETATM   54  C   UNK N   1      37.246  11.018   1.340  0.00  0.00     0.018 C 
HETATM   55  C   UNK N   1      34.595  10.187   1.800  0.00  0.00     0.007 C 
HETATM   56  C   UNK N   1      33.085  10.032   2.034  0.00  0.00     0.011 C 
HETATM   57  C   UNK N   1      32.668  12.462   1.684  0.00  0.00     0.016 C 
HETATM   58  C   UNK N   1      30.097  10.902   1.753  0.00  0.00     0.011 C 
HETATM   59  C   UNK N   1      30.736   9.880   3.901  0.00  0.00     0.016 C 
HETATM   60  C   UNK N   1      29.823  12.303   1.234  0.00  0.00     0.009 C 
BRANCH  41  61
HETATM   61  O   UNK N   1      30.516  13.521   5.695  0.00  0.00    -0.395 OA
HETATM   62  H   UNK N   1      30.842  14.023   6.458  0.00  0.00     0.210 HD
ENDBRANCH  41  61
BRANCH  51  63
HETATM   63  O   UNK N   1      37.311  11.917   4.970  0.00  0.00    -0.352 OA
BRANCH  63  64
HETATM   64  C   UNK N   1      38.563  12.114   5.573  0.00  0.00     0.292 C 
HETATM   65  C   UNK N   1      38.477  12.603   7.023  0.00  0.00     0.211 C 
HETATM   66  C   UNK N   1      39.856  13.090   7.507  0.00  0.00     0.183 C 
HETATM   67  C   UNK N   1      40.951  12.448   6.646  0.00  0.00     0.180 C 
HETATM   68  C   UNK N   1      40.730  12.769   5.131  0.00  0.00     0.179 C 
HETATM   69  O   UNK N   1      39.361  12.978   4.804  0.00  0.00    -0.348 OA
BRANCH  65  70
HETATM   70  O   UNK N   1      38.032  11.549   7.826  0.00  0.00    -0.346 OA
BRANCH  70  71
HETATM   71  C   UNK N   1      37.138  12.141   8.719  0.00  0.00     0.292 C 
HETATM   72  C   UNK N   1      37.838  12.474  10.041  0.00  0.00     0.204 C 
HETATM   73  C   UNK N   1      36.819  13.195  10.925  0.00  0.00     0.183 C 
HETATM   74  O   UNK N   1      38.281  11.298  10.655  0.00  0.00    -0.388 OA
HETATM   75  C   UNK N   1      35.510  12.406  11.018  0.00  0.00     0.180 C 
HETATM   76  C   UNK N   1      35.057  12.052   9.591  0.00  0.00     0.179 C 
HETATM   77  O   UNK N   1      36.048  11.282   8.950  0.00  0.00    -0.348 OA
HETATM   78  H   UNK N   1      38.722  10.581  11.137  0.00  0.00     0.210 HD
BRANCH  73  79
HETATM   79  O   UNK N   1      37.347  13.434  12.194  0.00  0.00    -0.390 OA
HETATM   80  H   UNK N   1      37.113  12.919  12.983  0.00  0.00     0.210 HD
ENDBRANCH  73  79
BRANCH  75  81
HETATM   81  O   UNK N   1      34.543  13.186  11.655  0.00  0.00    -0.390 OA
HETATM   82  H   UNK N   1      34.454  13.555  12.548  0.00  0.00     0.210 HD
ENDBRANCH  75  81
BRANCH  76  83
HETATM   83  C   UNK N   1      33.735  11.292   9.590  0.00  0.00     0.198 C 
BRANCH  83  84
HETATM   84  O   UNK N   1      32.663  12.169   9.426  0.00  0.00    -0.398 OA
HETATM   85  H   UNK N   1      32.020  12.721   8.950  0.00  0.00     0.209 HD
ENDBRANCH  83  84
ENDBRANCH  76  83
ENDBRANCH  70  71
ENDBRANCH  65  70
BRANCH  66  86
HETATM   86  O   UNK N   1      39.923  14.481   7.395  0.00  0.00    -0.390 OA
HETATM   87  H   UNK N   1      39.994  15.398   7.705  0.00  0.00     0.210 HD
ENDBRANCH  66  86
BRANCH  67  88
HETATM   88  O   UNK N   1      42.234  12.761   7.098  0.00  0.00    -0.390 OA
HETATM   89  H   UNK N   1      42.586  12.363   7.910  0.00  0.00     0.210 HD
ENDBRANCH  67  88
BRANCH  68  90
HETATM   90  C   UNK N   1      41.496  14.008   4.681  0.00  0.00     0.198 C 
BRANCH  90  91
HETATM   91  O   UNK N   1      40.668  15.130   4.718  0.00  0.00    -0.398 OA
HETATM   92  H   UNK N   1      40.914  16.043   4.499  0.00  0.00     0.209 HD
ENDBRANCH  90  91
ENDBRANCH  68  90
ENDBRANCH  63  64
ENDBRANCH  51  63
ENDBRANCH  31  39
ENDBRANCH  30  31
ENDBRANCH  22  30
ENDBRANCH  17  18
ENDBRANCH  16  17
ENDBRANCH   8  16
ENDBRANCH   1   4
TORSDOF 29
ENDMDL
