MODEL 1
REMARK VINA RESULT:      -7.2      0.000      0.000
REMARK  5 active torsions:
REMARK  status: ('A' for Active; 'I' for Inactive)
REMARK    1  A    between atoms: C_4  and  O_20 
REMARK    2  A    between atoms: C_13  and  O_26 
REMARK    3  A    between atoms: C_15  and  O_21 
REMARK    4  A    between atoms: C_17  and  C_27 
REMARK    5  A    between atoms: C_18  and  O_31 
ROOT
HETATM    1  C   UNK N   1      36.069  11.817  11.982  0.00  0.00     0.266 A 
HETATM    2  O   UNK N   1      37.020  12.148  11.099  0.00  0.00    -0.310 OA
HETATM    3  C   UNK N   1      37.128  13.496  10.882  0.00  0.00     0.200 A 
HETATM    4  C   UNK N   1      35.920  14.163  11.839  0.00  0.00     0.141 A 
HETATM    5  C   UNK N   1      35.277  12.949  12.542  0.00  0.00     0.122 A 
HETATM    6  C   UNK N   1      35.417  14.480   9.035  0.00  0.00     0.077 A 
HETATM    7  C   UNK N   1      34.825  14.870  10.691  0.00  0.00     0.199 A 
HETATM    8  C   UNK N   1      34.388  15.459   8.003  0.00  0.00     0.068 C 
HETATM    9  C   UNK N   1      33.260  16.035   9.153  0.00  0.00     0.284 C 
HETATM   10  O   UNK N   1      33.482  15.638  10.601  0.00  0.00    -0.334 OA
HETATM   11  O   UNK N   1      33.414  17.395   9.116  0.00  0.00    -0.287 OA
HETATM   12  C   UNK N   1      34.369  17.815   8.285  0.00  0.00     0.291 C 
HETATM   13  C   UNK N   1      34.959  16.781   7.407  0.00  0.00     0.232 C 
HETATM   14  O   UNK N   1      35.877  10.656  12.306  0.00  0.00    -0.265 OA
HETATM   15  C   UNK N   1      37.056  13.868   9.258  0.00  0.00     0.166 C 
HETATM   16  C   UNK N   1      34.793  13.270   8.886  0.00  0.00     0.177 A 
HETATM   17  C   UNK N   1      33.758  14.451   7.037  0.00  0.00     0.042 C 
HETATM   18  C   UNK N   1      33.481  13.383   8.089  0.00  0.00     0.154 C 
HETATM   19  O   UNK N   1      34.648  18.999   8.178  0.00  0.00    -0.262 OA
HETATM   20  C   UNK N   1      35.404  12.981  14.059  0.00  0.00     0.024 C 
HETATM   21  C   UNK N   1      35.567  15.528  10.158  0.00  0.00     0.298 A 
HETATM   22  O   UNK N   1      34.799  14.158   9.892  0.00  0.00    -0.310 OA
HETATM   23  O   UNK N   1      35.662  16.587  10.802  0.00  0.00    -0.262 OA
ENDROOT
BRANCH  17  24
HETATM   24  C   UNK N   1      34.571  13.882   5.796  0.00  0.00    -0.044 C 
HETATM   25  C   UNK N   1      35.962  14.451   5.621  0.00  0.00     0.015 C 
HETATM   26  C   UNK N   1      34.750  12.371   5.759  0.00  0.00     0.015 C 
HETATM   27  C   UNK N   1      33.799  14.272   4.551  0.00  0.00     0.015 C 
ENDBRANCH  17  24
BRANCH  18  28
HETATM   28  O   UNK N   1      33.082  12.160   7.545  0.00  0.00    -0.393 OA
HETATM   29  H   UNK N   1      32.183  11.798   7.602  0.00  0.00     0.210 HD
ENDBRANCH  18  28
BRANCH  13  30
HETATM   30  O   UNK N   1      34.414  17.062   6.152  0.00  0.00    -0.385 OA
HETATM   31  H   UNK N   1      34.225  16.342   5.530  0.00  0.00     0.210 HD
ENDBRANCH  13  30
BRANCH  15  32
HETATM   32  O   UNK N   1      37.435  12.815   8.416  0.00  0.00    -0.392 OA
HETATM   33  H   UNK N   1      38.245  12.304   8.570  0.00  0.00     0.210 HD
ENDBRANCH  15  32
BRANCH   4  34
HETATM   34  O   UNK N   1      36.451  15.089  12.752  0.00  0.00    -0.382 OA
HETATM   35  H   UNK N   1      36.411  16.051  12.628  0.00  0.00     0.210 HD
ENDBRANCH   4  34
TORSDOF 5
ENDMDL
MODEL 2
REMARK VINA RESULT:      -7.1     16.552     19.600
REMARK  5 active torsions:
REMARK  status: ('A' for Active; 'I' for Inactive)
REMARK    1  A    between atoms: C_4  and  O_20 
REMARK    2  A    between atoms: C_13  and  O_26 
REMARK    3  A    between atoms: C_15  and  O_21 
REMARK    4  A    between atoms: C_17  and  C_27 
REMARK    5  A    between atoms: C_18  and  O_31 
ROOT
HETATM    1  C   UNK N   1      29.627  29.148  -3.011  0.00  0.00     0.266 A 
HETATM    2  O   UNK N   1      30.121  28.878  -4.227  0.00  0.00    -0.310 OA
HETATM    3  C   UNK N   1      29.181  28.434  -5.119  0.00  0.00     0.200 A 
HETATM    4  C   UNK N   1      27.761  28.378  -4.225  0.00  0.00     0.141 A 
HETATM    5  C   UNK N   1      28.171  28.886  -2.827  0.00  0.00     0.122 A 
HETATM    6  C   UNK N   1      28.686  25.778  -5.004  0.00  0.00     0.077 A 
HETATM    7  C   UNK N   1      27.366  26.686  -4.181  0.00  0.00     0.199 A 
HETATM    8  C   UNK N   1      28.040  24.150  -5.117  0.00  0.00     0.068 C 
HETATM    9  C   UNK N   1      26.627  24.314  -4.166  0.00  0.00     0.284 C 
HETATM   10  O   UNK N   1      26.323  25.693  -3.609  0.00  0.00    -0.334 OA
HETATM   11  O   UNK N   1      25.608  24.036  -5.037  0.00  0.00    -0.287 OA
HETATM   12  C   UNK N   1      26.007  23.789  -6.286  0.00  0.00     0.291 C 
HETATM   13  C   UNK N   1      27.468  23.661  -6.482  0.00  0.00     0.232 C 
HETATM   14  O   UNK N   1      30.335  29.586  -2.120  0.00  0.00    -0.265 OA
HETATM   15  C   UNK N   1      29.643  27.003  -5.840  0.00  0.00     0.166 C 
HETATM   16  C   UNK N   1      29.511  25.615  -3.923  0.00  0.00     0.177 A 
HETATM   17  C   UNK N   1      29.096  23.279  -4.429  0.00  0.00     0.042 C 
HETATM   18  C   UNK N   1      29.347  24.232  -3.267  0.00  0.00     0.154 C 
HETATM   19  O   UNK N   1      25.206  23.566  -7.180  0.00  0.00    -0.262 OA
HETATM   20  C   UNK N   1      27.455  30.163  -2.406  0.00  0.00     0.024 C 
HETATM   21  C   UNK N   1      27.355  26.504  -5.293  0.00  0.00     0.298 A 
HETATM   22  O   UNK N   1      28.315  26.207  -4.056  0.00  0.00    -0.310 OA
HETATM   23  O   UNK N   1      26.227  26.812  -5.713  0.00  0.00    -0.262 OA
ENDROOT
BRANCH  17  24
HETATM   24  C   UNK N   1      30.437  22.868  -5.177  0.00  0.00    -0.044 C 
HETATM   25  C   UNK N   1      30.556  23.357  -6.603  0.00  0.00     0.015 C 
HETATM   26  C   UNK N   1      31.730  23.298  -4.499  0.00  0.00     0.015 C 
HETATM   27  C   UNK N   1      30.450  21.354  -5.250  0.00  0.00     0.015 C 
ENDBRANCH  17  24
BRANCH  18  28
HETATM   28  O   UNK N   1      30.453  23.877  -2.489  0.00  0.00    -0.393 OA
HETATM   29  H   UNK N   1      30.885  24.462  -1.848  0.00  0.00     0.210 HD
ENDBRANCH  18  28
BRANCH  13  30
HETATM   30  O   UNK N   1      27.658  22.289  -6.662  0.00  0.00    -0.385 OA
HETATM   31  H   UNK N   1      28.545  21.906  -6.584  0.00  0.00     0.210 HD
ENDBRANCH  13  30
BRANCH  15  32
HETATM   32  O   UNK N   1      31.028  26.793  -5.852  0.00  0.00    -0.392 OA
HETATM   33  H   UNK N   1      31.467  26.319  -6.575  0.00  0.00     0.210 HD
ENDBRANCH  15  32
BRANCH   4  34
HETATM   34  O   UNK N   1      26.762  29.172  -4.811  0.00  0.00    -0.382 OA
HETATM   35  H   UNK N   1      25.818  28.950  -4.795  0.00  0.00     0.210 HD
ENDBRANCH   4  34
TORSDOF 5
ENDMDL
MODEL 3
REMARK VINA RESULT:      -7.1      1.522      5.475
REMARK  5 active torsions:
REMARK  status: ('A' for Active; 'I' for Inactive)
REMARK    1  A    between atoms: C_4  and  O_20 
REMARK    2  A    between atoms: C_13  and  O_26 
REMARK    3  A    between atoms: C_15  and  O_21 
REMARK    4  A    between atoms: C_17  and  C_27 
REMARK    5  A    between atoms: C_18  and  O_31 
ROOT
HETATM    1  C   UNK N   1      34.166  16.307   6.632  0.00  0.00     0.266 A 
HETATM    2  O   UNK N   1      33.700  15.051   6.670  0.00  0.00    -0.310 OA
HETATM    3  C   UNK N   1      33.257  14.663   7.907  0.00  0.00     0.200 A 
HETATM    4  C   UNK N   1      33.559  15.993   8.886  0.00  0.00     0.141 A 
HETATM    5  C   UNK N   1      34.161  17.043   7.929  0.00  0.00     0.122 A 
HETATM    6  C   UNK N   1      35.189  13.732   9.552  0.00  0.00     0.077 A 
HETATM    7  C   UNK N   1      34.753  15.419  10.009  0.00  0.00     0.199 A 
HETATM    8  C   UNK N   1      36.182  13.198  10.898  0.00  0.00     0.068 C 
HETATM    9  C   UNK N   1      36.358  14.671  11.752  0.00  0.00     0.284 C 
HETATM   10  O   UNK N   1      35.625  15.881  11.203  0.00  0.00    -0.334 OA
HETATM   11  O   UNK N   1      35.788  14.416  12.971  0.00  0.00    -0.287 OA
HETATM   12  C   UNK N   1      35.264  13.196  13.086  0.00  0.00     0.291 C 
HETATM   13  C   UNK N   1      35.552  12.263  11.974  0.00  0.00     0.232 C 
HETATM   14  O   UNK N   1      34.563  16.807   5.593  0.00  0.00    -0.265 OA
HETATM   15  C   UNK N   1      33.959  13.230   8.391  0.00  0.00     0.166 C 
HETATM   16  C   UNK N   1      36.177  14.024   8.651  0.00  0.00     0.177 A 
HETATM   17  C   UNK N   1      37.494  12.755  10.244  0.00  0.00     0.042 C 
HETATM   18  C   UNK N   1      37.583  13.924   9.271  0.00  0.00     0.154 C 
HETATM   19  O   UNK N   1      34.686  12.842  14.102  0.00  0.00    -0.262 OA
HETATM   20  C   UNK N   1      33.327  18.312   7.809  0.00  0.00     0.024 C 
HETATM   21  C   UNK N   1      34.179  14.532  10.401  0.00  0.00     0.298 A 
HETATM   22  O   UNK N   1      35.394  14.808   9.408  0.00  0.00    -0.310 OA
HETATM   23  O   UNK N   1      33.438  14.937  11.312  0.00  0.00    -0.262 OA
ENDROOT
BRANCH  17  24
HETATM   24  C   UNK N   1      37.615  11.349   9.513  0.00  0.00    -0.044 C 
HETATM   25  C   UNK N   1      36.369  10.491   9.556  0.00  0.00     0.015 C 
HETATM   26  C   UNK N   1      38.016  11.398   8.046  0.00  0.00     0.015 C 
HETATM   27  C   UNK N   1      38.688  10.566  10.245  0.00  0.00     0.015 C 
ENDBRANCH  17  24
BRANCH  18  28
HETATM   28  O   UNK N   1      38.580  13.767   8.305  0.00  0.00    -0.393 OA
HETATM   29  H   UNK N   1      38.782  14.414   7.611  0.00  0.00     0.210 HD
ENDBRANCH  18  28
BRANCH  13  30
HETATM   30  O   UNK N   1      36.495  11.386  12.514  0.00  0.00    -0.385 OA
HETATM   31  H   UNK N   1      36.516  11.221  13.470  0.00  0.00     0.210 HD
ENDBRANCH  13  30
BRANCH  15  32
HETATM   32  O   UNK N   1      34.408  12.430   7.333  0.00  0.00    -0.392 OA
HETATM   33  H   UNK N   1      33.808  11.845   6.844  0.00  0.00     0.210 HD
ENDBRANCH  15  32
BRANCH   4  34
HETATM   34  O   UNK N   1      32.381  16.445   9.503  0.00  0.00    -0.382 OA
HETATM   35  H   UNK N   1      32.210  16.376  10.455  0.00  0.00     0.210 HD
ENDBRANCH   4  34
TORSDOF 5
ENDMDL
MODEL 4
REMARK VINA RESULT:      -7.0     17.560     20.028
REMARK  5 active torsions:
REMARK  status: ('A' for Active; 'I' for Inactive)
REMARK    1  A    between atoms: C_4  and  O_20 
REMARK    2  A    between atoms: C_13  and  O_26 
REMARK    3  A    between atoms: C_15  and  O_21 
REMARK    4  A    between atoms: C_17  and  C_27 
REMARK    5  A    between atoms: C_18  and  O_31 
ROOT
HETATM    1  C   UNK N   1      27.341  21.627  -8.542  0.00  0.00     0.266 A 
HETATM    2  O   UNK N   1      27.593  22.836  -9.061  0.00  0.00    -0.310 OA
HETATM    3  C   UNK N   1      28.686  23.455  -8.514  0.00  0.00     0.200 A 
HETATM    4  C   UNK N   1      29.221  22.381  -7.340  0.00  0.00     0.141 A 
HETATM    5  C   UNK N   1      28.253  21.184  -7.450  0.00  0.00     0.122 A 
HETATM    6  C   UNK N   1      28.185  24.813  -6.230  0.00  0.00     0.077 A 
HETATM    7  C   UNK N   1      28.979  23.241  -5.850  0.00  0.00     0.199 A 
HETATM    8  C   UNK N   1      28.244  25.670  -4.700  0.00  0.00     0.068 C 
HETATM    9  C   UNK N   1      28.808  24.424  -3.672  0.00  0.00     0.284 C 
HETATM   10  O   UNK N   1      29.132  23.088  -4.316  0.00  0.00    -0.334 OA
HETATM   11  O   UNK N   1      29.998  24.902  -3.195  0.00  0.00    -0.287 OA
HETATM   12  C   UNK N   1      30.348  26.091  -3.688  0.00  0.00     0.291 C 
HETATM   13  C   UNK N   1      29.321  26.779  -4.499  0.00  0.00     0.232 C 
HETATM   14  O   UNK N   1      26.422  20.938  -8.952  0.00  0.00    -0.265 OA
HETATM   15  C   UNK N   1      28.321  24.992  -7.980  0.00  0.00     0.166 C 
HETATM   16  C   UNK N   1      26.885  24.386  -6.196  0.00  0.00     0.177 A 
HETATM   17  C   UNK N   1      26.782  26.030  -4.416  0.00  0.00     0.042 C 
HETATM   18  C   UNK N   1      26.207  24.687  -4.847  0.00  0.00     0.154 C 
HETATM   19  O   UNK N   1      31.405  26.622  -3.384  0.00  0.00    -0.262 OA
HETATM   20  C   UNK N   1      28.937  19.877  -7.832  0.00  0.00     0.024 C 
HETATM   21  C   UNK N   1      29.578  24.160  -6.106  0.00  0.00     0.298 A 
HETATM   22  O   UNK N   1      28.045  23.743  -5.995  0.00  0.00    -0.310 OA
HETATM   23  O   UNK N   1      30.768  23.920  -5.839  0.00  0.00    -0.262 OA
ENDROOT
BRANCH  17  24
HETATM   24  C   UNK N   1      26.080  27.254  -5.147  0.00  0.00    -0.044 C 
HETATM   25  C   UNK N   1      26.960  28.021  -6.109  0.00  0.00     0.015 C 
HETATM   26  C   UNK N   1      24.824  26.919  -5.937  0.00  0.00     0.015 C 
HETATM   27  C   UNK N   1      25.681  28.239  -4.067  0.00  0.00     0.015 C 
ENDBRANCH  17  24
BRANCH  18  28
HETATM   28  O   UNK N   1      24.813  24.687  -4.940  0.00  0.00    -0.393 OA
HETATM   29  H   UNK N   1      24.316  24.754  -5.771  0.00  0.00     0.210 HD
ENDBRANCH  18  28
BRANCH  13  30
HETATM   30  O   UNK N   1      28.865  27.798  -3.660  0.00  0.00    -0.385 OA
HETATM   31  H   UNK N   1      28.703  28.686  -4.015  0.00  0.00     0.210 HD
ENDBRANCH  13  30
BRANCH  15  32
HETATM   32  O   UNK N   1      27.220  25.571  -8.623  0.00  0.00    -0.392 OA
HETATM   33  H   UNK N   1      26.529  25.033  -9.039  0.00  0.00     0.210 HD
ENDBRANCH  15  32
BRANCH   4  34
HETATM   34  O   UNK N   1      30.557  22.011  -7.563  0.00  0.00    -0.382 OA
HETATM   35  H   UNK N   1      31.004  21.291  -7.090  0.00  0.00     0.210 HD
ENDBRANCH   4  34
TORSDOF 5
ENDMDL
MODEL 5
REMARK VINA RESULT:      -7.0      2.099      5.745
REMARK  5 active torsions:
REMARK  status: ('A' for Active; 'I' for Inactive)
REMARK    1  A    between atoms: C_4  and  O_20 
REMARK    2  A    between atoms: C_13  and  O_26 
REMARK    3  A    between atoms: C_15  and  O_21 
REMARK    4  A    between atoms: C_17  and  C_27 
REMARK    5  A    between atoms: C_18  and  O_31 
ROOT
HETATM    1  C   UNK N   1      30.950  17.115   8.251  0.00  0.00     0.266 A 
HETATM    2  O   UNK N   1      32.056  17.670   8.765  0.00  0.00    -0.310 OA
HETATM    3  C   UNK N   1      33.128  17.658   7.911  0.00  0.00     0.200 A 
HETATM    4  C   UNK N   1      32.555  16.867   6.545  0.00  0.00     0.141 A 
HETATM    5  C   UNK N   1      31.080  16.554   6.876  0.00  0.00     0.122 A 
HETATM    6  C   UNK N   1      34.562  15.366   7.937  0.00  0.00     0.077 A 
HETATM    7  C   UNK N   1      33.500  15.410   6.483  0.00  0.00     0.199 A 
HETATM    8  C   UNK N   1      35.626  14.007   7.614  0.00  0.00     0.068 C 
HETATM    9  C   UNK N   1      34.882  13.364   6.213  0.00  0.00     0.284 C 
HETATM   10  O   UNK N   1      33.681  14.109   5.661  0.00  0.00    -0.334 OA
HETATM   11  O   UNK N   1      35.851  13.460   5.251  0.00  0.00    -0.287 OA
HETATM   12  C   UNK N   1      36.980  14.035   5.666  0.00  0.00     0.291 C 
HETATM   13  C   UNK N   1      37.077  14.289   7.120  0.00  0.00     0.232 C 
HETATM   14  O   UNK N   1      29.904  17.084   8.878  0.00  0.00    -0.265 OA
HETATM   15  C   UNK N   1      34.478  16.989   8.625  0.00  0.00     0.166 C 
HETATM   16  C   UNK N   1      33.686  14.762   8.798  0.00  0.00     0.177 A 
HETATM   17  C   UNK N   1      35.447  13.093   8.830  0.00  0.00     0.042 C 
HETATM   18  C   UNK N   1      33.933  13.247   8.915  0.00  0.00     0.154 C 
HETATM   19  O   UNK N   1      37.916  14.226   4.906  0.00  0.00    -0.262 OA
HETATM   20  C   UNK N   1      30.087  17.226   5.937  0.00  0.00     0.024 C 
HETATM   21  C   UNK N   1      34.519  15.890   6.486  0.00  0.00     0.298 A 
HETATM   22  O   UNK N   1      33.576  15.112   7.508  0.00  0.00    -0.310 OA
HETATM   23  O   UNK N   1      34.799  16.187   5.313  0.00  0.00    -0.262 OA
ENDROOT
BRANCH  17  24
HETATM   24  C   UNK N   1      36.167  13.411  10.210  0.00  0.00    -0.044 C 
HETATM   25  C   UNK N   1      37.055  14.636  10.207  0.00  0.00     0.015 C 
HETATM   26  C   UNK N   1      35.248  13.587  11.410  0.00  0.00     0.015 C 
HETATM   27  C   UNK N   1      37.076  12.235  10.510  0.00  0.00     0.015 C 
ENDBRANCH  17  24
BRANCH  18  28
HETATM   28  O   UNK N   1      33.387  12.706  10.083  0.00  0.00    -0.393 OA
HETATM   29  H   UNK N   1      33.508  11.789  10.373  0.00  0.00     0.210 HD
ENDBRANCH  18  28
BRANCH  13  30
HETATM   30  O   UNK N   1      37.974  13.316   7.567  0.00  0.00    -0.385 OA
HETATM   31  H   UNK N   1      38.749  13.086   7.032  0.00  0.00     0.210 HD
ENDBRANCH  13  30
BRANCH  15  32
HETATM   32  O   UNK N   1      34.476  17.060  10.024  0.00  0.00    -0.392 OA
HETATM   33  H   UNK N   1      35.080  16.528  10.564  0.00  0.00     0.210 HD
ENDBRANCH  15  32
BRANCH   4  34
HETATM   34  O   UNK N   1      32.688  17.671   5.402  0.00  0.00    -0.382 OA
HETATM   35  H   UNK N   1      32.809  18.633   5.430  0.00  0.00     0.210 HD
ENDBRANCH   4  34
TORSDOF 5
ENDMDL
MODEL 6
REMARK VINA RESULT:      -6.9     15.385     19.433
REMARK  5 active torsions:
REMARK  status: ('A' for Active; 'I' for Inactive)
REMARK    1  A    between atoms: C_4  and  O_20 
REMARK    2  A    between atoms: C_13  and  O_26 
REMARK    3  A    between atoms: C_15  and  O_21 
REMARK    4  A    between atoms: C_17  and  C_27 
REMARK    5  A    between atoms: C_18  and  O_31 
ROOT
HETATM    1  C   UNK N   1      25.850  25.637  -7.533  0.00  0.00     0.266 A 
HETATM    2  O   UNK N   1      25.991  24.305  -7.557  0.00  0.00    -0.310 OA
HETATM    3  C   UNK N   1      26.309  23.761  -6.340  0.00  0.00     0.200 A 
HETATM    4  C   UNK N   1      26.433  25.087  -5.318  0.00  0.00     0.141 A 
HETATM    5  C   UNK N   1      26.097  26.295  -6.218  0.00  0.00     0.122 A 
HETATM    6  C   UNK N   1      28.949  23.782  -5.754  0.00  0.00     0.077 A 
HETATM    7  C   UNK N   1      28.109  25.101  -4.859  0.00  0.00     0.199 A 
HETATM    8  C   UNK N   1      30.538  23.744  -5.010  0.00  0.00     0.068 C 
HETATM    9  C   UNK N   1      30.449  25.142  -4.027  0.00  0.00     0.284 C 
HETATM   10  O   UNK N   1      29.136  25.903  -4.021  0.00  0.00    -0.334 OA
HETATM   11  O   UNK N   1      30.603  24.662  -2.754  0.00  0.00    -0.287 OA
HETATM   12  C   UNK N   1      30.716  23.335  -2.679  0.00  0.00     0.291 C 
HETATM   13  C   UNK N   1      30.855  22.627  -3.970  0.00  0.00     0.232 C 
HETATM   14  O   UNK N   1      25.532  26.261  -8.531  0.00  0.00    -0.265 OA
HETATM   15  C   UNK N   1      27.660  22.787  -6.435  0.00  0.00     0.166 C 
HETATM   16  C   UNK N   1      29.253  24.482  -6.891  0.00  0.00     0.177 A 
HETATM   17  C   UNK N   1      31.506  23.928  -6.183  0.00  0.00     0.042 C 
HETATM   18  C   UNK N   1      30.697  25.015  -6.879  0.00  0.00     0.154 C 
HETATM   19  O   UNK N   1      30.818  22.763  -1.606  0.00  0.00    -0.262 OA
HETATM   20  C   UNK N   1      24.859  27.063  -5.773  0.00  0.00     0.024 C 
HETATM   21  C   UNK N   1      28.164  24.052  -4.452  0.00  0.00     0.298 A 
HETATM   22  O   UNK N   1      28.622  24.838  -5.761  0.00  0.00    -0.310 OA
HETATM   23  O   UNK N   1      27.784  24.087  -3.270  0.00  0.00    -0.262 OA
ENDROOT
BRANCH  17  24
HETATM   24  C   UNK N   1      31.860  22.721  -7.153  0.00  0.00    -0.044 C 
HETATM   25  C   UNK N   1      31.217  21.398  -6.799  0.00  0.00     0.015 C 
HETATM   26  C   UNK N   1      31.539  22.938  -8.624  0.00  0.00     0.015 C 
HETATM   27  C   UNK N   1      33.357  22.500  -7.049  0.00  0.00     0.015 C 
ENDBRANCH  17  24
BRANCH  18  28
HETATM   28  O   UNK N   1      31.163  25.316  -8.162  0.00  0.00    -0.393 OA
HETATM   29  H   UNK N   1      30.647  25.206  -8.976  0.00  0.00     0.210 HD
ENDBRANCH  18  28
BRANCH  13  30
HETATM   30  O   UNK N   1      32.202  22.258  -4.002  0.00  0.00    -0.385 OA
HETATM   31  H   UNK N   1      32.776  22.567  -4.719  0.00  0.00     0.210 HD
ENDBRANCH  13  30
BRANCH  15  32
HETATM   32  O   UNK N   1      27.899  22.268  -7.713  0.00  0.00    -0.392 OA
HETATM   33  H   UNK N   1      27.616  22.734  -8.515  0.00  0.00     0.210 HD
ENDBRANCH  15  32
BRANCH   4  34
HETATM   34  O   UNK N   1      25.555  24.970  -4.229  0.00  0.00    -0.382 OA
HETATM   35  H   UNK N   1      24.621  24.723  -4.313  0.00  0.00     0.210 HD
ENDBRANCH   4  34
TORSDOF 5
ENDMDL
MODEL 7
REMARK VINA RESULT:      -6.9     12.106     14.818
REMARK  5 active torsions:
REMARK  status: ('A' for Active; 'I' for Inactive)
REMARK    1  A    between atoms: C_4  and  O_20 
REMARK    2  A    between atoms: C_13  and  O_26 
REMARK    3  A    between atoms: C_15  and  O_21 
REMARK    4  A    between atoms: C_17  and  C_27 
REMARK    5  A    between atoms: C_18  and  O_31 
ROOT
HETATM    1  C   UNK N   1      21.832  14.450   1.641  0.00  0.00     0.266 A 
HETATM    2  O   UNK N   1      21.711  13.253   2.232  0.00  0.00    -0.310 OA
HETATM    3  C   UNK N   1      20.800  13.232   3.255  0.00  0.00     0.200 A 
HETATM    4  C   UNK N   1      20.249  14.816   3.346  0.00  0.00     0.141 A 
HETATM    5  C   UNK N   1      20.999  15.546   2.212  0.00  0.00     0.122 A 
HETATM    6  C   UNK N   1      21.775  14.038   5.645  0.00  0.00     0.077 A 
HETATM    7  C   UNK N   1      20.797  15.357   4.903  0.00  0.00     0.199 A 
HETATM    8  C   UNK N   1      22.033  14.608   7.286  0.00  0.00     0.068 C 
HETATM    9  C   UNK N   1      21.409  16.196   7.160  0.00  0.00     0.284 C 
HETATM   10  O   UNK N   1      20.806  16.601   5.827  0.00  0.00    -0.334 OA
HETATM   11  O   UNK N   1      20.372  16.215   8.054  0.00  0.00    -0.287 OA
HETATM   12  C   UNK N   1      20.155  15.051   8.667  0.00  0.00     0.291 C 
HETATM   13  C   UNK N   1      21.173  14.002   8.436  0.00  0.00     0.232 C 
HETATM   14  O   UNK N   1      22.577  14.617   0.690  0.00  0.00    -0.265 OA
HETATM   15  C   UNK N   1      21.460  12.612   4.655  0.00  0.00     0.166 C 
HETATM   16  C   UNK N   1      22.988  14.368   5.103  0.00  0.00     0.177 A 
HETATM   17  C   UNK N   1      23.556  14.601   7.449  0.00  0.00     0.042 C 
HETATM   18  C   UNK N   1      23.860  15.183   6.074  0.00  0.00     0.154 C 
HETATM   19  O   UNK N   1      19.238  14.908   9.460  0.00  0.00    -0.262 OA
HETATM   20  C   UNK N   1      20.080  16.121   1.142  0.00  0.00     0.024 C 
HETATM   21  C   UNK N   1      20.322  14.545   5.523  0.00  0.00     0.298 A 
HETATM   22  O   UNK N   1      21.774  14.929   4.992  0.00  0.00    -0.310 OA
HETATM   23  O   UNK N   1      19.150  14.886   5.755  0.00  0.00    -0.262 OA
ENDROOT
BRANCH  17  24
HETATM   24  C   UNK N   1      24.347  13.251   7.725  0.00  0.00    -0.044 C 
HETATM   25  C   UNK N   1      23.485  12.018   7.879  0.00  0.00     0.015 C 
HETATM   26  C   UNK N   1      25.396  12.876   6.688  0.00  0.00     0.015 C 
HETATM   27  C   UNK N   1      25.067  13.428   9.047  0.00  0.00     0.015 C 
ENDBRANCH  17  24
BRANCH  18  28
HETATM   28  O   UNK N   1      25.216  15.135   5.741  0.00  0.00    -0.393 OA
HETATM   29  H   UNK N   1      25.849  15.852   5.902  0.00  0.00     0.210 HD
ENDBRANCH  18  28
BRANCH  13  30
HETATM   30  O   UNK N   1      21.878  13.955   9.641  0.00  0.00    -0.385 OA
HETATM   31  H   UNK N   1      21.896  14.728  10.226  0.00  0.00     0.210 HD
ENDBRANCH  13  30
BRANCH  15  32
HETATM   32  O   UNK N   1      22.554  11.763   4.441  0.00  0.00    -0.392 OA
HETATM   33  H   UNK N   1      22.592  10.872   4.821  0.00  0.00     0.210 HD
ENDBRANCH  15  32
BRANCH   4  34
HETATM   34  O   UNK N   1      18.854  14.876   3.191  0.00  0.00    -0.382 OA
HETATM   35  H   UNK N   1      18.232  14.952   3.931  0.00  0.00     0.210 HD
ENDBRANCH   4  34
TORSDOF 5
ENDMDL
MODEL 8
REMARK VINA RESULT:      -6.8     16.231     19.727
REMARK  5 active torsions:
REMARK  status: ('A' for Active; 'I' for Inactive)
REMARK    1  A    between atoms: C_4  and  O_20 
REMARK    2  A    between atoms: C_13  and  O_26 
REMARK    3  A    between atoms: C_15  and  O_21 
REMARK    4  A    between atoms: C_17  and  C_27 
REMARK    5  A    between atoms: C_18  and  O_31 
ROOT
HETATM    1  C   UNK N   1      25.221  26.557  -5.497  0.00  0.00     0.266 A 
HETATM    2  O   UNK N   1      24.820  25.285  -5.631  0.00  0.00    -0.310 OA
HETATM    3  C   UNK N   1      25.532  24.398  -4.869  0.00  0.00     0.200 A 
HETATM    4  C   UNK N   1      26.684  25.348  -4.102  0.00  0.00     0.141 A 
HETATM    5  C   UNK N   1      26.380  26.781  -4.586  0.00  0.00     0.122 A 
HETATM    6  C   UNK N   1      27.830  23.532  -6.002  0.00  0.00     0.077 A 
HETATM    7  C   UNK N   1      28.191  24.779  -4.753  0.00  0.00     0.199 A 
HETATM    8  C   UNK N   1      29.412  22.870  -6.374  0.00  0.00     0.068 C 
HETATM    9  C   UNK N   1      30.410  23.956  -5.508  0.00  0.00     0.284 C 
HETATM   10  O   UNK N   1      29.718  25.032  -4.690  0.00  0.00    -0.334 OA
HETATM   11  O   UNK N   1      31.056  23.160  -4.600  0.00  0.00    -0.287 OA
HETATM   12  C   UNK N   1      30.690  21.879  -4.639  0.00  0.00     0.291 C 
HETATM   13  C   UNK N   1      29.813  21.492  -5.765  0.00  0.00     0.232 C 
HETATM   14  O   UNK N   1      24.660  27.467  -6.084  0.00  0.00    -0.265 OA
HETATM   15  C   UNK N   1      26.124  23.136  -5.784  0.00  0.00     0.166 C 
HETATM   16  C   UNK N   1      27.682  24.370  -7.074  0.00  0.00     0.177 A 
HETATM   17  C   UNK N   1      29.547  23.050  -7.889  0.00  0.00     0.042 C 
HETATM   18  C   UNK N   1      28.960  24.456  -7.929  0.00  0.00     0.154 C 
HETATM   19  O   UNK N   1      31.152  21.059  -3.859  0.00  0.00    -0.262 OA
HETATM   20  C   UNK N   1      25.992  27.737  -3.465  0.00  0.00     0.024 C 
HETATM   21  C   UNK N   1      28.071  23.691  -4.486  0.00  0.00     0.298 A 
HETATM   22  O   UNK N   1      27.973  24.606  -5.786  0.00  0.00    -0.310 OA
HETATM   23  O   UNK N   1      28.459  23.546  -3.314  0.00  0.00    -0.262 OA
ENDROOT
BRANCH  17  24
HETATM   24  C   UNK N   1      28.824  22.063  -8.903  0.00  0.00    -0.044 C 
HETATM   25  C   UNK N   1      28.059  20.927  -8.261  0.00  0.00     0.015 C 
HETATM   26  C   UNK N   1      27.842  22.709  -9.869  0.00  0.00     0.015 C 
HETATM   27  C   UNK N   1      29.913  21.416  -9.736  0.00  0.00     0.015 C 
ENDBRANCH  17  24
BRANCH  18  28
HETATM   28  O   UNK N   1      28.704  24.912  -9.225  0.00  0.00    -0.393 OA
HETATM   29  H   UNK N   1      29.378  25.016  -9.915  0.00  0.00     0.210 HD
ENDBRANCH  18  28
BRANCH  13  30
HETATM   30  O   UNK N   1      30.661  20.777  -6.615  0.00  0.00    -0.385 OA
HETATM   31  H   UNK N   1      30.456  20.705  -7.559  0.00  0.00     0.210 HD
ENDBRANCH  13  30
BRANCH  15  32
HETATM   32  O   UNK N   1      25.398  22.894  -6.958  0.00  0.00    -0.392 OA
HETATM   33  H   UNK N   1      24.956  22.047  -7.120  0.00  0.00     0.210 HD
ENDBRANCH  15  32
BRANCH   4  34
HETATM   34  O   UNK N   1      26.594  25.225  -2.706  0.00  0.00    -0.382 OA
HETATM   35  H   UNK N   1      27.346  25.345  -2.104  0.00  0.00     0.210 HD
ENDBRANCH   4  34
TORSDOF 5
ENDMDL
MODEL 9
REMARK VINA RESULT:      -6.7      1.888      2.790
REMARK  5 active torsions:
REMARK  status: ('A' for Active; 'I' for Inactive)
REMARK    1  A    between atoms: C_4  and  O_20 
REMARK    2  A    between atoms: C_13  and  O_26 
REMARK    3  A    between atoms: C_15  and  O_21 
REMARK    4  A    between atoms: C_17  and  C_27 
REMARK    5  A    between atoms: C_18  and  O_31 
ROOT
HETATM    1  C   UNK N   1      34.273  10.741   8.574  0.00  0.00     0.266 A 
HETATM    2  O   UNK N   1      35.073  11.162   7.584  0.00  0.00    -0.310 OA
HETATM    3  C   UNK N   1      35.645  12.384   7.819  0.00  0.00     0.200 A 
HETATM    4  C   UNK N   1      35.015  12.854   9.303  0.00  0.00     0.141 A 
HETATM    5  C   UNK N   1      34.113  11.675   9.725  0.00  0.00     0.122 A 
HETATM    6  C   UNK N   1      34.104  14.498   7.138  0.00  0.00     0.077 A 
HETATM    7  C   UNK N   1      34.065  14.258   8.923  0.00  0.00     0.199 A 
HETATM    8  C   UNK N   1      33.343  16.066   6.929  0.00  0.00     0.068 C 
HETATM    9  C   UNK N   1      32.789  16.352   8.523  0.00  0.00     0.284 C 
HETATM   10  O   UNK N   1      33.136  15.313   9.574  0.00  0.00    -0.334 OA
HETATM   11  O   UNK N   1      33.445  17.493   8.901  0.00  0.00    -0.287 OA
HETATM   12  C   UNK N   1      34.294  17.965   7.987  0.00  0.00     0.291 C 
HETATM   13  C   UNK N   1      34.243  17.310   6.662  0.00  0.00     0.232 C 
HETATM   14  O   UNK N   1      33.720   9.655   8.526  0.00  0.00    -0.265 OA
HETATM   15  C   UNK N   1      35.388  13.439   6.554  0.00  0.00     0.166 C 
HETATM   16  C   UNK N   1      33.046  13.693   6.811  0.00  0.00     0.177 A 
HETATM   17  C   UNK N   1      32.187  15.796   5.961  0.00  0.00     0.042 C 
HETATM   18  C   UNK N   1      31.745  14.491   6.610  0.00  0.00     0.154 C 
HETATM   19  O   UNK N   1      34.979  18.953   8.202  0.00  0.00    -0.262 OA
HETATM   20  C   UNK N   1      34.554  10.999  11.016  0.00  0.00     0.024 C 
HETATM   21  C   UNK N   1      34.876  14.860   8.424  0.00  0.00     0.298 A 
HETATM   22  O   UNK N   1      33.602  14.008   7.991  0.00  0.00    -0.310 OA
HETATM   23  O   UNK N   1      35.503  15.458   9.316  0.00  0.00    -0.262 OA
ENDROOT
BRANCH  17  24
HETATM   24  C   UNK N   1      32.442  15.640   4.400  0.00  0.00    -0.044 C 
HETATM   25  C   UNK N   1      33.894  15.673   3.977  0.00  0.00     0.015 C 
HETATM   26  C   UNK N   1      31.868  14.386   3.758  0.00  0.00     0.015 C 
HETATM   27  C   UNK N   1      31.783  16.829   3.728  0.00  0.00     0.015 C 
ENDBRANCH  17  24
BRANCH  18  28
HETATM   28  O   UNK N   1      30.801  13.789   5.855  0.00  0.00    -0.393 OA
HETATM   29  H   UNK N   1      30.814  13.717   4.888  0.00  0.00     0.210 HD
ENDBRANCH  18  28
BRANCH  13  30
HETATM   30  O   UNK N   1      33.601  18.250   5.853  0.00  0.00    -0.385 OA
HETATM   31  H   UNK N   1      33.762  18.260   4.896  0.00  0.00     0.210 HD
ENDBRANCH  13  30
BRANCH  15  32
HETATM   32  O   UNK N   1      35.148  12.807   5.326  0.00  0.00    -0.392 OA
HETATM   33  H   UNK N   1      34.565  12.037   5.253  0.00  0.00     0.210 HD
ENDBRANCH  15  32
BRANCH   4  34
HETATM   34  O   UNK N   1      36.038  13.104  10.232  0.00  0.00    -0.382 OA
HETATM   35  H   UNK N   1      36.174  13.960  10.667  0.00  0.00     0.210 HD
ENDBRANCH   4  34
TORSDOF 5
ENDMDL
