MODEL 1
REMARK VINA RESULT:      -6.8      0.000      0.000
REMARK  10 active torsions:
REMARK  status: ('A' for Active; 'I' for Inactive)
REMARK    1  A    between atoms: C_1  and  C_2 
REMARK    2  A    between atoms: C_5  and  C_7 
REMARK    3  A    between atoms: C_8  and  C_10 
REMARK    4  A    between atoms: C_11  and  C_12 
REMARK    5  A    between atoms: C_13  and  C_15 
REMARK    6  A    between atoms: C_16  and  C_17 
REMARK    7  A    between atoms: C_18  and  C_19 
REMARK    8  A    between atoms: C_21  and  C_22 
REMARK    9  A    between atoms: C_23  and  C_24 
REMARK   10  A    between atoms: C_26  and  C_27 
ROOT
HETATM    1  C   UNK N   1      30.424  22.224  -3.763  0.00  0.00     0.001 C 
HETATM    2  C   UNK N   1      30.947  23.436  -3.528  0.00  0.00     0.001 C 
ENDROOT
BRANCH   1   3
HETATM    3  C   UNK N   1      30.158  21.524  -5.040  0.00  0.00     0.007 C 
HETATM    4  C   UNK N   1      30.914  20.551  -5.562  0.00  0.00    -0.062 C 
HETATM    5  C   UNK N   1      32.170  20.095  -4.877  0.00  0.00     0.048 C 
BRANCH   4   6
HETATM    6  C   UNK N   1      30.327  19.780  -6.688  0.00  0.00     0.007 C 
HETATM    7  C   UNK N   1      30.678  19.956  -7.976  0.00  0.00     0.001 C 
BRANCH   7   8
HETATM    8  C   UNK N   1      31.687  20.957  -8.375  0.00  0.00     0.007 C 
HETATM    9  C   UNK N   1      31.472  22.234  -8.728  0.00  0.00    -0.062 C 
HETATM   10  C   UNK N   1      32.663  23.054  -9.077  0.00  0.00     0.048 C 
BRANCH   9  11
HETATM   11  C   UNK N   1      30.149  22.888  -8.848  0.00  0.00     0.007 C 
HETATM   12  C   UNK N   1      29.513  23.563  -7.887  0.00  0.00     0.009 C 
BRANCH  12  13
HETATM   13  C   UNK N   1      28.172  24.189  -8.116  0.00  0.00    -0.048 C 
HETATM   14  C   UNK N   1      27.055  23.439  -7.909  0.00  0.00    -0.077 C 
HETATM   15  C   UNK N   1      25.669  23.979  -8.169  0.00  0.00     0.034 C 
HETATM   16  C   UNK N   1      27.151  22.022  -7.437  0.00  0.00     0.044 C 
HETATM   17  C   UNK N   1      25.678  25.121  -9.170  0.00  0.00     0.005 C 
HETATM   18  C   UNK N   1      26.632  26.173  -8.652  0.00  0.00     0.014 C 
HETATM   19  C   UNK N   1      28.067  25.647  -8.605  0.00  0.00    -0.020 C 
HETATM   20  C   UNK N   1      28.820  26.576  -7.668  0.00  0.00     0.020 C 
HETATM   21  C   UNK N   1      28.670  25.767  -9.997  0.00  0.00     0.020 C 
ENDBRANCH  12  13
ENDBRANCH   9  11
ENDBRANCH   7   8
ENDBRANCH   4   6
ENDBRANCH   1   3
BRANCH   2  22
HETATM   22  C   UNK N   1      31.201  24.568  -4.449  0.00  0.00     0.007 C 
HETATM   23  C   UNK N   1      32.286  24.716  -5.219  0.00  0.00    -0.062 C 
HETATM   24  C   UNK N   1      33.404  23.715  -5.186  0.00  0.00     0.048 C 
BRANCH  23  25
HETATM   25  C   UNK N   1      32.212  25.748  -6.284  0.00  0.00     0.007 C 
HETATM   26  C   UNK N   1      32.174  27.071  -6.030  0.00  0.00     0.001 C 
BRANCH  26  27
HETATM   27  C   UNK N   1      32.195  27.591  -4.648  0.00  0.00     0.007 C 
HETATM   28  C   UNK N   1      31.141  27.881  -3.871  0.00  0.00    -0.062 C 
HETATM   29  C   UNK N   1      31.424  28.383  -2.499  0.00  0.00     0.048 C 
BRANCH  28  30
HETATM   30  C   UNK N   1      29.717  27.794  -4.271  0.00  0.00     0.007 C 
HETATM   31  C   UNK N   1      28.822  26.916  -3.811  0.00  0.00     0.009 C 
BRANCH  31  32
HETATM   32  C   UNK N   1      27.402  26.918  -4.286  0.00  0.00    -0.048 C 
HETATM   33  C   UNK N   1      26.807  25.729  -4.582  0.00  0.00    -0.077 C 
HETATM   34  C   UNK N   1      25.399  25.650  -5.116  0.00  0.00     0.034 C 
HETATM   35  C   UNK N   1      27.543  24.436  -4.417  0.00  0.00     0.044 C 
HETATM   36  C   UNK N   1      24.973  26.936  -5.802  0.00  0.00     0.005 C 
HETATM   37  C   UNK N   1      25.163  28.065  -4.813  0.00  0.00     0.014 C 
HETATM   38  C   UNK N   1      26.641  28.247  -4.460  0.00  0.00    -0.020 C 
HETATM   39  C   UNK N   1      27.298  29.076  -5.554  0.00  0.00     0.020 C 
HETATM   40  C   UNK N   1      26.663  29.044  -3.167  0.00  0.00     0.020 C 
ENDBRANCH  31  32
ENDBRANCH  28  30
ENDBRANCH  26  27
ENDBRANCH  23  25
ENDBRANCH   2  22
TORSDOF 10
ENDMDL
MODEL 2
REMARK VINA RESULT:      -6.7     13.200     16.831
REMARK  10 active torsions:
REMARK  status: ('A' for Active; 'I' for Inactive)
REMARK    1  A    between atoms: C_1  and  C_2 
REMARK    2  A    between atoms: C_5  and  C_7 
REMARK    3  A    between atoms: C_8  and  C_10 
REMARK    4  A    between atoms: C_11  and  C_12 
REMARK    5  A    between atoms: C_13  and  C_15 
REMARK    6  A    between atoms: C_16  and  C_17 
REMARK    7  A    between atoms: C_18  and  C_19 
REMARK    8  A    between atoms: C_21  and  C_22 
REMARK    9  A    between atoms: C_23  and  C_24 
REMARK   10  A    between atoms: C_26  and  C_27 
ROOT
HETATM    1  C   UNK N   1      22.152  18.660   5.178  0.00  0.00     0.001 C 
HETATM    2  C   UNK N   1      21.045  17.908   5.109  0.00  0.00     0.001 C 
ENDROOT
BRANCH   1   3
HETATM    3  C   UNK N   1      23.423  18.569   4.424  0.00  0.00     0.007 C 
HETATM    4  C   UNK N   1      23.796  19.387   3.433  0.00  0.00    -0.062 C 
HETATM    5  C   UNK N   1      22.896  20.494   2.963  0.00  0.00     0.048 C 
BRANCH   4   6
HETATM    6  C   UNK N   1      25.217  19.317   3.007  0.00  0.00     0.007 C 
HETATM    7  C   UNK N   1      26.236  19.832   3.720  0.00  0.00     0.001 C 
BRANCH   7   8
HETATM    8  C   UNK N   1      26.012  20.527   5.003  0.00  0.00     0.007 C 
HETATM    9  C   UNK N   1      26.755  20.440   6.117  0.00  0.00    -0.062 C 
HETATM   10  C   UNK N   1      26.329  21.257   7.286  0.00  0.00     0.048 C 
BRANCH   9  11
HETATM   11  C   UNK N   1      27.937  19.567   6.304  0.00  0.00     0.007 C 
HETATM   12  C   UNK N   1      28.015  18.512   7.120  0.00  0.00     0.009 C 
BRANCH  12  13
HETATM   13  C   UNK N   1      29.265  17.693   7.234  0.00  0.00    -0.048 C 
HETATM   14  C   UNK N   1      30.036  17.827   8.347  0.00  0.00    -0.077 C 
HETATM   15  C   UNK N   1      31.336  17.078   8.514  0.00  0.00     0.034 C 
HETATM   16  C   UNK N   1      29.642  18.752   9.455  0.00  0.00     0.044 C 
HETATM   17  C   UNK N   1      31.940  16.674   7.180  0.00  0.00     0.005 C 
HETATM   18  C   UNK N   1      30.895  15.880   6.430  0.00  0.00     0.014 C 
HETATM   19  C   UNK N   1      29.677  16.741   6.094  0.00  0.00    -0.020 C 
HETATM   20  C   UNK N   1      28.553  15.768   5.784  0.00  0.00     0.020 C 
HETATM   21  C   UNK N   1      29.986  17.545   4.839  0.00  0.00     0.020 C 
ENDBRANCH  12  13
ENDBRANCH   9  11
ENDBRANCH   7   8
ENDBRANCH   4   6
ENDBRANCH   1   3
BRANCH   2  22
HETATM   22  C   UNK N   1      20.808  16.604   4.449  0.00  0.00     0.007 C 
HETATM   23  C   UNK N   1      20.658  16.414   3.133  0.00  0.00    -0.062 C 
HETATM   24  C   UNK N   1      20.685  17.569   2.174  0.00  0.00     0.048 C 
BRANCH  23  25
HETATM   25  C   UNK N   1      20.734  15.013   2.647  0.00  0.00     0.007 C 
HETATM   26  C   UNK N   1      21.898  14.365   2.443  0.00  0.00     0.001 C 
BRANCH  26  27
HETATM   27  C   UNK N   1      23.198  15.020   2.686  0.00  0.00     0.007 C 
HETATM   28  C   UNK N   1      23.907  15.025   3.825  0.00  0.00    -0.062 C 
HETATM   29  C   UNK N   1      25.206  15.751   3.815  0.00  0.00     0.048 C 
BRANCH  28  30
HETATM   30  C   UNK N   1      23.492  14.413   5.108  0.00  0.00     0.007 C 
HETATM   31  C   UNK N   1      23.394  15.038   6.284  0.00  0.00     0.009 C 
BRANCH  31  32
HETATM   32  C   UNK N   1      22.962  14.320   7.525  0.00  0.00    -0.048 C 
HETATM   33  C   UNK N   1      23.888  13.614   8.231  0.00  0.00    -0.077 C 
HETATM   34  C   UNK N   1      23.522  12.821   9.461  0.00  0.00     0.034 C 
HETATM   35  C   UNK N   1      25.320  13.570   7.797  0.00  0.00     0.044 C 
HETATM   36  C   UNK N   1      22.054  12.429   9.474  0.00  0.00     0.005 C 
HETATM   37  C   UNK N   1      21.243  13.698   9.331  0.00  0.00     0.014 C 
HETATM   38  C   UNK N   1      21.488  14.360   7.974  0.00  0.00    -0.020 C 
HETATM   39  C   UNK N   1      20.615  13.669   6.937  0.00  0.00     0.020 C 
HETATM   40  C   UNK N   1      21.018  15.797   8.124  0.00  0.00     0.020 C 
ENDBRANCH  31  32
ENDBRANCH  28  30
ENDBRANCH  26  27
ENDBRANCH  23  25
ENDBRANCH   2  22
TORSDOF 10
ENDMDL
MODEL 3
REMARK VINA RESULT:      -6.6     12.818     15.918
REMARK  10 active torsions:
REMARK  status: ('A' for Active; 'I' for Inactive)
REMARK    1  A    between atoms: C_1  and  C_2 
REMARK    2  A    between atoms: C_5  and  C_7 
REMARK    3  A    between atoms: C_8  and  C_10 
REMARK    4  A    between atoms: C_11  and  C_12 
REMARK    5  A    between atoms: C_13  and  C_15 
REMARK    6  A    between atoms: C_16  and  C_17 
REMARK    7  A    between atoms: C_18  and  C_19 
REMARK    8  A    between atoms: C_21  and  C_22 
REMARK    9  A    between atoms: C_23  and  C_24 
REMARK   10  A    between atoms: C_26  and  C_27 
ROOT
HETATM    1  C   UNK N   1      21.230  17.419   6.499  0.00  0.00     0.001 C 
HETATM    2  C   UNK N   1      22.115  18.284   5.983  0.00  0.00     0.001 C 
ENDROOT
BRANCH   1   3
HETATM    3  C   UNK N   1      21.258  15.940   6.561  0.00  0.00     0.007 C 
HETATM    4  C   UNK N   1      20.938  15.203   7.631  0.00  0.00    -0.062 C 
HETATM    5  C   UNK N   1      20.539  15.852   8.926  0.00  0.00     0.048 C 
BRANCH   4   6
HETATM    6  C   UNK N   1      20.745  13.748   7.408  0.00  0.00     0.007 C 
HETATM    7  C   UNK N   1      21.738  12.842   7.488  0.00  0.00     0.001 C 
BRANCH   7   8
HETATM    8  C   UNK N   1      23.125  13.238   7.803  0.00  0.00     0.007 C 
HETATM    9  C   UNK N   1      24.079  13.615   6.937  0.00  0.00    -0.062 C 
HETATM   10  C   UNK N   1      25.405  13.984   7.504  0.00  0.00     0.048 C 
BRANCH   9  11
HETATM   11  C   UNK N   1      23.947  13.651   5.463  0.00  0.00     0.007 C 
HETATM   12  C   UNK N   1      24.193  14.702   4.675  0.00  0.00     0.009 C 
BRANCH  12  13
HETATM   13  C   UNK N   1      24.026  14.630   3.188  0.00  0.00    -0.048 C 
HETATM   14  C   UNK N   1      22.777  14.756   2.662  0.00  0.00    -0.077 C 
HETATM   15  C   UNK N   1      22.519  14.641   1.179  0.00  0.00     0.034 C 
HETATM   16  C   UNK N   1      21.588  14.987   3.540  0.00  0.00     0.044 C 
HETATM   17  C   UNK N   1      23.597  13.839   0.470  0.00  0.00     0.005 C 
HETATM   18  C   UNK N   1      24.927  14.484   0.788  0.00  0.00     0.014 C 
HETATM   19  C   UNK N   1      25.248  14.389   2.280  0.00  0.00    -0.020 C 
HETATM   20  C   UNK N   1      26.318  15.434   2.542  0.00  0.00     0.020 C 
HETATM   21  C   UNK N   1      25.833  13.011   2.560  0.00  0.00     0.020 C 
ENDBRANCH  12  13
ENDBRANCH   9  11
ENDBRANCH   7   8
ENDBRANCH   4   6
ENDBRANCH   1   3
BRANCH   2  22
HETATM   22  C   UNK N   1      23.278  18.054   5.095  0.00  0.00     0.007 C 
HETATM   23  C   UNK N   1      23.504  18.677   3.932  0.00  0.00    -0.062 C 
HETATM   24  C   UNK N   1      22.533  19.685   3.390  0.00  0.00     0.048 C 
BRANCH  23  25
HETATM   25  C   UNK N   1      24.861  18.531   3.350  0.00  0.00     0.007 C 
HETATM   26  C   UNK N   1      25.933  19.218   3.792  0.00  0.00     0.001 C 
BRANCH  26  27
HETATM   27  C   UNK N   1      25.824  20.185   4.902  0.00  0.00     0.007 C 
HETATM   28  C   UNK N   1      26.655  20.325   5.946  0.00  0.00    -0.062 C 
HETATM   29  C   UNK N   1      26.334  21.391   6.933  0.00  0.00     0.048 C 
BRANCH  28  30
HETATM   30  C   UNK N   1      27.839  19.482   6.231  0.00  0.00     0.007 C 
HETATM   31  C   UNK N   1      27.828  18.281   6.816  0.00  0.00     0.009 C 
BRANCH  31  32
HETATM   32  C   UNK N   1      29.090  17.511   7.057  0.00  0.00    -0.048 C 
HETATM   33  C   UNK N   1      29.749  17.683   8.237  0.00  0.00    -0.077 C 
HETATM   34  C   UNK N   1      31.052  16.985   8.534  0.00  0.00     0.034 C 
HETATM   35  C   UNK N   1      29.217  18.604   9.290  0.00  0.00     0.044 C 
HETATM   36  C   UNK N   1      31.793  16.592   7.267  0.00  0.00     0.005 C 
HETATM   37  C   UNK N   1      30.853  15.750   6.433  0.00  0.00     0.014 C 
HETATM   38  C   UNK N   1      29.642  16.564   5.974  0.00  0.00    -0.020 C 
HETATM   39  C   UNK N   1      30.039  17.365   4.743  0.00  0.00     0.020 C 
HETATM   40  C   UNK N   1      28.587  15.546   5.572  0.00  0.00     0.020 C 
ENDBRANCH  31  32
ENDBRANCH  28  30
ENDBRANCH  26  27
ENDBRANCH  23  25
ENDBRANCH   2  22
TORSDOF 10
ENDMDL
MODEL 4
REMARK VINA RESULT:      -6.6      1.758      5.472
REMARK  10 active torsions:
REMARK  status: ('A' for Active; 'I' for Inactive)
REMARK    1  A    between atoms: C_1  and  C_2 
REMARK    2  A    between atoms: C_5  and  C_7 
REMARK    3  A    between atoms: C_8  and  C_10 
REMARK    4  A    between atoms: C_11  and  C_12 
REMARK    5  A    between atoms: C_13  and  C_15 
REMARK    6  A    between atoms: C_16  and  C_17 
REMARK    7  A    between atoms: C_18  and  C_19 
REMARK    8  A    between atoms: C_21  and  C_22 
REMARK    9  A    between atoms: C_23  and  C_24 
REMARK   10  A    between atoms: C_26  and  C_27 
ROOT
HETATM    1  C   UNK N   1      31.108  26.005  -3.440  0.00  0.00     0.001 C 
HETATM    2  C   UNK N   1      30.772  27.300  -3.529  0.00  0.00     0.001 C 
ENDROOT
BRANCH   1   3
HETATM    3  C   UNK N   1      30.265  24.789  -3.488  0.00  0.00     0.007 C 
HETATM    4  C   UNK N   1      30.367  23.812  -4.395  0.00  0.00    -0.062 C 
HETATM    5  C   UNK N   1      31.370  23.892  -5.510  0.00  0.00     0.048 C 
BRANCH   4   6
HETATM    6  C   UNK N   1      29.640  22.550  -4.104  0.00  0.00     0.007 C 
HETATM    7  C   UNK N   1      30.231  21.446  -3.606  0.00  0.00     0.001 C 
BRANCH   7   8
HETATM    8  C   UNK N   1      31.677  21.405  -3.315  0.00  0.00     0.007 C 
HETATM    9  C   UNK N   1      32.638  20.821  -4.048  0.00  0.00    -0.062 C 
HETATM   10  C   UNK N   1      34.036  20.930  -3.549  0.00  0.00     0.048 C 
BRANCH   9  11
HETATM   11  C   UNK N   1      32.427  20.036  -5.286  0.00  0.00     0.007 C 
HETATM   12  C   UNK N   1      32.275  20.532  -6.517  0.00  0.00     0.009 C 
BRANCH  12  13
HETATM   13  C   UNK N   1      32.067  19.643  -7.705  0.00  0.00    -0.048 C 
HETATM   14  C   UNK N   1      30.797  19.296  -8.049  0.00  0.00    -0.077 C 
HETATM   15  C   UNK N   1      30.507  18.362  -9.199  0.00  0.00     0.034 C 
HETATM   16  C   UNK N   1      29.620  19.804  -7.277  0.00  0.00     0.044 C 
HETATM   17  C   UNK N   1      31.685  17.457  -9.514  0.00  0.00     0.005 C 
HETATM   18  C   UNK N   1      32.885  18.342  -9.763  0.00  0.00     0.014 C 
HETATM   19  C   UNK N   1      33.276  19.115  -8.502  0.00  0.00    -0.020 C 
HETATM   20  C   UNK N   1      34.146  20.267  -8.974  0.00  0.00     0.020 C 
HETATM   21  C   UNK N   1      34.115  18.202  -7.618  0.00  0.00     0.020 C 
ENDBRANCH  12  13
ENDBRANCH   9  11
ENDBRANCH   7   8
ENDBRANCH   4   6
ENDBRANCH   1   3
BRANCH   2  22
HETATM   22  C   UNK N   1      29.446  27.956  -3.456  0.00  0.00     0.007 C 
HETATM   23  C   UNK N   1      29.231  29.277  -3.436  0.00  0.00    -0.062 C 
HETATM   24  C   UNK N   1      30.374  30.249  -3.454  0.00  0.00     0.048 C 
BRANCH  23  25
HETATM   25  C   UNK N   1      27.837  29.729  -3.667  0.00  0.00     0.007 C 
HETATM   26  C   UNK N   1      27.368  30.092  -4.878  0.00  0.00     0.001 C 
BRANCH  26  27
HETATM   27  C   UNK N   1      28.231  30.069  -6.076  0.00  0.00     0.007 C 
HETATM   28  C   UNK N   1      28.381  29.064  -6.952  0.00  0.00    -0.062 C 
HETATM   29  C   UNK N   1      29.306  29.291  -8.095  0.00  0.00     0.048 C 
BRANCH  28  30
HETATM   30  C   UNK N   1      27.746  27.730  -6.859  0.00  0.00     0.007 C 
HETATM   31  C   UNK N   1      28.289  26.635  -6.320  0.00  0.00     0.009 C 
BRANCH  31  32
HETATM   32  C   UNK N   1      27.554  25.331  -6.278  0.00  0.00    -0.048 C 
HETATM   33  C   UNK N   1      27.931  24.336  -7.129  0.00  0.00    -0.077 C 
HETATM   34  C   UNK N   1      27.208  23.014  -7.185  0.00  0.00     0.034 C 
HETATM   35  C   UNK N   1      29.073  24.526  -8.078  0.00  0.00     0.044 C 
HETATM   36  C   UNK N   1      25.779  23.121  -6.681  0.00  0.00     0.005 C 
HETATM   37  C   UNK N   1      25.830  23.703  -5.287  0.00  0.00     0.014 C 
HETATM   38  C   UNK N   1      26.375  25.133  -5.304  0.00  0.00    -0.020 C 
HETATM   39  C   UNK N   1      25.240  26.077  -5.672  0.00  0.00     0.020 C 
HETATM   40  C   UNK N   1      26.810  25.428  -3.878  0.00  0.00     0.020 C 
ENDBRANCH  31  32
ENDBRANCH  28  30
ENDBRANCH  26  27
ENDBRANCH  23  25
ENDBRANCH   2  22
TORSDOF 10
ENDMDL
MODEL 5
REMARK VINA RESULT:      -6.6      1.761      7.642
REMARK  10 active torsions:
REMARK  status: ('A' for Active; 'I' for Inactive)
REMARK    1  A    between atoms: C_1  and  C_2 
REMARK    2  A    between atoms: C_5  and  C_7 
REMARK    3  A    between atoms: C_8  and  C_10 
REMARK    4  A    between atoms: C_11  and  C_12 
REMARK    5  A    between atoms: C_13  and  C_15 
REMARK    6  A    between atoms: C_16  and  C_17 
REMARK    7  A    between atoms: C_18  and  C_19 
REMARK    8  A    between atoms: C_21  and  C_22 
REMARK    9  A    between atoms: C_23  and  C_24 
REMARK   10  A    between atoms: C_26  and  C_27 
ROOT
HETATM    1  C   UNK N   1      30.743  27.310  -3.480  0.00  0.00     0.001 C 
HETATM    2  C   UNK N   1      31.079  26.014  -3.408  0.00  0.00     0.001 C 
ENDROOT
BRANCH   1   3
HETATM    3  C   UNK N   1      29.415  27.961  -3.422  0.00  0.00     0.007 C 
HETATM    4  C   UNK N   1      29.201  29.281  -3.370  0.00  0.00    -0.062 C 
HETATM    5  C   UNK N   1      30.349  30.250  -3.329  0.00  0.00     0.048 C 
BRANCH   4   6
HETATM    6  C   UNK N   1      27.812  29.744  -3.615  0.00  0.00     0.007 C 
HETATM    7  C   UNK N   1      27.349  30.109  -4.826  0.00  0.00     0.001 C 
BRANCH   7   8
HETATM    8  C   UNK N   1      28.210  30.082  -6.025  0.00  0.00     0.007 C 
HETATM    9  C   UNK N   1      28.358  29.074  -6.898  0.00  0.00    -0.062 C 
HETATM   10  C   UNK N   1      29.280  29.296  -8.045  0.00  0.00     0.048 C 
BRANCH   9  11
HETATM   11  C   UNK N   1      27.721  27.740  -6.798  0.00  0.00     0.007 C 
HETATM   12  C   UNK N   1      28.290  26.630  -6.319  0.00  0.00     0.009 C 
BRANCH  12  13
HETATM   13  C   UNK N   1      27.552  25.327  -6.264  0.00  0.00    -0.048 C 
HETATM   14  C   UNK N   1      27.937  24.320  -7.095  0.00  0.00    -0.077 C 
HETATM   15  C   UNK N   1      27.213  22.997  -7.138  0.00  0.00     0.034 C 
HETATM   16  C   UNK N   1      29.089  24.491  -8.035  0.00  0.00     0.044 C 
HETATM   17  C   UNK N   1      25.778  23.113  -6.651  0.00  0.00     0.005 C 
HETATM   18  C   UNK N   1      25.816  23.719  -5.267  0.00  0.00     0.014 C 
HETATM   19  C   UNK N   1      26.363  25.147  -5.300  0.00  0.00    -0.020 C 
HETATM   20  C   UNK N   1      26.782  25.464  -3.875  0.00  0.00     0.020 C 
HETATM   21  C   UNK N   1      25.233  26.087  -5.696  0.00  0.00     0.020 C 
ENDBRANCH  12  13
ENDBRANCH   9  11
ENDBRANCH   7   8
ENDBRANCH   4   6
ENDBRANCH   1   3
BRANCH   2  22
HETATM   22  C   UNK N   1      30.240  24.797  -3.497  0.00  0.00     0.007 C 
HETATM   23  C   UNK N   1      30.386  23.814  -4.394  0.00  0.00    -0.062 C 
HETATM   24  C   UNK N   1      31.444  23.884  -5.456  0.00  0.00     0.048 C 
BRANCH  23  25
HETATM   25  C   UNK N   1      29.650  22.553  -4.128  0.00  0.00     0.007 C 
HETATM   26  C   UNK N   1      30.237  21.444  -3.637  0.00  0.00     0.001 C 
BRANCH  26  27
HETATM   27  C   UNK N   1      31.681  21.407  -3.333  0.00  0.00     0.007 C 
HETATM   28  C   UNK N   1      32.651  20.825  -4.054  0.00  0.00    -0.062 C 
HETATM   29  C   UNK N   1      34.043  20.939  -3.541  0.00  0.00     0.048 C 
BRANCH  28  30
HETATM   30  C   UNK N   1      32.457  20.035  -5.292  0.00  0.00     0.007 C 
HETATM   31  C   UNK N   1      32.250  20.527  -6.516  0.00  0.00     0.009 C 
BRANCH  31  32
HETATM   32  C   UNK N   1      32.066  19.633  -7.703  0.00  0.00    -0.048 C 
HETATM   33  C   UNK N   1      30.803  19.262  -8.057  0.00  0.00    -0.077 C 
HETATM   34  C   UNK N   1      30.538  18.323  -9.206  0.00  0.00     0.034 C 
HETATM   35  C   UNK N   1      29.613  19.752  -7.293  0.00  0.00     0.044 C 
HETATM   36  C   UNK N   1      31.734  17.437  -9.510  0.00  0.00     0.005 C 
HETATM   37  C   UNK N   1      32.921  18.343  -9.754  0.00  0.00     0.014 C 
HETATM   38  C   UNK N   1      33.289  19.124  -8.491  0.00  0.00    -0.020 C 
HETATM   39  C   UNK N   1      34.137  18.228  -7.600  0.00  0.00     0.020 C 
HETATM   40  C   UNK N   1      34.142  20.291  -8.960  0.00  0.00     0.020 C 
ENDBRANCH  31  32
ENDBRANCH  28  30
ENDBRANCH  26  27
ENDBRANCH  23  25
ENDBRANCH   2  22
TORSDOF 10
ENDMDL
MODEL 6
REMARK VINA RESULT:      -6.5      1.703      5.963
REMARK  10 active torsions:
REMARK  status: ('A' for Active; 'I' for Inactive)
REMARK    1  A    between atoms: C_1  and  C_2 
REMARK    2  A    between atoms: C_5  and  C_7 
REMARK    3  A    between atoms: C_8  and  C_10 
REMARK    4  A    between atoms: C_11  and  C_12 
REMARK    5  A    between atoms: C_13  and  C_15 
REMARK    6  A    between atoms: C_16  and  C_17 
REMARK    7  A    between atoms: C_18  and  C_19 
REMARK    8  A    between atoms: C_21  and  C_22 
REMARK    9  A    between atoms: C_23  and  C_24 
REMARK   10  A    between atoms: C_26  and  C_27 
ROOT
HETATM    1  C   UNK N   1      31.819  28.352  -3.644  0.00  0.00     0.001 C 
HETATM    2  C   UNK N   1      30.917  28.695  -2.714  0.00  0.00     0.001 C 
ENDROOT
BRANCH   1   3
HETATM    3  C   UNK N   1      31.652  28.085  -5.091  0.00  0.00     0.007 C 
HETATM    4  C   UNK N   1      32.163  28.828  -6.080  0.00  0.00    -0.062 C 
HETATM    5  C   UNK N   1      32.955  30.069  -5.785  0.00  0.00     0.048 C 
BRANCH   4   6
HETATM    6  C   UNK N   1      32.135  28.238  -7.442  0.00  0.00     0.007 C 
HETATM    7  C   UNK N   1      33.071  27.389  -7.907  0.00  0.00     0.001 C 
BRANCH   7   8
HETATM    8  C   UNK N   1      34.224  26.978  -7.082  0.00  0.00     0.007 C 
HETATM    9  C   UNK N   1      34.311  25.903  -6.283  0.00  0.00    -0.062 C 
HETATM   10  C   UNK N   1      35.595  25.695  -5.560  0.00  0.00     0.048 C 
BRANCH   9  11
HETATM   11  C   UNK N   1      33.227  24.929  -6.019  0.00  0.00     0.007 C 
HETATM   12  C   UNK N   1      33.049  24.235  -4.892  0.00  0.00     0.009 C 
BRANCH  12  13
HETATM   13  C   UNK N   1      31.914  23.271  -4.730  0.00  0.00    -0.048 C 
HETATM   14  C   UNK N   1      30.821  23.659  -4.018  0.00  0.00    -0.077 C 
HETATM   15  C   UNK N   1      29.660  22.729  -3.764  0.00  0.00     0.034 C 
HETATM   16  C   UNK N   1      30.733  25.030  -3.423  0.00  0.00     0.044 C 
HETATM   17  C   UNK N   1      30.066  21.268  -3.851  0.00  0.00     0.005 C 
HETATM   18  C   UNK N   1      30.707  21.054  -5.203  0.00  0.00     0.014 C 
HETATM   19  C   UNK N   1      32.001  21.857  -5.338  0.00  0.00    -0.020 C 
HETATM   20  C   UNK N   1      32.287  21.937  -6.827  0.00  0.00     0.020 C 
HETATM   21  C   UNK N   1      33.124  21.078  -4.667  0.00  0.00     0.020 C 
ENDBRANCH  12  13
ENDBRANCH   9  11
ENDBRANCH   7   8
ENDBRANCH   4   6
ENDBRANCH   1   3
BRANCH   2  22
HETATM   22  C   UNK N   1      29.437  28.683  -2.759  0.00  0.00     0.007 C 
HETATM   23  C   UNK N   1      28.641  29.730  -2.513  0.00  0.00    -0.062 C 
HETATM   24  C   UNK N   1      29.212  31.062  -2.120  0.00  0.00     0.048 C 
BRANCH  23  25
HETATM   25  C   UNK N   1      27.216  29.593  -2.904  0.00  0.00     0.007 C 
HETATM   26  C   UNK N   1      26.776  29.769  -4.166  0.00  0.00     0.001 C 
BRANCH  26  27
HETATM   27  C   UNK N   1      27.700  30.124  -5.262  0.00  0.00     0.007 C 
HETATM   28  C   UNK N   1      28.129  29.331  -6.255  0.00  0.00    -0.062 C 
HETATM   29  C   UNK N   1      29.054  29.930  -7.254  0.00  0.00     0.048 C 
BRANCH  28  30
HETATM   30  C   UNK N   1      27.804  27.895  -6.420  0.00  0.00     0.007 C 
HETATM   31  C   UNK N   1      28.371  26.878  -5.766  0.00  0.00     0.009 C 
BRANCH  31  32
HETATM   32  C   UNK N   1      27.963  25.458  -6.012  0.00  0.00    -0.048 C 
HETATM   33  C   UNK N   1      28.736  24.684  -6.824  0.00  0.00    -0.077 C 
HETATM   34  C   UNK N   1      28.365  23.262  -7.163  0.00  0.00     0.034 C 
HETATM   35  C   UNK N   1      29.984  25.227  -7.447  0.00  0.00     0.044 C 
HETATM   36  C   UNK N   1      26.874  23.008  -7.017  0.00  0.00     0.005 C 
HETATM   37  C   UNK N   1      26.483  23.397  -5.609  0.00  0.00     0.014 C 
HETATM   38  C   UNK N   1      26.676  24.897  -5.375  0.00  0.00    -0.020 C 
HETATM   39  C   UNK N   1      25.465  25.631  -5.930  0.00  0.00     0.020 C 
HETATM   40  C   UNK N   1      26.707  25.080  -3.867  0.00  0.00     0.020 C 
ENDBRANCH  31  32
ENDBRANCH  28  30
ENDBRANCH  26  27
ENDBRANCH  23  25
ENDBRANCH   2  22
TORSDOF 10
ENDMDL
MODEL 7
REMARK VINA RESULT:      -6.5      1.688      5.994
REMARK  10 active torsions:
REMARK  status: ('A' for Active; 'I' for Inactive)
REMARK    1  A    between atoms: C_1  and  C_2 
REMARK    2  A    between atoms: C_5  and  C_7 
REMARK    3  A    between atoms: C_8  and  C_10 
REMARK    4  A    between atoms: C_11  and  C_12 
REMARK    5  A    between atoms: C_13  and  C_15 
REMARK    6  A    between atoms: C_16  and  C_17 
REMARK    7  A    between atoms: C_18  and  C_19 
REMARK    8  A    between atoms: C_21  and  C_22 
REMARK    9  A    between atoms: C_23  and  C_24 
REMARK   10  A    between atoms: C_26  and  C_27 
ROOT
HETATM    1  C   UNK N   1      31.046  25.269  -6.426  0.00  0.00     0.001 C 
HETATM    2  C   UNK N   1      30.389  26.286  -7.002  0.00  0.00     0.001 C 
ENDROOT
BRANCH   1   3
HETATM    3  C   UNK N   1      30.534  24.060  -5.743  0.00  0.00     0.007 C 
HETATM    4  C   UNK N   1      30.331  23.943  -4.425  0.00  0.00    -0.062 C 
HETATM    5  C   UNK N   1      30.655  25.071  -3.489  0.00  0.00     0.048 C 
BRANCH   4   6
HETATM    6  C   UNK N   1      29.543  22.769  -3.972  0.00  0.00     0.007 C 
HETATM    7  C   UNK N   1      30.091  21.671  -3.417  0.00  0.00     0.001 C 
BRANCH   7   8
HETATM    8  C   UNK N   1      31.549  21.547  -3.221  0.00  0.00     0.007 C 
HETATM    9  C   UNK N   1      32.435  20.977  -4.052  0.00  0.00    -0.062 C 
HETATM   10  C   UNK N   1      33.864  20.990  -3.636  0.00  0.00     0.048 C 
BRANCH   9  11
HETATM   11  C   UNK N   1      32.115  20.294  -5.327  0.00  0.00     0.007 C 
HETATM   12  C   UNK N   1      31.894  20.886  -6.504  0.00  0.00     0.009 C 
BRANCH  12  13
HETATM   13  C   UNK N   1      31.576  20.096  -7.736  0.00  0.00    -0.048 C 
HETATM   14  C   UNK N   1      30.275  19.799  -8.006  0.00  0.00    -0.077 C 
HETATM   15  C   UNK N   1      29.876  18.963  -9.198  0.00  0.00     0.034 C 
HETATM   16  C   UNK N   1      29.173  20.267  -7.109  0.00  0.00     0.044 C 
HETATM   17  C   UNK N   1      31.006  18.063  -9.671  0.00  0.00     0.005 C 
HETATM   18  C   UNK N   1      32.204  18.943  -9.943  0.00  0.00     0.014 C 
HETATM   19  C   UNK N   1      32.708  19.609  -8.662  0.00  0.00    -0.020 C 
HETATM   20  C   UNK N   1      33.566  20.778  -9.111  0.00  0.00     0.020 C 
HETATM   21  C   UNK N   1      33.589  18.616  -7.917  0.00  0.00     0.020 C 
ENDBRANCH  12  13
ENDBRANCH   9  11
ENDBRANCH   7   8
ENDBRANCH   4   6
ENDBRANCH   1   3
BRANCH   2  22
HETATM   22  C   UNK N   1      28.959  26.667  -6.935  0.00  0.00     0.007 C 
HETATM   23  C   UNK N   1      28.429  27.553  -6.084  0.00  0.00    -0.062 C 
HETATM   24  C   UNK N   1      29.276  28.243  -5.054  0.00  0.00     0.048 C 
BRANCH  23  25
HETATM   25  C   UNK N   1      27.049  28.016  -6.376  0.00  0.00     0.007 C 
HETATM   26  C   UNK N   1      25.955  27.500  -5.782  0.00  0.00     0.001 C 
BRANCH  26  27
HETATM   27  C   UNK N   1      26.059  26.414  -4.787  0.00  0.00     0.007 C 
HETATM   28  C   UNK N   1      26.160  25.098  -5.026  0.00  0.00    -0.062 C 
HETATM   29  C   UNK N   1      26.266  24.198  -3.846  0.00  0.00     0.048 C 
BRANCH  28  30
HETATM   30  C   UNK N   1      26.128  24.453  -6.359  0.00  0.00     0.007 C 
HETATM   31  C   UNK N   1      26.975  23.521  -6.804  0.00  0.00     0.009 C 
BRANCH  31  32
HETATM   32  C   UNK N   1      26.850  22.934  -8.176  0.00  0.00    -0.048 C 
HETATM   33  C   UNK N   1      25.996  21.890  -8.367  0.00  0.00    -0.077 C 
HETATM   34  C   UNK N   1      25.852  21.209  -9.705  0.00  0.00     0.034 C 
HETATM   35  C   UNK N   1      25.175  21.348  -7.238  0.00  0.00     0.044 C 
HETATM   36  C   UNK N   1      27.084  21.389 -10.575  0.00  0.00     0.005 C 
HETATM   37  C   UNK N   1      27.342  22.874 -10.697  0.00  0.00     0.014 C 
HETATM   38  C   UNK N   1      27.695  23.487  -9.340  0.00  0.00    -0.020 C 
HETATM   39  C   UNK N   1      29.171  23.238  -9.068  0.00  0.00     0.020 C 
HETATM   40  C   UNK N   1      27.474  24.983  -9.491  0.00  0.00     0.020 C 
ENDBRANCH  31  32
ENDBRANCH  28  30
ENDBRANCH  26  27
ENDBRANCH  23  25
ENDBRANCH   2  22
TORSDOF 10
ENDMDL
MODEL 8
REMARK VINA RESULT:      -6.2      1.890      7.513
REMARK  10 active torsions:
REMARK  status: ('A' for Active; 'I' for Inactive)
REMARK    1  A    between atoms: C_1  and  C_2 
REMARK    2  A    between atoms: C_5  and  C_7 
REMARK    3  A    between atoms: C_8  and  C_10 
REMARK    4  A    between atoms: C_11  and  C_12 
REMARK    5  A    between atoms: C_13  and  C_15 
REMARK    6  A    between atoms: C_16  and  C_17 
REMARK    7  A    between atoms: C_18  and  C_19 
REMARK    8  A    between atoms: C_21  and  C_22 
REMARK    9  A    between atoms: C_23  and  C_24 
REMARK   10  A    between atoms: C_26  and  C_27 
ROOT
HETATM    1  C   UNK N   1      27.900  28.743  -5.669  0.00  0.00     0.001 C 
HETATM    2  C   UNK N   1      28.899  28.402  -4.843  0.00  0.00     0.001 C 
ENDROOT
BRANCH   1   3
HETATM    3  C   UNK N   1      26.888  27.903  -6.349  0.00  0.00     0.007 C 
HETATM    4  C   UNK N   1      27.133  27.063  -7.362  0.00  0.00    -0.062 C 
HETATM    5  C   UNK N   1      28.514  26.926  -7.937  0.00  0.00     0.048 C 
BRANCH   4   6
HETATM    6  C   UNK N   1      26.056  26.101  -7.709  0.00  0.00     0.007 C 
HETATM    7  C   UNK N   1      25.450  25.303  -6.809  0.00  0.00     0.001 C 
BRANCH   7   8
HETATM    8  C   UNK N   1      25.826  25.318  -5.381  0.00  0.00     0.007 C 
HETATM    9  C   UNK N   1      26.725  24.533  -4.769  0.00  0.00    -0.062 C 
HETATM   10  C   UNK N   1      26.940  24.753  -3.312  0.00  0.00     0.048 C 
BRANCH   9  11
HETATM   11  C   UNK N   1      27.490  23.433  -5.401  0.00  0.00     0.007 C 
HETATM   12  C   UNK N   1      28.786  23.459  -5.724  0.00  0.00     0.009 C 
BRANCH  12  13
HETATM   13  C   UNK N   1      29.463  22.286  -6.363  0.00  0.00    -0.048 C 
HETATM   14  C   UNK N   1      30.074  21.368  -5.565  0.00  0.00    -0.077 C 
HETATM   15  C   UNK N   1      30.824  20.187  -6.133  0.00  0.00     0.034 C 
HETATM   16  C   UNK N   1      30.057  21.504  -4.075  0.00  0.00     0.044 C 
HETATM   17  C   UNK N   1      31.300  20.440  -7.553  0.00  0.00     0.005 C 
HETATM   18  C   UNK N   1      30.092  20.822  -8.377  0.00  0.00     0.014 C 
HETATM   19  C   UNK N   1      29.487  22.142  -7.897  0.00  0.00    -0.020 C 
HETATM   20  C   UNK N   1      28.075  22.179  -8.456  0.00  0.00     0.020 C 
HETATM   21  C   UNK N   1      30.282  23.287  -8.508  0.00  0.00     0.020 C 
ENDBRANCH  12  13
ENDBRANCH   9  11
ENDBRANCH   7   8
ENDBRANCH   4   6
ENDBRANCH   1   3
BRANCH   2  22
HETATM   22  C   UNK N   1      29.478  27.074  -4.532  0.00  0.00     0.007 C 
HETATM   23  C   UNK N   1      30.523  26.851  -3.727  0.00  0.00    -0.062 C 
HETATM   24  C   UNK N   1      31.251  27.985  -3.066  0.00  0.00     0.048 C 
BRANCH  23  25
HETATM   25  C   UNK N   1      30.755  25.446  -3.309  0.00  0.00     0.007 C 
HETATM   26  C   UNK N   1      31.644  24.632  -3.913  0.00  0.00     0.001 C 
BRANCH  26  27
HETATM   27  C   UNK N   1      32.456  25.092  -5.056  0.00  0.00     0.007 C 
HETATM   28  C   UNK N   1      33.197  24.339  -5.885  0.00  0.00    -0.062 C 
HETATM   29  C   UNK N   1      33.919  25.042  -6.979  0.00  0.00     0.048 C 
BRANCH  28  30
HETATM   30  C   UNK N   1      33.400  22.876  -5.779  0.00  0.00     0.007 C 
HETATM   31  C   UNK N   1      34.518  22.262  -5.381  0.00  0.00     0.009 C 
BRANCH  31  32
HETATM   32  C   UNK N   1      34.614  20.770  -5.311  0.00  0.00    -0.048 C 
HETATM   33  C   UNK N   1      34.085  20.128  -4.232  0.00  0.00    -0.077 C 
HETATM   34  C   UNK N   1      34.188  18.633  -4.061  0.00  0.00     0.034 C 
HETATM   35  C   UNK N   1      33.397  20.889  -3.142  0.00  0.00     0.044 C 
HETATM   36  C   UNK N   1      35.360  18.048  -4.830  0.00  0.00     0.005 C 
HETATM   37  C   UNK N   1      35.209  18.464  -6.276  0.00  0.00     0.014 C 
HETATM   38  C   UNK N   1      35.324  19.982  -6.429  0.00  0.00    -0.020 C 
HETATM   39  C   UNK N   1      36.800  20.352  -6.461  0.00  0.00     0.020 C 
HETATM   40  C   UNK N   1      34.711  20.310  -7.780  0.00  0.00     0.020 C 
ENDBRANCH  31  32
ENDBRANCH  28  30
ENDBRANCH  26  27
ENDBRANCH  23  25
ENDBRANCH   2  22
TORSDOF 10
ENDMDL
MODEL 9
REMARK VINA RESULT:      -6.1      1.625      6.574
REMARK  10 active torsions:
REMARK  status: ('A' for Active; 'I' for Inactive)
REMARK    1  A    between atoms: C_1  and  C_2 
REMARK    2  A    between atoms: C_5  and  C_7 
REMARK    3  A    between atoms: C_8  and  C_10 
REMARK    4  A    between atoms: C_11  and  C_12 
REMARK    5  A    between atoms: C_13  and  C_15 
REMARK    6  A    between atoms: C_16  and  C_17 
REMARK    7  A    between atoms: C_18  and  C_19 
REMARK    8  A    between atoms: C_21  and  C_22 
REMARK    9  A    between atoms: C_23  and  C_24 
REMARK   10  A    between atoms: C_26  and  C_27 
ROOT
HETATM    1  C   UNK N   1      27.433  24.294  -3.275  0.00  0.00     0.001 C 
HETATM    2  C   UNK N   1      28.725  24.146  -3.601  0.00  0.00     0.001 C 
ENDROOT
BRANCH   1   3
HETATM    3  C   UNK N   1      26.299  24.823  -4.066  0.00  0.00     0.007 C 
HETATM    4  C   UNK N   1      25.924  26.107  -4.118  0.00  0.00    -0.062 C 
HETATM    5  C   UNK N   1      26.637  27.155  -3.314  0.00  0.00     0.048 C 
BRANCH   4   6
HETATM    6  C   UNK N   1      24.961  26.479  -5.186  0.00  0.00     0.007 C 
HETATM    7  C   UNK N   1      25.303  27.163  -6.294  0.00  0.00     0.001 C 
BRANCH   7   8
HETATM    8  C   UNK N   1      26.689  27.611  -6.532  0.00  0.00     0.007 C 
HETATM    9  C   UNK N   1      27.663  26.941  -7.166  0.00  0.00    -0.062 C 
HETATM   10  C   UNK N   1      28.983  27.616  -7.293  0.00  0.00     0.048 C 
BRANCH   9  11
HETATM   11  C   UNK N   1      27.557  25.568  -7.712  0.00  0.00     0.007 C 
HETATM   12  C   UNK N   1      26.437  24.968  -8.124  0.00  0.00     0.009 C 
BRANCH  12  13
HETATM   13  C   UNK N   1      26.442  23.570  -8.661  0.00  0.00    -0.048 C 
HETATM   14  C   UNK N   1      26.374  23.385 -10.008  0.00  0.00    -0.077 C 
HETATM   15  C   UNK N   1      26.320  22.008 -10.625  0.00  0.00     0.034 C 
HETATM   16  C   UNK N   1      26.317  24.549 -10.947  0.00  0.00     0.044 C 
HETATM   17  C   UNK N   1      25.784  20.967  -9.657  0.00  0.00     0.005 C 
HETATM   18  C   UNK N   1      26.639  21.022  -8.412  0.00  0.00     0.014 C 
HETATM   19  C   UNK N   1      26.498  22.367  -7.699  0.00  0.00    -0.020 C 
HETATM   20  C   UNK N   1      27.701  22.479  -6.779  0.00  0.00     0.020 C 
HETATM   21  C   UNK N   1      25.236  22.332  -6.848  0.00  0.00     0.020 C 
ENDBRANCH  12  13
ENDBRANCH   9  11
ENDBRANCH   7   8
ENDBRANCH   4   6
ENDBRANCH   1   3
BRANCH   2  22
HETATM   22  C   UNK N   1      29.495  24.679  -4.749  0.00  0.00     0.007 C 
HETATM   23  C   UNK N   1      30.427  25.637  -4.683  0.00  0.00    -0.062 C 
HETATM   24  C   UNK N   1      30.763  26.305  -3.382  0.00  0.00     0.048 C 
BRANCH  23  25
HETATM   25  C   UNK N   1      31.288  25.813  -5.879  0.00  0.00     0.007 C 
HETATM   26  C   UNK N   1      32.319  24.996  -6.175  0.00  0.00     0.001 C 
BRANCH  26  27
HETATM   27  C   UNK N   1      32.670  23.854  -5.308  0.00  0.00     0.007 C 
HETATM   28  C   UNK N   1      32.632  22.550  -5.623  0.00  0.00    -0.062 C 
HETATM   29  C   UNK N   1      33.051  21.584  -4.572  0.00  0.00     0.048 C 
BRANCH  28  30
HETATM   30  C   UNK N   1      32.166  21.981  -6.908  0.00  0.00     0.007 C 
HETATM   31  C   UNK N   1      30.943  21.509  -7.164  0.00  0.00     0.009 C 
BRANCH  31  32
HETATM   32  C   UNK N   1      30.577  20.955  -8.505  0.00  0.00    -0.048 C 
HETATM   33  C   UNK N   1      30.208  21.817  -9.494  0.00  0.00    -0.077 C 
HETATM   34  C   UNK N   1      29.774  21.334 -10.855  0.00  0.00     0.034 C 
HETATM   35  C   UNK N   1      30.187  23.295  -9.259  0.00  0.00     0.044 C 
HETATM   36  C   UNK N   1      29.255  19.907 -10.818  0.00  0.00     0.005 C 
HETATM   37  C   UNK N   1      30.336  19.044 -10.207  0.00  0.00     0.014 C 
HETATM   38  C   UNK N   1      30.595  19.433  -8.750  0.00  0.00    -0.020 C 
HETATM   39  C   UNK N   1      29.544  18.760  -7.878  0.00  0.00     0.020 C 
HETATM   40  C   UNK N   1      31.957  18.856  -8.403  0.00  0.00     0.020 C 
ENDBRANCH  31  32
ENDBRANCH  28  30
ENDBRANCH  26  27
ENDBRANCH  23  25
ENDBRANCH   2  22
TORSDOF 10
ENDMDL
