REMARK  2 active torsions:
REMARK  status: ('A' for Active; 'I' for Inactive)
REMARK    1  A    between atoms: C_2  and  C_4 
REMARK    2  A    between atoms: C_4  and  N_5 
ROOT
HETATM    1  C   UNK N   1      -0.163  -0.577  -0.847  0.00  0.00     0.348 C 
ENDROOT
BRANCH   1   2
HETATM    2  C   UNK N   1      -1.483  -0.501  -0.123  0.00  0.00     0.199 C 
HETATM    3  O   UNK N   1      -2.171  -1.628   0.141  0.00  0.00    -0.647 OA
HETATM    4  O   UNK N   1      -1.958   0.582   0.174  0.00  0.00    -0.647 OA
ENDBRANCH   1   2
BRANCH   1   5
HETATM    5  N   UNK N   1       1.005  -0.220  -0.030  0.00  0.00    -0.069 N 
HETATM    6  C   UNK N   1       0.841   1.041   0.681  0.00  0.00     0.272 C 
HETATM    7  C   UNK N   1       2.143  -0.082  -0.918  0.00  0.00     0.272 C 
HETATM    8  C   UNK N   1       1.301  -1.278   0.923  0.00  0.00     0.272 C 
ENDBRANCH   1   5
TORSDOF 2
