MODEL 1
REMARK VINA RESULT:     -18.2      0.000      0.000
REMARK  8 active torsions:
REMARK  status: ('A' for Active; 'I' for Inactive)
REMARK    1  A    between atoms: O_5  and  C_40 
REMARK    2  A    between atoms: C_20  and  C_18 
REMARK    3  A    between atoms: C_24  and  C_22 
REMARK    4  A    between atoms: C_23  and  C_34 
REMARK    5  A    between atoms: C_25  and  C_28 
REMARK    6  A    between atoms: C_42  and  C_45 
REMARK    7  A    between atoms: C_43  and  C_44 
REMARK    8  A    between atoms: C_50  and  C_51 
ROOT
HETATM    1  O   UNK N   1      29.953  20.847  -6.324  0.00  0.00    -0.353 OA
HETATM    2  O   UNK N   1      29.173  24.284  -3.373  0.00  0.00    -0.395 OA
HETATM    3  O   UNK N   1      27.480  25.848  -3.717  0.00  0.00    -0.348 OA
HETATM    4  O   UNK N   1      32.464  20.667  -3.363  0.00  0.00    -0.395 OA
HETATM    5  O   UNK N   1      28.874  21.342  -7.118  0.00  0.00    -0.348 OA
HETATM    6  O   UNK N   1      26.535  26.919  -3.683  0.00  0.00    -0.348 OA
HETATM    7  O   UNK N   1      30.647  19.424  -7.077  0.00  0.00    -0.388 OA
HETATM    8  O   UNK N   1      29.235  19.517  -8.750  0.00  0.00    -0.390 OA
HETATM    9  O   UNK N   1      26.468  25.084  -5.868  0.00  0.00    -0.388 OA
HETATM   10  O   UNK N   1      28.488  20.416  -8.665  0.00  0.00    -0.390 OA
HETATM   11  O   UNK N   1      25.199  25.890  -6.546  0.00  0.00    -0.390 OA
HETATM   12  O   UNK N   1      24.578  27.225  -5.802  0.00  0.00    -0.390 OA
HETATM   13  O   UNK N   1      27.224  22.225  -8.187  0.00  0.00    -0.398 OA
HETATM   14  O   UNK N   1      25.461  28.461  -3.273  0.00  0.00    -0.398 OA
HETATM   15  C   UNK N   1      29.089  22.662  -5.335  0.00  0.00    -0.029 A 
HETATM   16  C   UNK N   1      28.489  23.212  -5.462  0.00  0.00    -0.030 A 
HETATM   17  C   UNK N   1      29.931  22.957  -3.936  0.00  0.00     0.005 A 
HETATM   18  C   UNK N   1      30.560  22.390  -3.792  0.00  0.00    -0.033 A 
HETATM   19  C   UNK N   1      28.819  23.615  -4.585  0.00  0.00     0.030 A 
HETATM   20  C   UNK N   1      30.783  21.310  -4.747  0.00  0.00     0.033 A 
HETATM   21  C   UNK N   1      29.661  21.825  -5.572  0.00  0.00     0.042 A 
HETATM   22  C   UNK N   1      29.355  23.773  -3.728  0.00  0.00     0.038 A 
HETATM   23  C   UNK N   1      28.102  24.513  -4.462  0.00  0.00     0.027 A 
HETATM   24  C   UNK N   1      29.296  23.674  -3.916  0.00  0.00     0.123 A 
HETATM   25  C   UNK N   1      27.847  23.739  -5.669  0.00  0.00     0.011 A 
HETATM   26  C   UNK N   1      29.743  21.898  -5.385  0.00  0.00     0.131 A 
HETATM   27  C   UNK N   1      31.433  20.709  -4.614  0.00  0.00    -0.015 A 
HETATM   28  C   UNK N   1      27.927  23.745  -5.561  0.00  0.00     0.009 A 
HETATM   29  C   UNK N   1      31.068  22.471  -3.059  0.00  0.00     0.012 A 
HETATM   30  C   UNK N   1      29.237  22.171  -5.712  0.00  0.00     0.016 A 
HETATM   31  C   UNK N   1      28.301  23.180  -5.735  0.00  0.00     0.016 A 
HETATM   32  C   UNK N   1      30.522  22.559  -3.647  0.00  0.00     0.016 A 
HETATM   33  C   UNK N   1      31.952  20.773  -3.887  0.00  0.00     0.126 A 
HETATM   34  C   UNK N   1      27.791  25.181  -4.089  0.00  0.00     0.065 A 
HETATM   35  C   UNK N   1      31.723  21.880  -2.908  0.00  0.00     0.033 A 
HETATM   36  C   UNK N   1      31.396  20.246  -5.192  0.00  0.00     0.018 A 
HETATM   37  C   UNK N   1      31.226  20.326  -5.315  0.00  0.00     0.018 A 
HETATM   38  C   UNK N   1      27.238  25.261  -4.695  0.00  0.00     0.042 A 
HETATM   39  C   UNK N   1      27.892  25.306  -3.818  0.00  0.00     0.046 A 
HETATM   40  C   UNK N   1      29.926  20.584  -6.658  0.00  0.00     0.292 A 
HETATM   41  C   UNK N   1      27.319  24.280  -5.716  0.00  0.00     0.030 A 
HETATM   42  C   UNK N   1      26.393  26.458  -4.390  0.00  0.00     0.292 A 
HETATM   43  C   UNK N   1      30.047  19.976  -7.202  0.00  0.00     0.204 A 
HETATM   44  C   UNK N   1      29.568  19.919  -7.872  0.00  0.00     0.183 A 
HETATM   45  C   UNK N   1      26.068  26.194  -5.102  0.00  0.00     0.204 A 
HETATM   46  C   UNK N   1      28.304  21.730  -7.392  0.00  0.00     0.179 A 
HETATM   47  C   UNK N   1      26.312  24.567  -6.656  0.00  0.00    -0.025 A 
HETATM   48  C   UNK N   1      28.514  20.678  -8.331  0.00  0.00     0.180 A 
HETATM   49  C   UNK N   1      25.523  26.154  -5.835  0.00  0.00     0.183 A 
HETATM   50  C   UNK N   1      25.447  27.529  -4.357  0.00  0.00     0.179 A 
HETATM   51  C   UNK N   1      25.123  27.265  -5.068  0.00  0.00     0.180 A 
HETATM   52  C   UNK N   1      27.704  22.282  -7.517  0.00  0.00     0.198 A 
HETATM   53  C   UNK N   1      26.304  24.029  -7.282  0.00  0.00    -0.091 A 
HETATM   54  C   UNK N   1      25.590  27.989  -3.650  0.00  0.00     0.198 A 
HETATM   55  C   UNK N   1      25.751  24.110  -7.888  0.00  0.00     0.042 A 
HETATM   56  C   UNK N   1      26.850  23.411  -7.302  0.00  0.00     0.042 A 
HETATM   57  H   UNK N   1      28.466  24.931  -3.523  0.00  0.00     0.210 HD
HETATM   58  H   UNK N   1      32.515  21.272  -2.606  0.00  0.00     0.210 HD
HETATM   59  H   UNK N   1      31.211  19.490  -6.290  0.00  0.00     0.210 HD
HETATM   60  H   UNK N   1      29.664  18.727  -9.115  0.00  0.00     0.210 HD
HETATM   61  H   UNK N   1      27.207  24.529  -5.571  0.00  0.00     0.210 HD
HETATM   62  H   UNK N   1      29.102  19.669  -8.745  0.00  0.00     0.210 HD
HETATM   63  H   UNK N   1      25.564  25.105  -6.984  0.00  0.00     0.210 HD
HETATM   64  H   UNK N   1      24.697  26.520  -6.457  0.00  0.00     0.210 HD
HETATM   65  H   UNK N   1      27.367  21.510  -8.826  0.00  0.00     0.209 HD
HETATM   66  H   UNK N   1      24.737  29.069  -3.489  0.00  0.00     0.209 HD
ENDROOT
TORSDOF 8
ENDMDL
MODEL 2
REMARK VINA RESULT:     -17.7     21.571     25.445
REMARK  8 active torsions:
REMARK  status: ('A' for Active; 'I' for Inactive)
REMARK    1  A    between atoms: O_5  and  C_40 
REMARK    2  A    between atoms: C_20  and  C_18 
REMARK    3  A    between atoms: C_24  and  C_22 
REMARK    4  A    between atoms: C_23  and  C_34 
REMARK    5  A    between atoms: C_25  and  C_28 
REMARK    6  A    between atoms: C_42  and  C_45 
REMARK    7  A    between atoms: C_43  and  C_44 
REMARK    8  A    between atoms: C_50  and  C_51 
ROOT
HETATM    1  O   UNK N   1      36.001  10.207  17.934  0.00  0.00    -0.353 OA
HETATM    2  O   UNK N   1      35.690  14.158  15.605  0.00  0.00    -0.395 OA
HETATM    3  O   UNK N   1      36.195  14.298  13.335  0.00  0.00    -0.348 OA
HETATM    4  O   UNK N   1      34.822  13.062  20.291  0.00  0.00    -0.395 OA
HETATM    5  O   UNK N   1      36.424   9.577  16.723  0.00  0.00    -0.348 OA
HETATM    6  O   UNK N   1      36.437  14.658  11.974  0.00  0.00    -0.348 OA
HETATM    7  O   UNK N   1      35.951   9.031  19.234  0.00  0.00    -0.388 OA
HETATM    8  O   UNK N   1      36.615   7.415  17.911  0.00  0.00    -0.390 OA
HETATM    9  O   UNK N   1      36.838  11.949  12.780  0.00  0.00    -0.388 OA
HETATM   10  O   UNK N   1      36.797   7.773  16.811  0.00  0.00    -0.390 OA
HETATM   11  O   UNK N   1      37.291  11.530  11.250  0.00  0.00    -0.390 OA
HETATM   12  O   UNK N   1      37.324  12.669  10.057  0.00  0.00    -0.390 OA
HETATM   13  O   UNK N   1      37.046   8.796  14.813  0.00  0.00    -0.398 OA
HETATM   14  O   UNK N   1      36.648  15.532  10.274  0.00  0.00    -0.398 OA
HETATM   15  C   UNK N   1      36.055  11.734  16.295  0.00  0.00    -0.029 A 
HETATM   16  C   UNK N   1      36.236  11.776  15.492  0.00  0.00    -0.030 A 
HETATM   17  C   UNK N   1      35.589  13.199  16.918  0.00  0.00     0.005 A 
HETATM   18  C   UNK N   1      35.398  13.167  17.754  0.00  0.00    -0.033 A 
HETATM   19  C   UNK N   1      35.995  12.762  15.600  0.00  0.00     0.030 A 
HETATM   20  C   UNK N   1      35.507  11.898  18.466  0.00  0.00     0.033 A 
HETATM   21  C   UNK N   1      35.947  11.244  17.207  0.00  0.00     0.042 A 
HETATM   22  C   UNK N   1      35.704  13.652  16.011  0.00  0.00     0.038 A 
HETATM   23  C   UNK N   1      36.162  13.157  14.528  0.00  0.00     0.027 A 
HETATM   24  C   UNK N   1      35.752  13.438  16.005  0.00  0.00     0.123 A 
HETATM   25  C   UNK N   1      36.441  11.734  14.662  0.00  0.00     0.011 A 
HETATM   26  C   UNK N   1      35.892  11.451  17.247  0.00  0.00     0.131 A 
HETATM   27  C   UNK N   1      35.313  11.845  19.339  0.00  0.00    -0.015 A 
HETATM   28  C   UNK N   1      36.400  11.843  14.732  0.00  0.00     0.009 A 
HETATM   29  C   UNK N   1      35.136  13.912  18.176  0.00  0.00     0.012 A 
HETATM   30  C   UNK N   1      36.083  11.213  16.660  0.00  0.00     0.016 A 
HETATM   31  C   UNK N   1      36.333  11.498  15.337  0.00  0.00     0.016 A 
HETATM   32  C   UNK N   1      35.383  13.361  17.640  0.00  0.00     0.016 A 
HETATM   33  C   UNK N   1      35.049  12.579  19.777  0.00  0.00     0.126 A 
HETATM   34  C   UNK N   1      36.178  13.728  13.931  0.00  0.00     0.065 A 
HETATM   35  C   UNK N   1      34.937  13.880  19.048  0.00  0.00     0.033 A 
HETATM   36  C   UNK N   1      35.423  11.136  19.523  0.00  0.00     0.018 A 
HETATM   37  C   UNK N   1      35.490  11.039  19.332  0.00  0.00     0.018 A 
HETATM   38  C   UNK N   1      36.430  13.156  13.393  0.00  0.00     0.042 A 
HETATM   39  C   UNK N   1      36.104  14.033  13.963  0.00  0.00     0.046 A 
HETATM   40  C   UNK N   1      36.067   9.797  18.033  0.00  0.00     0.292 A 
HETATM   41  C   UNK N   1      36.588  11.854  13.929  0.00  0.00     0.030 A 
HETATM   42  C   UNK N   1      36.599  13.822  12.062  0.00  0.00     0.292 A 
HETATM   43  C   UNK N   1      36.131   9.077  18.430  0.00  0.00     0.204 A 
HETATM   44  C   UNK N   1      36.374   8.402  18.022  0.00  0.00     0.183 A 
HETATM   45  C   UNK N   1      36.809  13.042  11.893  0.00  0.00     0.204 A 
HETATM   46  C   UNK N   1      36.622   9.426  16.025  0.00  0.00     0.179 A 
HETATM   47  C   UNK N   1      37.017  11.017  12.882  0.00  0.00    -0.025 A 
HETATM   48  C   UNK N   1      36.731   8.182  16.711  0.00  0.00     0.180 A 
HETATM   49  C   UNK N   1      37.081  12.309  11.419  0.00  0.00     0.183 A 
HETATM   50  C   UNK N   1      36.842  14.182  10.701  0.00  0.00     0.179 A 
HETATM   51  C   UNK N   1      37.052  13.402  10.532  0.00  0.00     0.180 A 
HETATM   52  C   UNK N   1      36.802   9.472  15.221  0.00  0.00     0.198 A 
HETATM   53  C   UNK N   1      37.129  10.237  13.129  0.00  0.00    -0.091 A 
HETATM   54  C   UNK N   1      36.680  15.018  10.613  0.00  0.00     0.198 A 
HETATM   55  C   UNK N   1      37.381   9.666  12.590  0.00  0.00     0.042 A 
HETATM   56  C   UNK N   1      36.989  10.029  13.915  0.00  0.00     0.042 A 
HETATM   57  H   UNK N   1      35.902  14.208  14.660  0.00  0.00     0.210 HD
HETATM   58  H   UNK N   1      34.676  13.991  20.052  0.00  0.00     0.210 HD
HETATM   59  H   UNK N   1      35.665   9.825  19.713  0.00  0.00     0.210 HD
HETATM   60  H   UNK N   1      36.566   6.815  18.672  0.00  0.00     0.210 HD
HETATM   61  H   UNK N   1      36.591  12.072  13.710  0.00  0.00     0.210 HD
HETATM   62  H   UNK N   1      36.649   7.466  17.719  0.00  0.00     0.210 HD
HETATM   63  H   UNK N   1      37.271  10.859  11.950  0.00  0.00     0.210 HD
HETATM   64  H   UNK N   1      37.407  11.810  10.498  0.00  0.00     0.210 HD
HETATM   65  H   UNK N   1      37.120   7.949  15.279  0.00  0.00     0.209 HD
HETATM   66  H   UNK N   1      36.876  15.507   9.332  0.00  0.00     0.209 HD
ENDROOT
TORSDOF 8
ENDMDL
MODEL 3
REMARK VINA RESULT:     -17.6      1.297      6.584
REMARK  8 active torsions:
REMARK  status: ('A' for Active; 'I' for Inactive)
REMARK    1  A    between atoms: O_5  and  C_40 
REMARK    2  A    between atoms: C_20  and  C_18 
REMARK    3  A    between atoms: C_24  and  C_22 
REMARK    4  A    between atoms: C_23  and  C_34 
REMARK    5  A    between atoms: C_25  and  C_28 
REMARK    6  A    between atoms: C_42  and  C_45 
REMARK    7  A    between atoms: C_43  and  C_44 
REMARK    8  A    between atoms: C_50  and  C_51 
ROOT
HETATM    1  O   UNK N   1      26.690  23.728  -6.352  0.00  0.00    -0.353 OA
HETATM    2  O   UNK N   1      30.049  20.677  -7.085  0.00  0.00    -0.395 OA
HETATM    3  O   UNK N   1      31.746  20.309  -5.531  0.00  0.00    -0.348 OA
HETATM    4  O   UNK N   1      26.205  22.003  -9.800  0.00  0.00    -0.395 OA
HETATM    5  O   UNK N   1      27.296  24.026  -5.092  0.00  0.00    -0.348 OA
HETATM    6  O   UNK N   1      32.880  19.894  -4.768  0.00  0.00    -0.348 OA
HETATM    7  O   UNK N   1      25.253  24.708  -6.572  0.00  0.00    -0.388 OA
HETATM    8  O   UNK N   1      25.519  25.686  -4.629  0.00  0.00    -0.390 OA
HETATM    9  O   UNK N   1      31.148  21.893  -3.694  0.00  0.00    -0.388 OA
HETATM   10  O   UNK N   1      26.465  25.304  -4.053  0.00  0.00    -0.390 OA
HETATM   11  O   UNK N   1      32.073  22.005  -2.333  0.00  0.00    -0.390 OA
HETATM   12  O   UNK N   1      33.417  21.063  -2.168  0.00  0.00    -0.390 OA
HETATM   13  O   UNK N   1      28.341  24.348  -3.235  0.00  0.00    -0.398 OA
HETATM   14  O   UNK N   1      34.478  19.079  -4.074  0.00  0.00    -0.398 OA
HETATM   15  C   UNK N   1      28.521  22.461  -6.101  0.00  0.00    -0.029 A 
HETATM   16  C   UNK N   1      29.119  22.336  -5.547  0.00  0.00    -0.030 A 
HETATM   17  C   UNK N   1      28.696  21.506  -7.447  0.00  0.00     0.005 A 
HETATM   18  C   UNK N   1      28.079  21.628  -8.032  0.00  0.00    -0.033 A 
HETATM   19  C   UNK N   1      29.460  21.657  -6.228  0.00  0.00     0.030 A 
HETATM   20  C   UNK N   1      27.026  22.603  -7.770  0.00  0.00     0.033 A 
HETATM   21  C   UNK N   1      27.655  22.913  -6.461  0.00  0.00     0.042 A 
HETATM   22  C   UNK N   1      29.542  21.080  -7.069  0.00  0.00     0.038 A 
HETATM   23  C   UNK N   1      30.401  21.252  -5.695  0.00  0.00     0.027 A 
HETATM   24  C   UNK N   1      29.455  21.230  -6.933  0.00  0.00     0.123 A 
HETATM   25  C   UNK N   1      29.699  22.267  -4.922  0.00  0.00     0.011 A 
HETATM   26  C   UNK N   1      27.715  22.773  -6.616  0.00  0.00     0.131 A 
HETATM   27  C   UNK N   1      26.374  22.745  -8.368  0.00  0.00    -0.015 A 
HETATM   28  C   UNK N   1      29.695  22.199  -5.039  0.00  0.00     0.009 A 
HETATM   29  C   UNK N   1      28.091  21.155  -8.792  0.00  0.00     0.012 A 
HETATM   30  C   UNK N   1      28.036  22.870  -6.047  0.00  0.00     0.016 A 
HETATM   31  C   UNK N   1      29.112  22.513  -5.265  0.00  0.00     0.016 A 
HETATM   32  C   UNK N   1      28.243  21.478  -8.068  0.00  0.00     0.016 A 
HETATM   33  C   UNK N   1      26.370  22.281  -9.134  0.00  0.00     0.126 A 
HETATM   34  C   UNK N   1      31.074  20.780  -5.613  0.00  0.00     0.065 A 
HETATM   35  C   UNK N   1      27.448  21.281  -9.402  0.00  0.00     0.033 A 
HETATM   36  C   UNK N   1      25.939  23.264  -8.068  0.00  0.00     0.018 A 
HETATM   37  C   UNK N   1      26.036  23.310  -7.870  0.00  0.00     0.018 A 
HETATM   38  C   UNK N   1      31.219  21.118  -4.875  0.00  0.00     0.042 A 
HETATM   39  C   UNK N   1      31.180  20.570  -5.823  0.00  0.00     0.046 A 
HETATM   40  C   UNK N   1      26.445  24.027  -6.173  0.00  0.00     0.292 A 
HETATM   41  C   UNK N   1      30.279  22.096  -4.466  0.00  0.00     0.030 A 
HETATM   42  C   UNK N   1      32.461  20.492  -4.321  0.00  0.00     0.292 A 
HETATM   43  C   UNK N   1      25.852  24.581  -6.019  0.00  0.00     0.204 A 
HETATM   44  C   UNK N   1      25.859  25.006  -5.312  0.00  0.00     0.183 A 
HETATM   45  C   UNK N   1      32.252  21.020  -3.722  0.00  0.00     0.204 A 
HETATM   46  C   UNK N   1      27.735  24.049  -4.496  0.00  0.00     0.179 A 
HETATM   47  C   UNK N   1      30.678  22.559  -3.198  0.00  0.00    -0.025 A 
HETATM   48  C   UNK N   1      26.712  25.005  -4.231  0.00  0.00     0.180 A 
HETATM   49  C   UNK N   1      32.282  21.478  -2.931  0.00  0.00     0.183 A 
HETATM   50  C   UNK N   1      33.596  20.078  -3.557  0.00  0.00     0.179 A 
HETATM   51  C   UNK N   1      33.386  20.605  -2.959  0.00  0.00     0.180 A 
HETATM   52  C   UNK N   1      28.334  23.922  -3.943  0.00  0.00     0.198 A 
HETATM   53  C   UNK N   1      30.168  23.136  -2.900  0.00  0.00    -0.091 A 
HETATM   54  C   UNK N   1      34.015  19.480  -4.005  0.00  0.00     0.198 A 
HETATM   55  C   UNK N   1      30.314  23.473  -2.161  0.00  0.00     0.042 A 
HETATM   56  C   UNK N   1      29.513  23.376  -3.340  0.00  0.00     0.042 A 
HETATM   57  H   UNK N   1      30.752  20.529  -6.433  0.00  0.00     0.210 HD
HETATM   58  H   UNK N   1      26.772  21.322 -10.195  0.00  0.00     0.210 HD
HETATM   59  H   UNK N   1      25.245  24.208  -7.403  0.00  0.00     0.210 HD
HETATM   60  H   UNK N   1      24.716  26.197  -4.812  0.00  0.00     0.210 HD
HETATM   61  H   UNK N   1      30.529  21.916  -4.442  0.00  0.00     0.210 HD
HETATM   62  H   UNK N   1      25.680  25.627  -4.522  0.00  0.00     0.210 HD
HETATM   63  H   UNK N   1      31.282  22.559  -2.429  0.00  0.00     0.210 HD
HETATM   64  H   UNK N   1      32.734  21.719  -1.961  0.00  0.00     0.210 HD
HETATM   65  H   UNK N   1      27.645  24.998  -3.055  0.00  0.00     0.209 HD
HETATM   66  H   UNK N   1      35.147  18.985  -3.378  0.00  0.00     0.209 HD
ENDROOT
TORSDOF 8
ENDMDL
MODEL 4
REMARK VINA RESULT:     -17.4     13.083     14.342
REMARK  8 active torsions:
REMARK  status: ('A' for Active; 'I' for Inactive)
REMARK    1  A    between atoms: O_5  and  C_40 
REMARK    2  A    between atoms: C_20  and  C_18 
REMARK    3  A    between atoms: C_24  and  C_22 
REMARK    4  A    between atoms: C_23  and  C_34 
REMARK    5  A    between atoms: C_25  and  C_28 
REMARK    6  A    between atoms: C_42  and  C_45 
REMARK    7  A    between atoms: C_43  and  C_44 
REMARK    8  A    between atoms: C_50  and  C_51 
ROOT
HETATM    1  O   UNK N   1      22.184  19.691   2.925  0.00  0.00    -0.353 OA
HETATM    2  O   UNK N   1      24.475  16.878   5.748  0.00  0.00    -0.395 OA
HETATM    3  O   UNK N   1      23.440  15.083   6.812  0.00  0.00    -0.348 OA
HETATM    4  O   UNK N   1      25.903  20.790   3.185  0.00  0.00    -0.395 OA
HETATM    5  O   UNK N   1      21.012  18.912   3.172  0.00  0.00    -0.348 OA
HETATM    6  O   UNK N   1      23.062  13.936   7.576  0.00  0.00    -0.348 OA
HETATM    7  O   UNK N   1      21.812  20.998   1.817  0.00  0.00    -0.388 OA
HETATM    8  O   UNK N   1      19.714  20.385   1.665  0.00  0.00    -0.390 OA
HETATM    9  O   UNK N   1      21.088  15.251   5.989  0.00  0.00    -0.388 OA
HETATM   10  O   UNK N   1      19.468  19.441   2.313  0.00  0.00    -0.390 OA
HETATM   11  O   UNK N   1      19.938  14.172   6.472  0.00  0.00    -0.390 OA
HETATM   12  O   UNK N   1      20.332  12.957   7.516  0.00  0.00    -0.390 OA
HETATM   13  O   UNK N   1      19.349  17.631   3.659  0.00  0.00    -0.398 OA
HETATM   14  O   UNK N   1      22.964  12.395   8.723  0.00  0.00    -0.398 OA
HETATM   15  C   UNK N   1      22.692  18.031   4.342  0.00  0.00    -0.029 A 
HETATM   16  C   UNK N   1      22.320  17.398   4.715  0.00  0.00    -0.030 A 
HETATM   17  C   UNK N   1      24.301  18.140   4.734  0.00  0.00     0.005 A 
HETATM   18  C   UNK N   1      24.700  18.797   4.351  0.00  0.00    -0.033 A 
HETATM   19  C   UNK N   1      23.243  17.230   5.116  0.00  0.00     0.030 A 
HETATM   20  C   UNK N   1      23.946  19.672   3.460  0.00  0.00     0.033 A 
HETATM   21  C   UNK N   1      22.727  18.863   3.717  0.00  0.00     0.042 A 
HETATM   22  C   UNK N   1      24.237  17.322   5.340  0.00  0.00     0.038 A 
HETATM   23  C   UNK N   1      23.044  16.298   5.768  0.00  0.00     0.027 A 
HETATM   24  C   UNK N   1      24.045  17.372   5.245  0.00  0.00     0.123 A 
HETATM   25  C   UNK N   1      21.859  16.765   5.061  0.00  0.00     0.011 A 
HETATM   26  C   UNK N   1      22.929  18.841   3.793  0.00  0.00     0.131 A 
HETATM   27  C   UNK N   1      24.344  20.362   3.051  0.00  0.00    -0.015 A 
HETATM   28  C   UNK N   1      21.991  16.792   5.080  0.00  0.00     0.009 A 
HETATM   29  C   UNK N   1      25.571  18.934   4.504  0.00  0.00     0.012 A 
HETATM   30  C   UNK N   1      22.420  18.447   3.944  0.00  0.00     0.016 A 
HETATM   31  C   UNK N   1      21.996  17.349   4.657  0.00  0.00     0.016 A 
HETATM   32  C   UNK N   1      24.812  18.659   4.489  0.00  0.00     0.016 A 
HETATM   33  C   UNK N   1      25.215  20.515   3.192  0.00  0.00     0.126 A 
HETATM   34  C   UNK N   1      23.243  15.691   6.290  0.00  0.00     0.065 A 
HETATM   35  C   UNK N   1      25.988  19.619   4.105  0.00  0.00     0.033 A 
HETATM   36  C   UNK N   1      23.814  20.686   2.647  0.00  0.00     0.018 A 
HETATM   37  C   UNK N   1      23.631  20.562   2.688  0.00  0.00     0.018 A 
HETATM   38  C   UNK N   1      22.464  15.419   6.268  0.00  0.00     0.042 A 
HETATM   39  C   UNK N   1      23.527  15.637   6.415  0.00  0.00     0.046 A 
HETATM   40  C   UNK N   1      21.875  19.872   2.695  0.00  0.00     0.292 A 
HETATM   41  C   UNK N   1      21.590  16.166   5.439  0.00  0.00     0.030 A 
HETATM   42  C   UNK N   1      22.371  14.218   7.157  0.00  0.00     0.292 A 
HETATM   43  C   UNK N   1      21.442  20.363   2.192  0.00  0.00     0.204 A 
HETATM   44  C   UNK N   1      20.640  20.220   2.065  0.00  0.00     0.183 A 
HETATM   45  C   UNK N   1      21.598  14.285   6.876  0.00  0.00     0.204 A 
HETATM   46  C   UNK N   1      20.522  18.410   3.411  0.00  0.00     0.179 A 
HETATM   47  C   UNK N   1      20.319  15.568   5.519  0.00  0.00    -0.025 A 
HETATM   48  C   UNK N   1      19.777  19.259   2.543  0.00  0.00     0.180 A 
HETATM   49  C   UNK N   1      20.710  14.104   6.752  0.00  0.00     0.183 A 
HETATM   50  C   UNK N   1      21.993  13.070   7.920  0.00  0.00     0.179 A 
HETATM   51  C   UNK N   1      21.220  13.138   7.640  0.00  0.00     0.180 A 
HETATM   52  C   UNK N   1      20.152  17.775   3.786  0.00  0.00     0.198 A 
HETATM   53  C   UNK N   1      19.758  15.958   5.056  0.00  0.00    -0.091 A 
HETATM   54  C   UNK N   1      22.684  12.789   8.340  0.00  0.00     0.198 A 
HETATM   55  C   UNK N   1      18.980  15.686   5.034  0.00  0.00     0.042 A 
HETATM   56  C   UNK N   1      19.976  16.621   4.615  0.00  0.00     0.042 A 
HETATM   57  H   UNK N   1      24.037  16.133   6.188  0.00  0.00     0.210 HD
HETATM   58  H   UNK N   1      26.598  20.369   3.713  0.00  0.00     0.210 HD
HETATM   59  H   UNK N   1      22.756  21.167   1.967  0.00  0.00     0.210 HD
HETATM   60  H   UNK N   1      19.575  21.128   1.057  0.00  0.00     0.210 HD
HETATM   61  H   UNK N   1      21.671  15.941   5.635  0.00  0.00     0.210 HD
HETATM   62  H   UNK N   1      19.661  20.223   1.773  0.00  0.00     0.210 HD
HETATM   63  H   UNK N   1      19.705  14.886   5.858  0.00  0.00     0.210 HD
HETATM   64  H   UNK N   1      19.801  13.518   6.930  0.00  0.00     0.210 HD
HETATM   65  H   UNK N   1      18.841  18.208   3.067  0.00  0.00     0.209 HD
HETATM   66  H   UNK N   1      22.461  11.671   9.126  0.00  0.00     0.209 HD
ENDROOT
TORSDOF 8
ENDMDL
MODEL 5
REMARK VINA RESULT:     -17.3     11.853     15.818
REMARK  8 active torsions:
REMARK  status: ('A' for Active; 'I' for Inactive)
REMARK    1  A    between atoms: O_5  and  C_40 
REMARK    2  A    between atoms: C_20  and  C_18 
REMARK    3  A    between atoms: C_24  and  C_22 
REMARK    4  A    between atoms: C_23  and  C_34 
REMARK    5  A    between atoms: C_25  and  C_28 
REMARK    6  A    between atoms: C_42  and  C_45 
REMARK    7  A    between atoms: C_43  and  C_44 
REMARK    8  A    between atoms: C_50  and  C_51 
ROOT
HETATM    1  O   UNK N   1      29.695  17.355   5.489  0.00  0.00    -0.353 OA
HETATM    2  O   UNK N   1      32.058  16.964   9.413  0.00  0.00    -0.395 OA
HETATM    3  O   UNK N   1      34.116  15.877   9.513  0.00  0.00    -0.348 OA
HETATM    4  O   UNK N   1      27.756  19.054   8.397  0.00  0.00    -0.395 OA
HETATM    5  O   UNK N   1      30.746  16.641   4.836  0.00  0.00    -0.348 OA
HETATM    6  O   UNK N   1      35.368  15.278   9.851  0.00  0.00    -0.348 OA
HETATM    7  O   UNK N   1      28.444  17.769   4.333  0.00  0.00    -0.388 OA
HETATM    8  O   UNK N   1      29.530  16.812   2.688  0.00  0.00    -0.390 OA
HETATM    9  O   UNK N   1      34.462  15.157   7.146  0.00  0.00    -0.388 OA
HETATM   10  O   UNK N   1      30.548  16.341   3.027  0.00  0.00    -0.390 OA
HETATM   11  O   UNK N   1      35.815  14.327   6.698  0.00  0.00    -0.390 OA
HETATM   12  O   UNK N   1      36.967  13.959   7.821  0.00  0.00    -0.390 OA
HETATM   13  O   UNK N   1      32.419  15.555   4.019  0.00  0.00    -0.398 OA
HETATM   14  O   UNK N   1      36.961  14.610  10.698  0.00  0.00    -0.398 OA
HETATM   15  C   UNK N   1      31.275  16.841   6.993  0.00  0.00    -0.029 A 
HETATM   16  C   UNK N   1      32.003  16.455   7.021  0.00  0.00    -0.030 A 
HETATM   17  C   UNK N   1      30.810  17.425   8.474  0.00  0.00     0.005 A 
HETATM   18  C   UNK N   1      30.053  17.830   8.457  0.00  0.00    -0.033 A 
HETATM   19  C   UNK N   1      31.970  16.696   8.012  0.00  0.00     0.030 A 
HETATM   20  C   UNK N   1      29.326  17.937   7.196  0.00  0.00     0.033 A 
HETATM   21  C   UNK N   1      30.419  17.196   6.518  0.00  0.00     0.042 A 
HETATM   22  C   UNK N   1      31.658  17.067   8.913  0.00  0.00     0.038 A 
HETATM   23  C   UNK N   1      32.964  16.245   8.390  0.00  0.00     0.027 A 
HETATM   24  C   UNK N   1      31.650  17.023   8.697  0.00  0.00     0.123 A 
HETATM   25  C   UNK N   1      32.749  16.040   6.964  0.00  0.00     0.011 A 
HETATM   26  C   UNK N   1      30.397  17.254   6.725  0.00  0.00     0.131 A 
HETATM   27  C   UNK N   1      28.535  18.355   7.158  0.00  0.00    -0.015 A 
HETATM   28  C   UNK N   1      32.693  16.095   7.074  0.00  0.00     0.009 A 
HETATM   29  C   UNK N   1      29.721  18.179   9.212  0.00  0.00     0.012 A 
HETATM   30  C   UNK N   1      30.911  16.921   6.476  0.00  0.00     0.016 A 
HETATM   31  C   UNK N   1      32.124  16.326   6.739  0.00  0.00     0.016 A 
HETATM   32  C   UNK N   1      30.168  17.811   8.649  0.00  0.00     0.016 A 
HETATM   33  C   UNK N   1      28.188  18.710   7.903  0.00  0.00     0.126 A 
HETATM   34  C   UNK N   1      33.540  16.061   8.952  0.00  0.00     0.065 A 
HETATM   35  C   UNK N   1      28.932  18.600   9.195  0.00  0.00     0.033 A 
HETATM   36  C   UNK N   1      28.321  18.311   6.450  0.00  0.00     0.018 A 
HETATM   37  C   UNK N   1      28.488  18.199   6.349  0.00  0.00     0.018 A 
HETATM   38  C   UNK N   1      33.989  15.688   8.369  0.00  0.00     0.042 A 
HETATM   39  C   UNK N   1      33.532  16.135   9.258  0.00  0.00     0.046 A 
HETATM   40  C   UNK N   1      29.578  17.325   5.080  0.00  0.00     0.292 A 
HETATM   41  C   UNK N   1      33.419  15.703   7.071  0.00  0.00     0.030 A 
HETATM   42  C   UNK N   1      35.233  15.162   9.013  0.00  0.00     0.292 A 
HETATM   43  C   UNK N   1      29.172  17.383   4.364  0.00  0.00     0.204 A 
HETATM   44  C   UNK N   1      29.495  17.055   3.680  0.00  0.00     0.183 A 
HETATM   45  C   UNK N   1      35.334  14.931   8.228  0.00  0.00     0.204 A 
HETATM   46  C   UNK N   1      31.366  16.269   4.672  0.00  0.00     0.179 A 
HETATM   47  C   UNK N   1      34.308  15.030   6.213  0.00  0.00    -0.025 A 
HETATM   48  C   UNK N   1      30.665  16.369   3.436  0.00  0.00     0.180 A 
HETATM   49  C   UNK N   1      35.714  14.558   7.484  0.00  0.00     0.183 A 
HETATM   50  C   UNK N   1      36.486  14.562   9.350  0.00  0.00     0.179 A 
HETATM   51  C   UNK N   1      36.587  14.331   8.565  0.00  0.00     0.180 A 
HETATM   52  C   UNK N   1      32.095  15.884   4.704  0.00  0.00     0.198 A 
HETATM   53  C   UNK N   1      34.034  15.003   5.434  0.00  0.00    -0.091 A 
HETATM   54  C   UNK N   1      36.621  14.678  10.188  0.00  0.00     0.198 A 
HETATM   55  C   UNK N   1      34.483  14.630   4.852  0.00  0.00     0.042 A 
HETATM   56  C   UNK N   1      33.311  15.349   5.239  0.00  0.00     0.042 A 
HETATM   57  H   UNK N   1      32.914  16.510   9.447  0.00  0.00     0.210 HD
HETATM   58  H   UNK N   1      28.033  19.114   9.324  0.00  0.00     0.210 HD
HETATM   59  H   UNK N   1      28.064  18.155   5.138  0.00  0.00     0.210 HD
HETATM   60  H   UNK N   1      28.804  17.072   2.099  0.00  0.00     0.210 HD
HETATM   61  H   UNK N   1      33.630  15.637   7.287  0.00  0.00     0.210 HD
HETATM   62  H   UNK N   1      29.707  16.728   2.735  0.00  0.00     0.210 HD
HETATM   63  H   UNK N   1      35.139  14.543   6.038  0.00  0.00     0.210 HD
HETATM   64  H   UNK N   1      36.512  14.012   6.966  0.00  0.00     0.210 HD
HETATM   65  H   UNK N   1      31.942  15.623   3.177  0.00  0.00     0.209 HD
HETATM   66  H   UNK N   1      37.810  14.143  10.655  0.00  0.00     0.209 HD
ENDROOT
TORSDOF 8
ENDMDL
MODEL 6
REMARK VINA RESULT:     -17.3     10.986     13.916
REMARK  8 active torsions:
REMARK  status: ('A' for Active; 'I' for Inactive)
REMARK    1  A    between atoms: O_5  and  C_40 
REMARK    2  A    between atoms: C_20  and  C_18 
REMARK    3  A    between atoms: C_24  and  C_22 
REMARK    4  A    between atoms: C_23  and  C_34 
REMARK    5  A    between atoms: C_25  and  C_28 
REMARK    6  A    between atoms: C_42  and  C_45 
REMARK    7  A    between atoms: C_43  and  C_44 
REMARK    8  A    between atoms: C_50  and  C_51 
ROOT
HETATM    1  O   UNK N   1      32.958  15.367   7.041  0.00  0.00    -0.353 OA
HETATM    2  O   UNK N   1      30.311  17.526   3.965  0.00  0.00    -0.395 OA
HETATM    3  O   UNK N   1      28.506  18.854   4.603  0.00  0.00    -0.348 OA
HETATM    4  O   UNK N   1      34.204  14.615   3.438  0.00  0.00    -0.395 OA
HETATM    5  O   UNK N   1      32.142  15.929   8.071  0.00  0.00    -0.348 OA
HETATM    6  O   UNK N   1      27.366  19.708   4.714  0.00  0.00    -0.348 OA
HETATM    7  O   UNK N   1      34.220  14.378   7.749  0.00  0.00    -0.388 OA
HETATM    8  O   UNK N   1      33.524  14.796   9.784  0.00  0.00    -0.390 OA
HETATM    9  O   UNK N   1      28.563  18.681   7.094  0.00  0.00    -0.388 OA
HETATM   10  O   UNK N   1      32.588  15.501   9.809  0.00  0.00    -0.390 OA
HETATM   11  O   UNK N   1      27.454  19.469   8.027  0.00  0.00    -0.390 OA
HETATM   12  O   UNK N   1      26.283  20.389   7.317  0.00  0.00    -0.390 OA
HETATM   13  O   UNK N   1      30.811  16.859   9.489  0.00  0.00    -0.398 OA
HETATM   14  O   UNK N   1      25.854  20.864   4.438  0.00  0.00    -0.398 OA
HETATM   15  C   UNK N   1      31.357  16.624   6.105  0.00  0.00    -0.029 A 
HETATM   16  C   UNK N   1      30.720  17.093   6.337  0.00  0.00    -0.030 A 
HETATM   17  C   UNK N   1      31.538  16.574   4.456  0.00  0.00     0.005 A 
HETATM   18  C   UNK N   1      32.198  16.089   4.201  0.00  0.00    -0.033 A 
HETATM   19  C   UNK N   1      30.599  17.237   5.334  0.00  0.00     0.030 A 
HETATM   20  C   UNK N   1      33.020  15.416   5.202  0.00  0.00     0.033 A 
HETATM   21  C   UNK N   1      32.173  16.000   6.273  0.00  0.00     0.042 A 
HETATM   22  C   UNK N   1      30.734  17.188   4.321  0.00  0.00     0.038 A 
HETATM   23  C   UNK N   1      29.677  17.933   5.313  0.00  0.00     0.027 A 
HETATM   24  C   UNK N   1      30.774  17.146   4.534  0.00  0.00     0.123 A 
HETATM   25  C   UNK N   1      30.080  17.559   6.661  0.00  0.00     0.011 A 
HETATM   26  C   UNK N   1      32.161  16.020   6.057  0.00  0.00     0.131 A 
HETATM   27  C   UNK N   1      33.714  14.905   4.956  0.00  0.00    -0.015 A 
HETATM   28  C   UNK N   1      30.112  17.541   6.531  0.00  0.00     0.009 A 
HETATM   29  C   UNK N   1      32.373  16.003   3.328  0.00  0.00     0.012 A 
HETATM   30  C   UNK N   1      31.751  16.306   6.490  0.00  0.00     0.016 A 
HETATM   31  C   UNK N   1      30.657  17.123   6.662  0.00  0.00     0.016 A 
HETATM   32  C   UNK N   1      32.069  16.194   4.051  0.00  0.00     0.016 A 
HETATM   33  C   UNK N   1      33.904  14.808   4.087  0.00  0.00     0.126 A 
HETATM   34  C   UNK N   1      29.092  18.394   4.957  0.00  0.00     0.065 A 
HETATM   35  C   UNK N   1      33.062  15.497   3.062  0.00  0.00     0.033 A 
HETATM   36  C   UNK N   1      34.007  14.652   5.588  0.00  0.00     0.018 A 
HETATM   37  C   UNK N   1      33.877  14.741   5.749  0.00  0.00     0.018 A 
HETATM   38  C   UNK N   1      28.790  18.582   5.701  0.00  0.00     0.042 A 
HETATM   39  C   UNK N   1      29.053  18.439   4.647  0.00  0.00     0.046 A 
HETATM   40  C   UNK N   1      33.121  15.225   7.408  0.00  0.00     0.292 A 
HETATM   41  C   UNK N   1      29.481  18.003   6.795  0.00  0.00     0.030 A 
HETATM   42  C   UNK N   1      27.610  19.483   5.503  0.00  0.00     0.292 A 
HETATM   43  C   UNK N   1      33.582  14.847   7.979  0.00  0.00     0.204 A 
HETATM   44  C   UNK N   1      33.404  14.939   8.780  0.00  0.00     0.183 A 
HETATM   45  C   UNK N   1      27.641  19.417   6.325  0.00  0.00     0.204 A 
HETATM   46  C   UNK N   1      31.628  16.297   8.458  0.00  0.00     0.179 A 
HETATM   47  C   UNK N   1      28.837  18.428   7.972  0.00  0.00    -0.025 A 
HETATM   48  C   UNK N   1      32.424  15.644   9.443  0.00  0.00     0.180 A 
HETATM   49  C   UNK N   1      27.423  19.535   7.205  0.00  0.00     0.183 A 
HETATM   50  C   UNK N   1      26.470  20.337   5.615  0.00  0.00     0.179 A 
HETATM   51  C   UNK N   1      26.501  20.271   6.437  0.00  0.00     0.180 A 
HETATM   52  C   UNK N   1      30.989  16.766   8.687  0.00  0.00     0.198 A 
HETATM   53  C   UNK N   1      29.194  18.123   8.652  0.00  0.00    -0.091 A 
HETATM   54  C   UNK N   1      26.226  20.563   4.826  0.00  0.00     0.198 A 
HETATM   55  C   UNK N   1      28.891  18.313   9.396  0.00  0.00     0.042 A 
HETATM   56  C   UNK N   1      29.852  17.630   8.588  0.00  0.00     0.042 A 
HETATM   57  H   UNK N   1      29.561  18.077   4.238  0.00  0.00     0.210 HD
HETATM   58  H   UNK N   1      33.824  14.946   2.610  0.00  0.00     0.210 HD
HETATM   59  H   UNK N   1      34.429  14.269   6.808  0.00  0.00     0.210 HD
HETATM   60  H   UNK N   1      34.244  14.236  10.112  0.00  0.00     0.210 HD
HETATM   61  H   UNK N   1      29.265  18.174   6.655  0.00  0.00     0.210 HD
HETATM   62  H   UNK N   1      33.363  14.917   9.800  0.00  0.00     0.210 HD
HETATM   63  H   UNK N   1      28.142  18.928   8.445  0.00  0.00     0.210 HD
HETATM   64  H   UNK N   1      26.807  19.958   8.009  0.00  0.00     0.210 HD
HETATM   65  H   UNK N   1      31.353  16.414  10.159  0.00  0.00     0.209 HD
HETATM   66  H   UNK N   1      25.122  21.398   4.785  0.00  0.00     0.209 HD
ENDROOT
TORSDOF 8
ENDMDL
MODEL 7
REMARK VINA RESULT:     -17.2     16.970     20.555
REMARK  8 active torsions:
REMARK  status: ('A' for Active; 'I' for Inactive)
REMARK    1  A    between atoms: O_5  and  C_40 
REMARK    2  A    between atoms: C_20  and  C_18 
REMARK    3  A    between atoms: C_24  and  C_22 
REMARK    4  A    between atoms: C_23  and  C_34 
REMARK    5  A    between atoms: C_25  and  C_28 
REMARK    6  A    between atoms: C_42  and  C_45 
REMARK    7  A    between atoms: C_43  and  C_44 
REMARK    8  A    between atoms: C_50  and  C_51 
ROOT
HETATM    1  O   UNK N   1      35.119  11.174  12.829  0.00  0.00    -0.353 OA
HETATM    2  O   UNK N   1      35.960  15.675  12.436  0.00  0.00    -0.395 OA
HETATM    3  O   UNK N   1      35.386  16.878  10.524  0.00  0.00    -0.348 OA
HETATM    4  O   UNK N   1      36.843  12.502  16.049  0.00  0.00    -0.395 OA
HETATM    5  O   UNK N   1      34.549  11.210  11.520  0.00  0.00    -0.348 OA
HETATM    6  O   UNK N   1      35.146  17.836   9.492  0.00  0.00    -0.348 OA
HETATM    7  O   UNK N   1      35.037   9.545  13.473  0.00  0.00    -0.388 OA
HETATM    8  O   UNK N   1      34.065   8.787  11.661  0.00  0.00    -0.390 OA
HETATM    9  O   UNK N   1      34.351  15.126   9.076  0.00  0.00    -0.388 OA
HETATM   10  O   UNK N   1      33.895   9.619  10.854  0.00  0.00    -0.390 OA
HETATM   11  O   UNK N   1      33.771  15.495   7.576  0.00  0.00    -0.390 OA
HETATM   12  O   UNK N   1      33.870  17.042   7.011  0.00  0.00    -0.390 OA
HETATM   13  O   UNK N   1      33.728  11.450   9.542  0.00  0.00    -0.398 OA
HETATM   14  O   UNK N   1      35.005  19.397   8.377  0.00  0.00    -0.398 OA
HETATM   15  C   UNK N   1      35.240  13.266  12.036  0.00  0.00    -0.029 A 
HETATM   16  C   UNK N   1      35.035  13.685  11.357  0.00  0.00    -0.030 A 
HETATM   17  C   UNK N   1      35.963  14.227  13.180  0.00  0.00     0.005 A 
HETATM   18  C   UNK N   1      36.182  13.801  13.892  0.00  0.00    -0.033 A 
HETATM   19  C   UNK N   1      35.435  14.479  11.857  0.00  0.00     0.030 A 
HETATM   20  C   UNK N   1      35.902  12.372  13.987  0.00  0.00     0.033 A 
HETATM   21  C   UNK N   1      35.309  12.410  12.626  0.00  0.00     0.042 A 
HETATM   22  C   UNK N   1      35.883  15.048  12.580  0.00  0.00     0.038 A 
HETATM   23  C   UNK N   1      35.287  15.330  11.090  0.00  0.00     0.027 A 
HETATM   24  C   UNK N   1      35.800  14.867  12.486  0.00  0.00     0.123 A 
HETATM   25  C   UNK N   1      34.790  14.044  10.620  0.00  0.00     0.011 A 
HETATM   26  C   UNK N   1      35.397  12.569  12.746  0.00  0.00     0.131 A 
HETATM   27  C   UNK N   1      36.123  11.910  14.722  0.00  0.00    -0.015 A 
HETATM   28  C   UNK N   1      34.850  14.104  10.726  0.00  0.00     0.009 A 
HETATM   29  C   UNK N   1      36.578  14.239  14.565  0.00  0.00     0.012 A 
HETATM   30  C   UNK N   1      35.146  12.644  12.139  0.00  0.00     0.016 A 
HETATM   31  C   UNK N   1      34.887  13.520  11.109  0.00  0.00     0.016 A 
HETATM   32  C   UNK N   1      36.223  14.021  13.873  0.00  0.00     0.016 A 
HETATM   33  C   UNK N   1      36.519  12.332  15.405  0.00  0.00     0.126 A 
HETATM   34  C   UNK N   1      35.337  16.104  10.807  0.00  0.00     0.065 A 
HETATM   35  C   UNK N   1      36.807  13.796  15.308  0.00  0.00     0.033 A 
HETATM   36  C   UNK N   1      35.907  11.214  14.591  0.00  0.00     0.018 A 
HETATM   37  C   UNK N   1      35.818  11.222  14.384  0.00  0.00     0.018 A 
HETATM   38  C   UNK N   1      34.974  15.870  10.105  0.00  0.00     0.042 A 
HETATM   39  C   UNK N   1      35.460  16.351  10.960  0.00  0.00     0.046 A 
HETATM   40  C   UNK N   1      34.993  10.775  12.747  0.00  0.00     0.292 A 
HETATM   41  C   UNK N   1      34.632  14.497  10.033  0.00  0.00     0.030 A 
HETATM   42  C   UNK N   1      34.856  17.076   9.225  0.00  0.00     0.292 A 
HETATM   43  C   UNK N   1      34.832   9.967  12.794  0.00  0.00     0.204 A 
HETATM   44  C   UNK N   1      34.466   9.582  12.163  0.00  0.00     0.183 A 
HETATM   45  C   UNK N   1      34.517  16.487   8.757  0.00  0.00     0.204 A 
HETATM   46  C   UNK N   1      34.299  11.414  10.852  0.00  0.00     0.179 A 
HETATM   47  C   UNK N   1      34.029  14.277   8.781  0.00  0.00    -0.025 A 
HETATM   48  C   UNK N   1      34.021  10.018  10.935  0.00  0.00     0.180 A 
HETATM   49  C   UNK N   1      34.110  16.084   8.044  0.00  0.00     0.183 A 
HETATM   50  C   UNK N   1      34.616  18.034   8.192  0.00  0.00     0.179 A 
HETATM   51  C   UNK N   1      34.276  17.445   7.724  0.00  0.00     0.180 A 
HETATM   52  C   UNK N   1      34.094  11.836  10.174  0.00  0.00     0.198 A 
HETATM   53  C   UNK N   1      33.804  13.490   8.674  0.00  0.00    -0.091 A 
HETATM   54  C   UNK N   1      34.905  18.794   8.460  0.00  0.00     0.198 A 
HETATM   55  C   UNK N   1      33.441  13.256   7.972  0.00  0.00     0.042 A 
HETATM   56  C   UNK N   1      33.943  12.936   9.270  0.00  0.00     0.042 A 
HETATM   57  H   UNK N   1      35.718  16.169  11.637  0.00  0.00     0.210 HD
HETATM   58  H   UNK N   1      37.126  13.412  16.224  0.00  0.00     0.210 HD
HETATM   59  H   UNK N   1      35.467   9.998  14.215  0.00  0.00     0.210 HD
HETATM   60  H   UNK N   1      34.049   7.910  12.074  0.00  0.00     0.210 HD
HETATM   61  H   UNK N   1      34.654  14.788   9.934  0.00  0.00     0.210 HD
HETATM   62  H   UNK N   1      34.031   8.923  11.515  0.00  0.00     0.210 HD
HETATM   63  H   UNK N   1      33.713  14.586   7.908  0.00  0.00     0.210 HD
HETATM   64  H   UNK N   1      33.669  16.094   7.040  0.00  0.00     0.210 HD
HETATM   65  H   UNK N   1      33.539  10.501   9.598  0.00  0.00     0.209 HD
HETATM   66  H   UNK N   1      34.735  19.824   7.549  0.00  0.00     0.209 HD
ENDROOT
TORSDOF 8
ENDMDL
MODEL 8
REMARK VINA RESULT:     -16.8      0.976      5.786
REMARK  8 active torsions:
REMARK  status: ('A' for Active; 'I' for Inactive)
REMARK    1  A    between atoms: O_5  and  C_40 
REMARK    2  A    between atoms: C_20  and  C_18 
REMARK    3  A    between atoms: C_24  and  C_22 
REMARK    4  A    between atoms: C_23  and  C_34 
REMARK    5  A    between atoms: C_25  and  C_28 
REMARK    6  A    between atoms: C_42  and  C_45 
REMARK    7  A    between atoms: C_43  and  C_44 
REMARK    8  A    between atoms: C_50  and  C_51 
ROOT
HETATM    1  O   UNK N   1      26.196  24.665  -7.006  0.00  0.00    -0.353 OA
HETATM    2  O   UNK N   1      28.999  24.546  -3.365  0.00  0.00    -0.395 OA
HETATM    3  O   UNK N   1      30.643  22.913  -3.123  0.00  0.00    -0.348 OA
HETATM    4  O   UNK N   1      25.368  27.588  -4.582  0.00  0.00    -0.395 OA
HETATM    5  O   UNK N   1      26.867  23.506  -7.505  0.00  0.00    -0.348 OA
HETATM    6  O   UNK N   1      31.710  22.048  -2.732  0.00  0.00    -0.348 OA
HETATM    7  O   UNK N   1      24.934  25.153  -8.121  0.00  0.00    -0.388 OA
HETATM    8  O   UNK N   1      25.393  23.508  -9.494  0.00  0.00    -0.390 OA
HETATM    9  O   UNK N   1      30.347  21.540  -5.188  0.00  0.00    -0.388 OA
HETATM   10  O   UNK N   1      26.276  22.834  -9.118  0.00  0.00    -0.390 OA
HETATM   11  O   UNK N   1      31.304  20.229  -5.483  0.00  0.00    -0.390 OA
HETATM   12  O   UNK N   1      32.480  19.807  -4.406  0.00  0.00    -0.390 OA
HETATM   13  O   UNK N   1      27.987  21.765  -8.103  0.00  0.00    -0.398 OA
HETATM   14  O   UNK N   1      33.167  21.139  -1.865  0.00  0.00    -0.398 OA
HETATM   15  C   UNK N   1      27.801  24.069  -5.561  0.00  0.00    -0.029 A 
HETATM   16  C   UNK N   1      28.381  23.489  -5.482  0.00  0.00    -0.030 A 
HETATM   17  C   UNK N   1      27.791  25.132  -4.287  0.00  0.00     0.005 A 
HETATM   18  C   UNK N   1      27.191  25.742  -4.358  0.00  0.00    -0.033 A 
HETATM   19  C   UNK N   1      28.593  23.972  -4.609  0.00  0.00     0.030 A 
HETATM   20  C   UNK N   1      26.316  25.753  -5.526  0.00  0.00     0.033 A 
HETATM   21  C   UNK N   1      27.013  24.549  -6.044  0.00  0.00     0.042 A 
HETATM   22  C   UNK N   1      28.564  24.642  -3.836  0.00  0.00     0.038 A 
HETATM   23  C   UNK N   1      29.466  23.335  -4.201  0.00  0.00     0.027 A 
HETATM   24  C   UNK N   1      28.505  24.550  -4.027  0.00  0.00     0.123 A 
HETATM   25  C   UNK N   1      28.954  22.854  -5.477  0.00  0.00     0.011 A 
HETATM   26  C   UNK N   1      27.046  24.662  -5.862  0.00  0.00     0.131 A 
HETATM   27  C   UNK N   1      25.684  26.381  -5.618  0.00  0.00    -0.015 A 
HETATM   28  C   UNK N   1      28.937  22.950  -5.383  0.00  0.00     0.009 A 
HETATM   29  C   UNK N   1      27.111  26.361  -3.716  0.00  0.00     0.012 A 
HETATM   30  C   UNK N   1      27.390  24.128  -6.044  0.00  0.00     0.016 A 
HETATM   31  C   UNK N   1      28.408  23.260  -5.722  0.00  0.00     0.016 A 
HETATM   32  C   UNK N   1      27.328  25.736  -4.180  0.00  0.00     0.016 A 
HETATM   33  C   UNK N   1      25.590  27.008  -4.986  0.00  0.00     0.126 A 
HETATM   34  C   UNK N   1      30.055  23.125  -3.662  0.00  0.00     0.065 A 
HETATM   35  C   UNK N   1      26.486  26.996  -3.790  0.00  0.00     0.033 A 
HETATM   36  C   UNK N   1      25.346  26.229  -6.260  0.00  0.00     0.018 A 
HETATM   37  C   UNK N   1      25.453  26.046  -6.337  0.00  0.00     0.018 A 
HETATM   38  C   UNK N   1      30.268  22.490  -4.143  0.00  0.00     0.042 A 
HETATM   39  C   UNK N   1      30.122  23.273  -3.391  0.00  0.00     0.046 A 
HETATM   40  C   UNK N   1      26.006  24.572  -7.376  0.00  0.00     0.292 A 
HETATM   41  C   UNK N   1      29.507  22.357  -5.332  0.00  0.00     0.030 A 
HETATM   42  C   UNK N   1      31.402  21.772  -3.482  0.00  0.00     0.292 A 
HETATM   43  C   UNK N   1      25.515  24.573  -8.039  0.00  0.00     0.204 A 
HETATM   44  C   UNK N   1      25.604  23.994  -8.620  0.00  0.00     0.183 A 
HETATM   45  C   UNK N   1      31.293  21.327  -4.168  0.00  0.00     0.204 A 
HETATM   46  C   UNK N   1      27.316  22.925  -7.604  0.00  0.00     0.179 A 
HETATM   47  C   UNK N   1      30.001  21.235  -6.024  0.00  0.00    -0.025 A 
HETATM   48  C   UNK N   1      26.466  22.927  -8.748  0.00  0.00     0.180 A 
HETATM   49  C   UNK N   1      31.413  20.674  -4.797  0.00  0.00     0.183 A 
HETATM   50  C   UNK N   1      32.469  20.905  -3.091  0.00  0.00     0.179 A 
HETATM   51  C   UNK N   1      32.360  20.460  -3.777  0.00  0.00     0.180 A 
HETATM   52  C   UNK N   1      27.897  22.345  -7.522  0.00  0.00     0.198 A 
HETATM   53  C   UNK N   1      29.598  21.100  -6.732  0.00  0.00    -0.091 A 
HETATM   54  C   UNK N   1      32.777  21.181  -2.341  0.00  0.00     0.198 A 
HETATM   55  C   UNK N   1      29.812  20.465  -7.213  0.00  0.00     0.042 A 
HETATM   56  C   UNK N   1      28.982  21.600  -6.958  0.00  0.00     0.042 A 
HETATM   57  H   UNK N   1      29.681  23.863  -3.271  0.00  0.00     0.210 HD
HETATM   58  H   UNK N   1      25.809  27.789  -3.742  0.00  0.00     0.210 HD
HETATM   59  H   UNK N   1      24.828  25.834  -7.438  0.00  0.00     0.210 HD
HETATM   60  H   UNK N   1      24.681  23.829 -10.067  0.00  0.00     0.210 HD
HETATM   61  H   UNK N   1      29.726  22.283  -5.126  0.00  0.00     0.210 HD
HETATM   62  H   UNK N   1      25.544  23.385  -9.438  0.00  0.00     0.210 HD
HETATM   63  H   UNK N   1      30.613  20.477  -6.117  0.00  0.00     0.210 HD
HETATM   64  H   UNK N   1      31.917  19.784  -5.195  0.00  0.00     0.210 HD
HETATM   65  H   UNK N   1      27.409  21.766  -8.882  0.00  0.00     0.209 HD
HETATM   66  H   UNK N   1      33.825  20.427  -1.840  0.00  0.00     0.209 HD
ENDROOT
TORSDOF 8
ENDMDL
MODEL 9
REMARK VINA RESULT:     -16.8     15.687     19.733
REMARK  8 active torsions:
REMARK  status: ('A' for Active; 'I' for Inactive)
REMARK    1  A    between atoms: O_5  and  C_40 
REMARK    2  A    between atoms: C_20  and  C_18 
REMARK    3  A    between atoms: C_24  and  C_22 
REMARK    4  A    between atoms: C_23  and  C_34 
REMARK    5  A    between atoms: C_25  and  C_28 
REMARK    6  A    between atoms: C_42  and  C_45 
REMARK    7  A    between atoms: C_43  and  C_44 
REMARK    8  A    between atoms: C_50  and  C_51 
ROOT
HETATM    1  O   UNK N   1      33.567  14.461   7.431  0.00  0.00    -0.353 OA
HETATM    2  O   UNK N   1      35.483  16.590  11.026  0.00  0.00    -0.395 OA
HETATM    3  O   UNK N   1      36.146  15.435  12.938  0.00  0.00    -0.348 OA
HETATM    4  O   UNK N   1      33.852  18.274   6.735  0.00  0.00    -0.395 OA
HETATM    5  O   UNK N   1      33.692  13.232   8.149  0.00  0.00    -0.348 OA
HETATM    6  O   UNK N   1      36.634  14.983  14.202  0.00  0.00    -0.348 OA
HETATM    7  O   UNK N   1      32.831  14.169   5.867  0.00  0.00    -0.388 OA
HETATM    8  O   UNK N   1      32.666  12.018   6.251  0.00  0.00    -0.390 OA
HETATM    9  O   UNK N   1      35.535  13.077  12.383  0.00  0.00    -0.388 OA
HETATM   10  O   UNK N   1      33.082  11.711   7.303  0.00  0.00    -0.390 OA
HETATM   11  O   UNK N   1      35.815  11.852  13.450  0.00  0.00    -0.390 OA
HETATM   12  O   UNK N   1      36.509  12.173  14.912  0.00  0.00    -0.390 OA
HETATM   13  O   UNK N   1      33.958  11.477   9.371  0.00  0.00    -0.398 OA
HETATM   14  O   UNK N   1      37.380  14.787  15.964  0.00  0.00    -0.398 OA
HETATM   15  C   UNK N   1      34.508  14.868   9.423  0.00  0.00    -0.029 A 
HETATM   16  C   UNK N   1      34.741  14.453  10.097  0.00  0.00    -0.030 A 
HETATM   17  C   UNK N   1      34.815  16.494   9.545  0.00  0.00     0.005 A 
HETATM   18  C   UNK N   1      34.577  16.938   8.849  0.00  0.00    -0.033 A 
HETATM   19  C   UNK N   1      35.031  15.372  10.431  0.00  0.00     0.030 A 
HETATM   20  C   UNK N   1      33.971  16.233   7.724  0.00  0.00     0.033 A 
HETATM   21  C   UNK N   1      34.101  14.956   8.469  0.00  0.00     0.042 A 
HETATM   22  C   UNK N   1      35.209  16.379  10.479  0.00  0.00     0.038 A 
HETATM   23  C   UNK N   1      35.451  15.113  11.475  0.00  0.00     0.027 A 
HETATM   24  C   UNK N   1      35.141  16.188  10.391  0.00  0.00     0.123 A 
HETATM   25  C   UNK N   1      34.953  13.950  10.755  0.00  0.00     0.011 A 
HETATM   26  C   UNK N   1      34.157  15.157   8.525  0.00  0.00     0.131 A 
HETATM   27  C   UNK N   1      33.716  16.678   6.989  0.00  0.00    -0.015 A 
HETATM   28  C   UNK N   1      34.969  14.084  10.745  0.00  0.00     0.009 A 
HETATM   29  C   UNK N   1      34.704  17.823   8.824  0.00  0.00     0.012 A 
HETATM   30  C   UNK N   1      34.240  14.620   8.902  0.00  0.00     0.016 A 
HETATM   31  C   UNK N   1      34.692  14.124  10.103  0.00  0.00     0.016 A 
HETATM   32  C   UNK N   1      34.671  17.042   9.025  0.00  0.00     0.016 A 
HETATM   33  C   UNK N   1      33.835  17.564   6.946  0.00  0.00     0.126 A 
HETATM   34  C   UNK N   1      35.799  15.274  12.207  0.00  0.00     0.065 A 
HETATM   35  C   UNK N   1      34.456  18.286   8.099  0.00  0.00     0.033 A 
HETATM   36  C   UNK N   1      33.436  16.165   6.534  0.00  0.00     0.018 A 
HETATM   37  C   UNK N   1      33.456  15.972   6.649  0.00  0.00     0.018 A 
HETATM   38  C   UNK N   1      35.760  14.474  12.401  0.00  0.00     0.042 A 
HETATM   39  C   UNK N   1      35.889  15.558  12.312  0.00  0.00     0.046 A 
HETATM   40  C   UNK N   1      33.407  14.161   7.175  0.00  0.00     0.292 A 
HETATM   41  C   UNK N   1      35.191  13.641  11.404  0.00  0.00     0.030 A 
HETATM   42  C   UNK N   1      36.338  14.304  13.771  0.00  0.00     0.292 A 
HETATM   43  C   UNK N   1      33.065  13.757   6.542  0.00  0.00     0.204 A 
HETATM   44  C   UNK N   1      32.956  12.940   6.584  0.00  0.00     0.183 A 
HETATM   45  C   UNK N   1      36.131  13.530  13.574  0.00  0.00     0.204 A 
HETATM   46  C   UNK N   1      33.833  12.707   8.653  0.00  0.00     0.179 A 
HETATM   47  C   UNK N   1      35.204  12.323  11.899  0.00  0.00    -0.025 A 
HETATM   48  C   UNK N   1      33.242  12.010   7.560  0.00  0.00     0.180 A 
HETATM   49  C   UNK N   1      36.022  12.625  13.647  0.00  0.00     0.183 A 
HETATM   50  C   UNK N   1      36.825  13.852  15.036  0.00  0.00     0.179 A 
HETATM   51  C   UNK N   1      36.618  13.078  14.839  0.00  0.00     0.180 A 
HETATM   52  C   UNK N   1      34.066  12.295   9.328  0.00  0.00     0.198 A 
HETATM   53  C   UNK N   1      34.884  11.784  11.363  0.00  0.00    -0.091 A 
HETATM   54  C   UNK N   1      37.121  14.530  15.467  0.00  0.00     0.198 A 
HETATM   55  C   UNK N   1      34.845  10.983  11.557  0.00  0.00     0.042 A 
HETATM   56  C   UNK N   1      34.602  12.045  10.632  0.00  0.00     0.042 A 
HETATM   57  H   UNK N   1      35.757  16.102  11.819  0.00  0.00     0.210 HD
HETATM   58  H   UNK N   1      34.219  18.948   7.328  0.00  0.00     0.210 HD
HETATM   59  H   UNK N   1      32.959  15.130   5.817  0.00  0.00     0.210 HD
HETATM   60  H   UNK N   1      32.264  11.924   5.373  0.00  0.00     0.210 HD
HETATM   61  H   UNK N   1      35.322  13.709  11.677  0.00  0.00     0.210 HD
HETATM   62  H   UNK N   1      32.735  11.955   6.430  0.00  0.00     0.210 HD
HETATM   63  H   UNK N   1      35.406  11.662  12.591  0.00  0.00     0.210 HD
HETATM   64  H   UNK N   1      36.110  11.672  14.183  0.00  0.00     0.210 HD
HETATM   65  H   UNK N   1      33.556  11.002   8.627  0.00  0.00     0.209 HD
HETATM   66  H   UNK N   1      37.628  14.234  16.722  0.00  0.00     0.209 HD
ENDROOT
TORSDOF 8
ENDMDL
