MODEL 1
REMARK VINA RESULT:      -7.5      0.000      0.000
REMARK  4 active torsions:
REMARK  status: ('A' for Active; 'I' for Inactive)
REMARK    1  A    between atoms: C_4  and  O_20 
REMARK    2  A    between atoms: C_13  and  O_26 
REMARK    3  A    between atoms: C_15  and  O_21 
REMARK    4  A    between atoms: C_17  and  C_27 
ROOT
HETATM    1  C   UNK N   1      26.382  26.376  -7.562  0.00  0.00     0.266 C 
HETATM    2  O   UNK N   1      27.644  26.669  -7.866  0.00  0.00    -0.310 OA
HETATM    3  C   UNK N   1      28.469  26.690  -6.764  0.00  0.00     0.200 C 
HETATM    4  C   UNK N   1      27.549  26.491  -5.535  0.00  0.00     0.141 C 
HETATM    5  C   UNK N   1      26.160  26.106  -6.134  0.00  0.00     0.122 C 
HETATM    6  C   UNK N   1      28.876  24.487  -5.665  0.00  0.00     0.074 C 
HETATM    7  C   UNK N   1      28.217  25.366  -4.700  0.00  0.00     0.199 C 
HETATM    8  C   UNK N   1      29.953  23.728  -4.849  0.00  0.00     0.066 C 
HETATM    9  C   UNK N   1      30.446  25.001  -4.091  0.00  0.00     0.284 C 
HETATM   10  O   UNK N   1      29.290  25.836  -3.889  0.00  0.00    -0.334 OA
HETATM   11  O   UNK N   1      30.777  24.581  -2.831  0.00  0.00    -0.287 OA
HETATM   12  C   UNK N   1      30.143  23.461  -2.504  0.00  0.00     0.291 C 
HETATM   13  C   UNK N   1      29.544  22.768  -3.648  0.00  0.00     0.232 C 
HETATM   14  O   UNK N   1      25.518  26.256  -8.415  0.00  0.00    -0.265 OA
HETATM   15  C   UNK N   1      29.407  25.482  -6.744  0.00  0.00     0.166 C 
HETATM   16  C   UNK N   1      27.920  23.423  -6.136  0.00  0.00     0.148 C 
HETATM   17  C   UNK N   1      30.316  22.899  -6.090  0.00  0.00     0.013 C 
HETATM   18  C   UNK N   1      28.933  22.295  -6.480  0.00  0.00     0.040 C 
HETATM   19  O   UNK N   1      30.064  23.060  -1.355  0.00  0.00    -0.262 OA
HETATM   20  C   UNK N   1      25.008  26.930  -5.573  0.00  0.00     0.024 C 
HETATM   21  C   UNK N   1      27.258  24.343  -4.169  0.00  0.00     0.298 C 
HETATM   22  O   UNK N   1      27.153  23.256  -4.983  0.00  0.00    -0.312 OA
HETATM   23  O   UNK N   1      26.565  24.496  -3.170  0.00  0.00    -0.262 OA
ENDROOT
BRANCH  17  24
HETATM   24  C   UNK N   1      31.578  22.054  -6.368  0.00  0.00    -0.047 C 
HETATM   25  C   UNK N   1      32.694  22.454  -5.425  0.00  0.00     0.015 C 
HETATM   26  C   UNK N   1      32.035  22.360  -7.782  0.00  0.00     0.015 C 
HETATM   27  C   UNK N   1      31.360  20.556  -6.291  0.00  0.00     0.015 C 
ENDBRANCH  17  24
BRANCH  13  28
HETATM   28  O   UNK N   1      30.154  21.517  -3.703  0.00  0.00    -0.385 OA
HETATM   29  H   UNK N   1      31.091  21.314  -3.560  0.00  0.00     0.210 HD
ENDBRANCH  13  28
BRANCH  15  30
HETATM   30  O   UNK N   1      29.631  24.915  -8.004  0.00  0.00    -0.392 OA
HETATM   31  H   UNK N   1      29.183  25.226  -8.807  0.00  0.00     0.210 HD
ENDBRANCH  15  30
BRANCH   4  32
HETATM   32  O   UNK N   1      27.473  27.681  -4.804  0.00  0.00    -0.382 OA
HETATM   33  H   UNK N   1      28.068  28.222  -4.261  0.00  0.00     0.210 HD
ENDBRANCH   4  32
TORSDOF 4
ENDMDL
MODEL 2
REMARK VINA RESULT:      -7.4     13.979     17.113
REMARK  4 active torsions:
REMARK  status: ('A' for Active; 'I' for Inactive)
REMARK    1  A    between atoms: C_4  and  O_20 
REMARK    2  A    between atoms: C_13  and  O_26 
REMARK    3  A    between atoms: C_15  and  O_21 
REMARK    4  A    between atoms: C_17  and  C_27 
ROOT
HETATM    1  C   UNK N   1      31.618  17.138   5.716  0.00  0.00     0.266 C 
HETATM    2  O   UNK N   1      32.874  17.563   5.601  0.00  0.00    -0.310 OA
HETATM    3  C   UNK N   1      33.518  17.662   6.814  0.00  0.00     0.200 C 
HETATM    4  C   UNK N   1      32.450  17.362   7.894  0.00  0.00     0.141 C 
HETATM    5  C   UNK N   1      31.214  16.839   7.097  0.00  0.00     0.122 C 
HETATM    6  C   UNK N   1      33.982  15.508   7.984  0.00  0.00     0.074 C 
HETATM    7  C   UNK N   1      33.097  16.308   8.830  0.00  0.00     0.199 C 
HETATM    8  C   UNK N   1      34.997  14.860   8.960  0.00  0.00     0.066 C 
HETATM    9  C   UNK N   1      35.236  16.173   9.770  0.00  0.00     0.284 C 
HETATM   10  O   UNK N   1      33.982  16.882   9.789  0.00  0.00    -0.334 OA
HETATM   11  O   UNK N   1      35.415  15.782  11.070  0.00  0.00    -0.287 OA
HETATM   12  C   UNK N   1      34.859  14.601  11.309  0.00  0.00     0.291 C 
HETATM   13  C   UNK N   1      34.514  13.856  10.095  0.00  0.00     0.232 C 
HETATM   14  O   UNK N   1      30.909  16.934   4.744  0.00  0.00    -0.265 OA
HETATM   15  C   UNK N   1      34.562  16.559   6.986  0.00  0.00     0.166 C 
HETATM   16  C   UNK N   1      33.223  14.353   7.385  0.00  0.00     0.148 C 
HETATM   17  C   UNK N   1      35.626  14.081   7.795  0.00  0.00     0.013 C 
HETATM   18  C   UNK N   1      34.388  13.339   7.208  0.00  0.00     0.040 C 
HETATM   19  O   UNK N   1      34.651  14.188  12.437  0.00  0.00    -0.262 OA
HETATM   20  C   UNK N   1      29.911  17.535   7.471  0.00  0.00     0.024 C 
HETATM   21  C   UNK N   1      32.182  15.187   9.222  0.00  0.00     0.298 C 
HETATM   22  O   UNK N   1      32.312  14.100   8.412  0.00  0.00    -0.312 OA
HETATM   23  O   UNK N   1      31.334  15.262  10.104  0.00  0.00    -0.262 OA
ENDROOT
BRANCH  17  24
HETATM   24  C   UNK N   1      36.996  13.374   7.718  0.00  0.00    -0.047 C 
HETATM   25  C   UNK N   1      37.878  13.813   8.869  0.00  0.00     0.015 C 
HETATM   26  C   UNK N   1      37.667  13.809   6.428  0.00  0.00     0.015 C 
HETATM   27  C   UNK N   1      36.920  11.860   7.684  0.00  0.00     0.015 C 
ENDBRANCH  17  24
BRANCH  13  28
HETATM   28  O   UNK N   1      35.252  12.675  10.145  0.00  0.00    -0.385 OA
HETATM   29  H   UNK N   1      36.217  12.588  10.178  0.00  0.00     0.210 HD
ENDBRANCH  13  28
BRANCH  15  30
HETATM   30  O   UNK N   1      35.030  16.025   5.780  0.00  0.00    -0.392 OA
HETATM   31  H   UNK N   1      35.968  15.836   5.618  0.00  0.00     0.210 HD
ENDBRANCH  15  30
BRANCH   4  32
HETATM   32  O   UNK N   1      32.141  18.534   8.593  0.00  0.00    -0.382 OA
HETATM   33  H   UNK N   1      32.126  18.826   9.518  0.00  0.00     0.210 HD
ENDBRANCH   4  32
TORSDOF 4
ENDMDL
MODEL 3
REMARK VINA RESULT:      -7.2     15.076     19.050
REMARK  4 active torsions:
REMARK  status: ('A' for Active; 'I' for Inactive)
REMARK    1  A    between atoms: C_4  and  O_20 
REMARK    2  A    between atoms: C_13  and  O_26 
REMARK    3  A    between atoms: C_15  and  O_21 
REMARK    4  A    between atoms: C_17  and  C_27 
ROOT
HETATM    1  C   UNK N   1      35.703  14.130  12.524  0.00  0.00     0.266 C 
HETATM    2  O   UNK N   1      35.992  15.346  12.067  0.00  0.00    -0.310 OA
HETATM    3  C   UNK N   1      36.401  15.340  10.752  0.00  0.00     0.200 C 
HETATM    4  C   UNK N   1      36.500  13.852  10.340  0.00  0.00     0.141 C 
HETATM    5  C   UNK N   1      35.848  13.066  11.520  0.00  0.00     0.122 C 
HETATM    6  C   UNK N   1      34.657  14.740   9.071  0.00  0.00     0.074 C 
HETATM    7  C   UNK N   1      35.727  13.745   8.999  0.00  0.00     0.199 C 
HETATM    8  C   UNK N   1      34.260  15.013   7.598  0.00  0.00     0.066 C 
HETATM    9  C   UNK N   1      35.733  15.100   7.092  0.00  0.00     0.284 C 
HETATM   10  O   UNK N   1      36.497  14.163   7.876  0.00  0.00    -0.334 OA
HETATM   11  O   UNK N   1      35.729  14.556   5.835  0.00  0.00    -0.287 OA
HETATM   12  C   UNK N   1      34.709  13.725   5.663  0.00  0.00     0.291 C 
HETATM   13  C   UNK N   1      33.665  13.854   6.683  0.00  0.00     0.232 C 
HETATM   14  O   UNK N   1      35.270  13.943  13.650  0.00  0.00    -0.265 OA
HETATM   15  C   UNK N   1      35.331  15.927   9.831  0.00  0.00     0.166 C 
HETATM   16  C   UNK N   1      33.430  14.140   9.703  0.00  0.00     0.148 C 
HETATM   17  C   UNK N   1      33.134  15.946   8.070  0.00  0.00     0.013 C 
HETATM   18  C   UNK N   1      32.335  15.013   9.030  0.00  0.00     0.040 C 
HETATM   19  O   UNK N   1      34.658  12.925   4.743  0.00  0.00    -0.262 OA
HETATM   20  C   UNK N   1      36.706  11.915  12.032  0.00  0.00     0.024 C 
HETATM   21  C   UNK N   1      34.831  12.546   8.898  0.00  0.00     0.298 C 
HETATM   22  O   UNK N   1      33.549  12.821   9.264  0.00  0.00    -0.312 OA
HETATM   23  O   UNK N   1      35.216  11.417   8.618  0.00  0.00    -0.262 OA
ENDROOT
BRANCH  17  24
HETATM   24  C   UNK N   1      32.348  17.010   7.275  0.00  0.00    -0.047 C 
HETATM   25  C   UNK N   1      33.129  17.430   6.047  0.00  0.00     0.015 C 
HETATM   26  C   UNK N   1      32.194  18.229   8.165  0.00  0.00     0.015 C 
HETATM   27  C   UNK N   1      30.951  16.584   6.868  0.00  0.00     0.015 C 
ENDBRANCH  17  24
BRANCH  13  28
HETATM   28  O   UNK N   1      32.505  14.221   6.004  0.00  0.00    -0.385 OA
HETATM   29  H   UNK N   1      31.679  13.718   5.941  0.00  0.00     0.210 HD
ENDBRANCH  13  28
BRANCH  15  30
HETATM   30  O   UNK N   1      34.438  16.791  10.474  0.00  0.00    -0.392 OA
HETATM   31  H   UNK N   1      33.790  17.331   9.993  0.00  0.00     0.210 HD
ENDBRANCH  15  30
BRANCH   4  32
HETATM   32  O   UNK N   1      37.842  13.494  10.175  0.00  0.00    -0.382 OA
HETATM   33  H   UNK N   1      38.540  13.637   9.517  0.00  0.00     0.210 HD
ENDBRANCH   4  32
TORSDOF 4
ENDMDL
MODEL 4
REMARK VINA RESULT:      -7.1     15.284     18.776
REMARK  4 active torsions:
REMARK  status: ('A' for Active; 'I' for Inactive)
REMARK    1  A    between atoms: C_4  and  O_20 
REMARK    2  A    between atoms: C_13  and  O_26 
REMARK    3  A    between atoms: C_15  and  O_21 
REMARK    4  A    between atoms: C_17  and  C_27 
ROOT
HETATM    1  C   UNK N   1      34.290  17.887   7.983  0.00  0.00     0.266 C 
HETATM    2  O   UNK N   1      33.647  17.587   9.108  0.00  0.00    -0.310 OA
HETATM    3  C   UNK N   1      33.000  16.374   9.047  0.00  0.00     0.200 C 
HETATM    4  C   UNK N   1      33.163  15.872   7.592  0.00  0.00     0.141 C 
HETATM    5  C   UNK N   1      34.197  16.848   6.947  0.00  0.00     0.122 C 
HETATM    6  C   UNK N   1      34.466  14.358   8.934  0.00  0.00     0.074 C 
HETATM    7  C   UNK N   1      33.660  14.408   7.714  0.00  0.00     0.199 C 
HETATM    8  C   UNK N   1      34.493  12.863   9.339  0.00  0.00     0.066 C 
HETATM    9  C   UNK N   1      32.968  12.645   9.089  0.00  0.00     0.284 C 
HETATM   10  O   UNK N   1      32.608  13.481   7.972  0.00  0.00    -0.334 OA
HETATM   11  O   UNK N   1      32.848  11.371   8.601  0.00  0.00    -0.287 OA
HETATM   12  C   UNK N   1      33.976  10.950   8.043  0.00  0.00     0.291 C 
HETATM   13  C   UNK N   1      35.143  11.767   8.385  0.00  0.00     0.232 C 
HETATM   14  O   UNK N   1      34.968  18.896   7.869  0.00  0.00    -0.265 OA
HETATM   15  C   UNK N   1      33.704  15.318   9.900  0.00  0.00     0.166 C 
HETATM   16  C   UNK N   1      35.899  14.705   8.623  0.00  0.00     0.148 C 
HETATM   17  C   UNK N   1      35.447  13.189  10.499  0.00  0.00     0.013 C 
HETATM   18  C   UNK N   1      36.611  13.910   9.754  0.00  0.00     0.040 C 
HETATM   19  O   UNK N   1      34.025   9.978   7.308  0.00  0.00    -0.262 OA
HETATM   20  C   UNK N   1      33.741  17.419   5.609  0.00  0.00     0.024 C 
HETATM   21  C   UNK N   1      34.766  14.051   6.768  0.00  0.00     0.298 C 
HETATM   22  O   UNK N   1      35.999  14.195   7.329  0.00  0.00    -0.312 OA
HETATM   23  O   UNK N   1      34.602  13.760   5.589  0.00  0.00    -0.262 OA
ENDROOT
BRANCH  17  24
HETATM   24  C   UNK N   1      35.797  12.348  11.744  0.00  0.00    -0.047 C 
HETATM   25  C   UNK N   1      34.794  11.226  11.918  0.00  0.00     0.015 C 
HETATM   26  C   UNK N   1      35.693  13.255  12.957  0.00  0.00     0.015 C 
HETATM   27  C   UNK N   1      37.201  11.777  11.742  0.00  0.00     0.015 C 
ENDBRANCH  17  24
BRANCH  13  28
HETATM   28  O   UNK N   1      36.032  10.917   9.040  0.00  0.00    -0.385 OA
HETATM   29  H   UNK N   1      36.606  11.133   9.790  0.00  0.00     0.210 HD
ENDBRANCH  13  28
BRANCH  15  30
HETATM   30  O   UNK N   1      34.485  15.851  10.932  0.00  0.00    -0.392 OA
HETATM   31  H   UNK N   1      34.105  16.336  11.682  0.00  0.00     0.210 HD
ENDBRANCH  15  30
BRANCH   4  32
HETATM   32  O   UNK N   1      31.931  15.931   6.930  0.00  0.00    -0.382 OA
HETATM   33  H   UNK N   1      31.614  16.136   6.036  0.00  0.00     0.210 HD
ENDBRANCH   4  32
TORSDOF 4
ENDMDL
MODEL 5
REMARK VINA RESULT:      -7.1     13.141     15.556
REMARK  4 active torsions:
REMARK  status: ('A' for Active; 'I' for Inactive)
REMARK    1  A    between atoms: C_4  and  O_20 
REMARK    2  A    between atoms: C_13  and  O_26 
REMARK    3  A    between atoms: C_15  and  O_21 
REMARK    4  A    between atoms: C_17  and  C_27 
ROOT
HETATM    1  C   UNK N   1      28.524  15.329   5.715  0.00  0.00     0.266 C 
HETATM    2  O   UNK N   1      29.450  14.780   4.934  0.00  0.00    -0.310 OA
HETATM    3  C   UNK N   1      30.577  15.561   4.810  0.00  0.00     0.200 C 
HETATM    4  C   UNK N   1      30.263  16.887   5.544  0.00  0.00     0.141 C 
HETATM    5  C   UNK N   1      28.922  16.620   6.295  0.00  0.00     0.122 C 
HETATM    6  C   UNK N   1      31.961  15.814   6.870  0.00  0.00     0.074 C 
HETATM    7  C   UNK N   1      31.477  17.137   6.477  0.00  0.00     0.199 C 
HETATM    8  C   UNK N   1      33.429  16.037   7.316  0.00  0.00     0.066 C 
HETATM    9  C   UNK N   1      33.781  16.959   6.107  0.00  0.00     0.284 C 
HETATM   10  O   UNK N   1      32.592  17.713   5.801  0.00  0.00    -0.334 OA
HETATM   11  O   UNK N   1      34.651  17.897   6.594  0.00  0.00    -0.287 OA
HETATM   12  C   UNK N   1      34.525  18.050   7.907  0.00  0.00     0.291 C 
HETATM   13  C   UNK N   1      33.774  16.973   8.556  0.00  0.00     0.232 C 
HETATM   14  O   UNK N   1      27.480  14.758   5.988  0.00  0.00    -0.265 OA
HETATM   15  C   UNK N   1      31.759  14.965   5.575  0.00  0.00     0.166 C 
HETATM   16  C   UNK N   1      31.243  15.344   8.108  0.00  0.00     0.148 C 
HETATM   17  C   UNK N   1      33.535  14.559   7.722  0.00  0.00     0.013 C 
HETATM   18  C   UNK N   1      32.336  14.417   8.709  0.00  0.00     0.040 C 
HETATM   19  O   UNK N   1      34.986  19.008   8.506  0.00  0.00    -0.262 OA
HETATM   20  C   UNK N   1      27.869  17.697   6.062  0.00  0.00     0.024 C 
HETATM   21  C   UNK N   1      31.110  17.597   7.856  0.00  0.00     0.298 C 
HETATM   22  O   UNK N   1      31.028  16.567   8.744  0.00  0.00    -0.312 OA
HETATM   23  O   UNK N   1      30.814  18.750   8.146  0.00  0.00    -0.262 OA
ENDROOT
BRANCH  17  24
HETATM   24  C   UNK N   1      34.793  13.705   7.985  0.00  0.00    -0.047 C 
HETATM   25  C   UNK N   1      34.672  12.365   7.288  0.00  0.00     0.015 C 
HETATM   26  C   UNK N   1      34.868  13.444   9.479  0.00  0.00     0.015 C 
HETATM   27  C   UNK N   1      36.097  14.368   7.590  0.00  0.00     0.015 C 
ENDBRANCH  17  24
BRANCH  13  28
HETATM   28  O   UNK N   1      34.650  16.388   9.468  0.00  0.00    -0.385 OA
HETATM   29  H   UNK N   1      35.465  16.770   9.827  0.00  0.00     0.210 HD
ENDBRANCH  13  28
BRANCH  15  30
HETATM   30  O   UNK N   1      31.660  13.585   5.789  0.00  0.00    -0.392 OA
HETATM   31  H   UNK N   1      30.830  13.151   6.043  0.00  0.00     0.210 HD
ENDBRANCH  15  30
BRANCH   4  32
HETATM   32  O   UNK N   1      30.124  17.922   4.613  0.00  0.00    -0.382 OA
HETATM   33  H   UNK N   1      30.672  18.345   3.933  0.00  0.00     0.210 HD
ENDBRANCH   4  32
TORSDOF 4
ENDMDL
MODEL 6
REMARK VINA RESULT:      -7.1      1.657      4.030
REMARK  4 active torsions:
REMARK  status: ('A' for Active; 'I' for Inactive)
REMARK    1  A    between atoms: C_4  and  O_20 
REMARK    2  A    between atoms: C_13  and  O_26 
REMARK    3  A    between atoms: C_15  and  O_21 
REMARK    4  A    between atoms: C_17  and  C_27 
ROOT
HETATM    1  C   UNK N   1      26.356  26.575  -3.360  0.00  0.00     0.266 C 
HETATM    2  O   UNK N   1      26.361  25.326  -2.902  0.00  0.00    -0.310 OA
HETATM    3  C   UNK N   1      26.441  24.388  -3.907  0.00  0.00     0.200 C 
HETATM    4  C   UNK N   1      26.352  25.175  -5.237  0.00  0.00     0.141 C 
HETATM    5  C   UNK N   1      26.472  26.675  -4.822  0.00  0.00     0.122 C 
HETATM    6  C   UNK N   1      28.598  24.312  -5.159  0.00  0.00     0.074 C 
HETATM    7  C   UNK N   1      27.533  24.657  -6.101  0.00  0.00     0.199 C 
HETATM    8  C   UNK N   1      29.510  23.323  -5.928  0.00  0.00     0.066 C 
HETATM    9  C   UNK N   1      28.323  22.493  -6.509  0.00  0.00     0.284 C 
HETATM   10  O   UNK N   1      27.248  23.422  -6.751  0.00  0.00    -0.334 OA
HETATM   11  O   UNK N   1      28.715  22.107  -7.763  0.00  0.00    -0.287 OA
HETATM   12  C   UNK N   1      29.648  22.912  -8.255  0.00  0.00     0.291 C 
HETATM   13  C   UNK N   1      30.275  23.773  -7.249  0.00  0.00     0.232 C 
HETATM   14  O   UNK N   1      26.347  27.542  -2.615  0.00  0.00    -0.265 OA
HETATM   15  C   UNK N   1      27.816  23.721  -3.943  0.00  0.00     0.166 C 
HETATM   16  C   UNK N   1      29.463  25.514  -4.889  0.00  0.00     0.148 C 
HETATM   17  C   UNK N   1      30.482  23.288  -4.738  0.00  0.00     0.013 C 
HETATM   18  C   UNK N   1      30.802  24.802  -4.550  0.00  0.00     0.040 C 
HETATM   19  O   UNK N   1      29.942  22.933  -9.439  0.00  0.00    -0.262 OA
HETATM   20  C   UNK N   1      25.384  27.559  -5.419  0.00  0.00     0.024 C 
HETATM   21  C   UNK N   1      28.288  25.734  -6.820  0.00  0.00     0.298 C 
HETATM   22  O   UNK N   1      29.382  26.156  -6.125  0.00  0.00    -0.312 OA
HETATM   23  O   UNK N   1      27.922  26.256  -7.866  0.00  0.00    -0.262 OA
ENDROOT
BRANCH  17  24
HETATM   24  C   UNK N   1      31.594  22.268  -4.413  0.00  0.00    -0.047 C 
HETATM   25  C   UNK N   1      31.328  20.958  -5.125  0.00  0.00     0.015 C 
HETATM   26  C   UNK N   1      31.550  22.000  -2.920  0.00  0.00     0.015 C 
HETATM   27  C   UNK N   1      32.997  22.745  -4.733  0.00  0.00     0.015 C 
ENDBRANCH  17  24
BRANCH  13  28
HETATM   28  O   UNK N   1      31.629  23.443  -7.248  0.00  0.00    -0.385 OA
HETATM   29  H   UNK N   1      32.341  23.884  -7.736  0.00  0.00     0.210 HD
ENDBRANCH  13  28
BRANCH  15  30
HETATM   30  O   UNK N   1      28.504  23.771  -2.725  0.00  0.00    -0.392 OA
HETATM   31  H   UNK N   1      28.518  24.560  -2.162  0.00  0.00     0.210 HD
ENDBRANCH  15  30
BRANCH   4  32
HETATM   32  O   UNK N   1      25.125  24.919  -5.858  0.00  0.00    -0.382 OA
HETATM   33  H   UNK N   1      24.433  24.240  -5.812  0.00  0.00     0.210 HD
ENDBRANCH   4  32
TORSDOF 4
ENDMDL
MODEL 7
REMARK VINA RESULT:      -7.0     13.341     16.794
REMARK  4 active torsions:
REMARK  status: ('A' for Active; 'I' for Inactive)
REMARK    1  A    between atoms: C_4  and  O_20 
REMARK    2  A    between atoms: C_13  and  O_26 
REMARK    3  A    between atoms: C_15  and  O_21 
REMARK    4  A    between atoms: C_17  and  C_27 
ROOT
HETATM    1  C   UNK N   1      36.040  14.560   9.756  0.00  0.00     0.266 C 
HETATM    2  O   UNK N   1      35.379  13.460   9.407  0.00  0.00    -0.310 OA
HETATM    3  C   UNK N   1      34.061  13.704   9.094  0.00  0.00     0.200 C 
HETATM    4  C   UNK N   1      33.814  15.199   9.414  0.00  0.00     0.141 C 
HETATM    5  C   UNK N   1      35.232  15.786   9.695  0.00  0.00     0.122 C 
HETATM    6  C   UNK N   1      33.659  15.029   7.018  0.00  0.00     0.074 C 
HETATM    7  C   UNK N   1      33.122  15.780   8.152  0.00  0.00     0.199 C 
HETATM    8  C   UNK N   1      32.616  15.207   5.885  0.00  0.00     0.066 C 
HETATM    9  C   UNK N   1      31.388  14.956   6.815  0.00  0.00     0.284 C 
HETATM   10  O   UNK N   1      31.725  15.504   8.104  0.00  0.00    -0.334 OA
HETATM   11  O   UNK N   1      30.396  15.780   6.354  0.00  0.00    -0.287 OA
HETATM   12  C   UNK N   1      30.888  16.812   5.681  0.00  0.00     0.291 C 
HETATM   13  C   UNK N   1      32.291  16.648   5.292  0.00  0.00     0.232 C 
HETATM   14  O   UNK N   1      37.234  14.549  10.012  0.00  0.00    -0.265 OA
HETATM   15  C   UNK N   1      33.810  13.584   7.591  0.00  0.00     0.166 C 
HETATM   16  C   UNK N   1      34.912  15.688   6.504  0.00  0.00     0.148 C 
HETATM   17  C   UNK N   1      33.523  14.429   4.920  0.00  0.00     0.013 C 
HETATM   18  C   UNK N   1      34.852  15.239   5.017  0.00  0.00     0.040 C 
HETATM   19  O   UNK N   1      30.228  17.805   5.424  0.00  0.00    -0.262 OA
HETATM   20  C   UNK N   1      35.313  16.585  10.991  0.00  0.00     0.024 C 
HETATM   21  C   UNK N   1      33.644  17.120   7.726  0.00  0.00     0.298 C 
HETATM   22  O   UNK N   1      34.615  17.023   6.776  0.00  0.00    -0.312 OA
HETATM   23  O   UNK N   1      33.316  18.184   8.237  0.00  0.00    -0.262 OA
ENDROOT
BRANCH  17  24
HETATM   24  C   UNK N   1      33.176  13.768   3.570  0.00  0.00    -0.047 C 
HETATM   25  C   UNK N   1      31.674  13.711   3.384  0.00  0.00     0.015 C 
HETATM   26  C   UNK N   1      33.692  12.341   3.610  0.00  0.00     0.015 C 
HETATM   27  C   UNK N   1      33.813  14.431   2.364  0.00  0.00     0.015 C 
ENDBRANCH  17  24
BRANCH  13  28
HETATM   28  O   UNK N   1      32.313  16.694   3.900  0.00  0.00    -0.385 OA
HETATM   29  H   UNK N   1      31.713  16.242   3.288  0.00  0.00     0.210 HD
ENDBRANCH  13  28
BRANCH  15  30
HETATM   30  O   UNK N   1      34.742  12.783   6.921  0.00  0.00    -0.392 OA
HETATM   31  H   UNK N   1      35.463  13.151   6.387  0.00  0.00     0.210 HD
ENDBRANCH  15  30
BRANCH   4  32
HETATM   32  O   UNK N   1      32.987  15.312  10.537  0.00  0.00    -0.382 OA
HETATM   33  H   UNK N   1      32.197  14.870  10.886  0.00  0.00     0.210 HD
ENDBRANCH   4  32
TORSDOF 4
ENDMDL
MODEL 8
REMARK VINA RESULT:      -6.9      1.524      5.957
REMARK  4 active torsions:
REMARK  status: ('A' for Active; 'I' for Inactive)
REMARK    1  A    between atoms: C_4  and  O_20 
REMARK    2  A    between atoms: C_13  and  O_26 
REMARK    3  A    between atoms: C_15  and  O_21 
REMARK    4  A    between atoms: C_17  and  C_27 
ROOT
HETATM    1  C   UNK N   1      30.975  22.808  -3.322  0.00  0.00     0.266 C 
HETATM    2  O   UNK N   1      31.511  24.011  -3.508  0.00  0.00    -0.310 OA
HETATM    3  C   UNK N   1      31.212  24.547  -4.740  0.00  0.00     0.200 C 
HETATM    4  C   UNK N   1      30.452  23.442  -5.515  0.00  0.00     0.141 C 
HETATM    5  C   UNK N   1      30.159  22.338  -4.452  0.00  0.00     0.122 C 
HETATM    6  C   UNK N   1      28.823  25.167  -5.110  0.00  0.00     0.074 C 
HETATM    7  C   UNK N   1      29.185  24.135  -6.081  0.00  0.00     0.199 C 
HETATM    8  C   UNK N   1      27.948  26.174  -5.897  0.00  0.00     0.066 C 
HETATM    9  C   UNK N   1      28.887  26.198  -7.144  0.00  0.00     0.284 C 
HETATM   10  O   UNK N   1      29.437  24.873  -7.273  0.00  0.00    -0.334 OA
HETATM   11  O   UNK N   1      28.064  26.323  -8.230  0.00  0.00    -0.287 OA
HETATM   12  C   UNK N   1      26.836  25.891  -7.969  0.00  0.00     0.291 C 
HETATM   13  C   UNK N   1      26.562  25.726  -6.539  0.00  0.00     0.232 C 
HETATM   14  O   UNK N   1      31.084  22.202  -2.269  0.00  0.00    -0.265 OA
HETATM   15  C   UNK N   1      30.210  25.696  -4.624  0.00  0.00     0.166 C 
HETATM   16  C   UNK N   1      27.910  24.594  -4.058  0.00  0.00     0.148 C 
HETATM   17  C   UNK N   1      27.702  26.975  -4.610  0.00  0.00     0.013 C 
HETATM   18  C   UNK N   1      27.129  25.878  -3.662  0.00  0.00     0.040 C 
HETATM   19  O   UNK N   1      26.023  25.648  -8.845  0.00  0.00    -0.262 OA
HETATM   20  C   UNK N   1      30.563  20.939  -4.900  0.00  0.00     0.024 C 
HETATM   21  C   UNK N   1      27.928  23.328  -5.942  0.00  0.00     0.298 C 
HETATM   22  O   UNK N   1      27.227  23.644  -4.818  0.00  0.00    -0.312 OA
HETATM   23  O   UNK N   1      27.606  22.414  -6.692  0.00  0.00    -0.262 OA
ENDROOT
BRANCH  17  24
HETATM   24  C   UNK N   1      27.184  28.419  -4.440  0.00  0.00    -0.047 C 
HETATM   25  C   UNK N   1      27.480  29.232  -5.683  0.00  0.00     0.015 C 
HETATM   26  C   UNK N   1      27.944  29.047  -3.285  0.00  0.00     0.015 C 
HETATM   27  C   UNK N   1      25.710  28.523  -4.104  0.00  0.00     0.015 C 
ENDBRANCH  17  24
BRANCH  13  28
HETATM   28  O   UNK N   1      25.509  26.590  -6.246  0.00  0.00    -0.385 OA
HETATM   29  H   UNK N   1      24.590  26.518  -6.547  0.00  0.00     0.210 HD
ENDBRANCH  13  28
BRANCH  15  30
HETATM   30  O   UNK N   1      30.194  26.311  -3.367  0.00  0.00    -0.392 OA
HETATM   31  H   UNK N   1      29.967  27.246  -3.243  0.00  0.00     0.210 HD
ENDBRANCH  15  30
BRANCH   4  32
HETATM   32  O   UNK N   1      31.258  22.949  -6.547  0.00  0.00    -0.382 OA
HETATM   33  H   UNK N   1      32.047  23.237  -7.033  0.00  0.00     0.210 HD
ENDBRANCH   4  32
TORSDOF 4
ENDMDL
MODEL 9
REMARK VINA RESULT:      -6.8     11.864     15.080
REMARK  4 active torsions:
REMARK  status: ('A' for Active; 'I' for Inactive)
REMARK    1  A    between atoms: C_4  and  O_20 
REMARK    2  A    between atoms: C_13  and  O_26 
REMARK    3  A    between atoms: C_15  and  O_21 
REMARK    4  A    between atoms: C_17  and  C_27 
ROOT
HETATM    1  C   UNK N   1      30.633  14.173   2.819  0.00  0.00     0.266 C 
HETATM    2  O   UNK N   1      31.936  13.943   2.685  0.00  0.00    -0.310 OA
HETATM    3  C   UNK N   1      32.714  14.971   3.169  0.00  0.00     0.200 C 
HETATM    4  C   UNK N   1      31.733  16.099   3.570  0.00  0.00     0.141 C 
HETATM    5  C   UNK N   1      30.317  15.448   3.479  0.00  0.00     0.122 C 
HETATM    6  C   UNK N   1      32.668  15.305   5.641  0.00  0.00     0.074 C 
HETATM    7  C   UNK N   1      32.151  16.516   5.005  0.00  0.00     0.199 C 
HETATM    8  C   UNK N   1      33.557  15.808   6.806  0.00  0.00     0.066 C 
HETATM    9  C   UNK N   1      34.252  16.916   5.954  0.00  0.00     0.284 C 
HETATM   10  O   UNK N   1      33.265  17.405   5.025  0.00  0.00    -0.334 OA
HETATM   11  O   UNK N   1      34.457  17.969   6.804  0.00  0.00    -0.287 OA
HETATM   12  C   UNK N   1      33.616  17.942   7.831  0.00  0.00     0.291 C 
HETATM   13  C   UNK N   1      32.937  16.654   8.002  0.00  0.00     0.232 C 
HETATM   14  O   UNK N   1      29.790  13.350   2.499  0.00  0.00    -0.265 OA
HETATM   15  C   UNK N   1      33.410  14.582   4.473  0.00  0.00     0.166 C 
HETATM   16  C   UNK N   1      31.547  14.547   6.303  0.00  0.00     0.148 C 
HETATM   17  C   UNK N   1      33.802  14.359   7.252  0.00  0.00     0.013 C 
HETATM   18  C   UNK N   1      32.344  13.836   7.433  0.00  0.00     0.040 C 
HETATM   19  O   UNK N   1      33.425  18.907   8.552  0.00  0.00    -0.262 OA
HETATM   20  C   UNK N   1      29.319  16.272   2.675  0.00  0.00     0.024 C 
HETATM   21  C   UNK N   1      31.002  16.722   5.946  0.00  0.00     0.298 C 
HETATM   22  O   UNK N   1      30.724  15.609   6.680  0.00  0.00    -0.312 OA
HETATM   23  O   UNK N   1      30.317  17.737   5.990  0.00  0.00    -0.262 OA
ENDROOT
BRANCH  17  24
HETATM   24  C   UNK N   1      34.893  13.793   8.186  0.00  0.00    -0.047 C 
HETATM   25  C   UNK N   1      36.008  14.803   8.360  0.00  0.00     0.015 C 
HETATM   26  C   UNK N   1      35.481  12.565   7.516  0.00  0.00     0.015 C 
HETATM   27  C   UNK N   1      34.389  13.353   9.546  0.00  0.00     0.015 C 
ENDBRANCH  17  24
BRANCH  13  28
HETATM   28  O   UNK N   1      33.305  16.189   9.263  0.00  0.00    -0.385 OA
HETATM   29  H   UNK N   1      33.427  16.713  10.069  0.00  0.00     0.210 HD
ENDBRANCH  13  28
BRANCH  15  30
HETATM   30  O   UNK N   1      33.566  13.201   4.644  0.00  0.00    -0.392 OA
HETATM   31  H   UNK N   1      34.078  12.817   5.374  0.00  0.00     0.210 HD
ENDBRANCH  15  30
BRANCH   4  32
HETATM   32  O   UNK N   1      31.854  17.171   2.680  0.00  0.00    -0.382 OA
HETATM   33  H   UNK N   1      31.338  17.956   2.438  0.00  0.00     0.210 HD
ENDBRANCH   4  32
TORSDOF 4
ENDMDL
