MODEL 1
REMARK VINA RESULT:      -9.5      0.000      0.000
REMARK  29 active torsions:
REMARK  status: ('A' for Active; 'I' for Inactive)
REMARK    1  A    between atoms: C_1  and  O_12 
REMARK    2  A    between atoms: C_2  and  O_7 
REMARK    3  A    between atoms: C_3  and  O_8 
REMARK    4  A    between atoms: C_5  and  O_9 
REMARK    5  A    between atoms: C_6  and  C_10 
REMARK    6  A    between atoms: O_11  and  C_10 
REMARK    7  A    between atoms: C_15  and  O_12 
REMARK    8  A    between atoms: C_18  and  O_37 
REMARK    9  A    between atoms: C_19  and  O_36 
REMARK   10  A    between atoms: C_20  and  O_49 
REMARK   11  A    between atoms: C_22  and  O_50 
REMARK   12  A    between atoms: C_24  and  O_51 
REMARK   13  A    between atoms: C_28  and  O_53 
REMARK   14  A    between atoms: C_29  and  O_52 
REMARK   15  A    between atoms: C_30  and  C_45 
REMARK   16  A    between atoms: C_31  and  O_55 
REMARK   17  A    between atoms: C_32  and  C_59 
REMARK   18  A    between atoms: C_35  and  C_33 
REMARK   19  A    between atoms: C_35  and  O_36 
REMARK   20  A    between atoms: C_58  and  C_35 
REMARK   21  A    between atoms: C_38  and  O_37 
REMARK   22  A    between atoms: O_44  and  C_45 
REMARK   23  A    between atoms: C_65  and  O_44 
REMARK   24  A    between atoms: C_48  and  C_60 
REMARK   25  A    between atoms: C_60  and  C_58 
REMARK   26  A    between atoms: O_62  and  C_59 
REMARK   27  A    between atoms: C_68  and  O_73 
REMARK   28  A    between atoms: C_69  and  O_72 
REMARK   29  A    between atoms: C_70  and  O_71 
ROOT
HETATM    1  C   UNK N   1      28.331  16.567   4.452  0.00  0.00    -0.030 C 
HETATM    2  C   UNK N   1      29.737  16.424   5.125  0.00  0.00    -0.032 C 
HETATM    3  C   UNK N   1      31.037  16.974   7.298  0.00  0.00    -0.035 C 
HETATM    4  C   UNK N   1      29.719  17.179   6.495  0.00  0.00     0.005 C 
HETATM    5  C   UNK N   1      27.274  16.010   5.421  0.00  0.00     0.030 C 
HETATM    6  C   UNK N   1      32.280  16.742   6.364  0.00  0.00     0.004 C 
HETATM    7  C   UNK N   1      33.628  16.831   7.150  0.00  0.00    -0.017 C 
HETATM    8  C   UNK N   1      27.161  16.869   6.690  0.00  0.00     0.123 C 
HETATM    9  C   UNK N   1      26.010  15.715   4.597  0.00  0.00     0.027 C 
HETATM   10  C   UNK N   1      28.505  16.865   7.406  0.00  0.00     0.038 C 
HETATM   11  C   UNK N   1      33.360  16.250   8.562  0.00  0.00     0.133 C 
HETATM   12  C   UNK N   1      28.100  15.706   3.226  0.00  0.00     0.011 C 
HETATM   13  C   UNK N   1      30.877  17.044   4.256  0.00  0.00     0.011 C 
HETATM   14  C   UNK N   1      30.957  15.715   8.218  0.00  0.00     0.012 C 
HETATM   15  C   UNK N   1      32.153  17.497   5.037  0.00  0.00     0.007 C 
HETATM   16  C   UNK N   1      26.578  15.536   3.166  0.00  0.00     0.009 C 
HETATM   17  C   UNK N   1      32.314  15.156   8.680  0.00  0.00     0.034 C 
HETATM   18  C   UNK N   1      28.049  18.018   4.031  0.00  0.00     0.016 C 
HETATM   19  C   UNK N   1      30.038  14.925   5.313  0.00  0.00     0.016 C 
HETATM   20  C   UNK N   1      31.188  18.215   8.189  0.00  0.00     0.016 C 
HETATM   21  C   UNK N   1      34.721  16.051   6.433  0.00  0.00     0.018 C 
HETATM   22  C   UNK N   1      34.096  18.272   7.291  0.00  0.00     0.018 C 
ENDROOT
BRANCH   9  23
HETATM   23  C   UNK N   1      25.198  14.405   5.008  0.00  0.00     0.065 C 
HETATM   24  C   UNK N   1      25.922  13.662   6.130  0.00  0.00     0.046 C 
BRANCH  23  25
HETATM   25  O   UNK N   1      23.821  14.525   5.356  0.00  0.00    -0.348 OA
BRANCH  25  26
HETATM   26  C   UNK N   1      23.567  15.381   6.455  0.00  0.00     0.292 C 
HETATM   27  O   UNK N   1      22.924  16.563   6.021  0.00  0.00    -0.348 OA
HETATM   28  C   UNK N   1      21.644  16.270   5.455  0.00  0.00     0.180 C 
HETATM   29  C   UNK N   1      20.851  15.186   6.226  0.00  0.00     0.180 C 
HETATM   30  C   UNK N   1      21.325  15.098   7.666  0.00  0.00     0.183 C 
HETATM   31  C   UNK N   1      22.812  14.741   7.654  0.00  0.00     0.204 C 
BRANCH  28  32
HETATM   32  C   UNK N   1      21.798  15.974   3.960  0.00  0.00     0.205 C 
BRANCH  32  33
HETATM   33  O   UNK N   1      21.876  17.126   3.163  0.00  0.00    -0.356 OA
BRANCH  33  34
HETATM   34  C   UNK N   1      20.803  17.951   3.567  0.00  0.00     0.290 C 
HETATM   35  O   UNK N   1      19.712  17.907   2.660  0.00  0.00    -0.356 OA
HETATM   36  C   UNK N   1      20.136  18.383   1.402  0.00  0.00     0.205 C 
HETATM   37  C   UNK N   1      20.468  19.870   1.487  0.00  0.00     0.173 C 
HETATM   38  C   UNK N   1      21.620  20.047   2.472  0.00  0.00     0.182 C 
HETATM   39  C   UNK N   1      21.249  19.401   3.804  0.00  0.00     0.204 C 
BRANCH  37  40
HETATM   40  O   UNK N   1      20.842  20.334   0.227  0.00  0.00    -0.391 OA
HETATM   41  H   UNK N   1      21.717  20.648  -0.049  0.00  0.00     0.210 HD
ENDBRANCH  37  40
BRANCH  38  42
HETATM   42  O   UNK N   1      21.886  21.404   2.656  0.00  0.00    -0.390 OA
HETATM   43  H   UNK N   1      21.258  22.130   2.793  0.00  0.00     0.210 HD
ENDBRANCH  38  42
BRANCH  39  44
HETATM   44  O   UNK N   1      22.327  19.446   4.688  0.00  0.00    -0.388 OA
HETATM   45  H   UNK N   1      23.228  19.260   4.378  0.00  0.00     0.210 HD
ENDBRANCH  39  44
ENDBRANCH  33  34
ENDBRANCH  32  33
ENDBRANCH  28  32
BRANCH  29  46
HETATM   46  O   UNK N   1      19.481  15.449   6.166  0.00  0.00    -0.390 OA
HETATM   47  H   UNK N   1      19.089  15.934   5.422  0.00  0.00     0.210 HD
ENDBRANCH  29  46
BRANCH  30  48
HETATM   48  O   UNK N   1      21.136  16.323   8.311  0.00  0.00    -0.390 OA
HETATM   49  H   UNK N   1      20.523  17.074   8.317  0.00  0.00     0.210 HD
ENDBRANCH  30  48
BRANCH  31  50
HETATM   50  O   UNK N   1      22.978  13.363   7.701  0.00  0.00    -0.388 OA
HETATM   51  H   UNK N   1      23.321  12.457   7.751  0.00  0.00     0.210 HD
ENDBRANCH  31  50
ENDBRANCH  25  26
ENDBRANCH  23  25
BRANCH  23  52
HETATM   52  C   UNK N   1      25.243  13.425   3.832  0.00  0.00     0.042 C 
BRANCH  52  53
HETATM   53  C   UNK N   1      23.872  12.920   3.418  0.00  0.00     0.030 C 
BRANCH  53  54
HETATM   54  C   UNK N   1      23.998  12.282   2.073  0.00  0.00    -0.025 C 
HETATM   55  C   UNK N   1      23.536  12.863   0.960  0.00  0.00    -0.091 C 
HETATM   56  C   UNK N   1      23.718  12.173  -0.347  0.00  0.00     0.042 C 
HETATM   57  C   UNK N   1      22.862  14.197   0.990  0.00  0.00     0.042 C 
ENDBRANCH  53  54
ENDBRANCH  52  53
ENDBRANCH  23  52
ENDBRANCH   9  23
BRANCH   8  58
HETATM   58  O   UNK N   1      26.728  18.172   6.435  0.00  0.00    -0.395 OA
HETATM   59  H   UNK N   1      26.612  18.963   5.885  0.00  0.00     0.210 HD
ENDBRANCH   8  58
BRANCH  11  60
HETATM   60  O   UNK N   1      34.401  16.143   9.487  0.00  0.00    -0.352 OA
BRANCH  60  61
HETATM   61  C   UNK N   1      34.364  14.813   9.956  0.00  0.00     0.292 C 
HETATM   62  O   UNK N   1      34.987  13.863   9.099  0.00  0.00    -0.348 OA
HETATM   63  C   UNK N   1      36.372  14.114   9.032  0.00  0.00     0.179 C 
HETATM   64  C   UNK N   1      37.003  13.776  10.390  0.00  0.00     0.180 C 
HETATM   65  C   UNK N   1      36.420  14.729  11.438  0.00  0.00     0.183 C 
HETATM   66  C   UNK N   1      34.890  14.697  11.386  0.00  0.00     0.211 C 
BRANCH  63  67
HETATM   67  C   UNK N   1      36.959  13.292   7.893  0.00  0.00     0.198 C 
BRANCH  67  68
HETATM   68  O   UNK N   1      37.098  11.957   8.276  0.00  0.00    -0.398 OA
HETATM   69  H   UNK N   1      37.881  11.386   8.277  0.00  0.00     0.209 HD
ENDBRANCH  67  68
ENDBRANCH  63  67
BRANCH  64  70
HETATM   70  O   UNK N   1      38.394  13.908  10.355  0.00  0.00    -0.390 OA
HETATM   71  H   UNK N   1      38.862  14.732  10.563  0.00  0.00     0.210 HD
ENDBRANCH  64  70
BRANCH  65  72
HETATM   72  O   UNK N   1      36.862  16.032  11.197  0.00  0.00    -0.390 OA
HETATM   73  H   UNK N   1      36.992  16.974  11.004  0.00  0.00     0.210 HD
ENDBRANCH  65  72
BRANCH  66  74
HETATM   74  O   UNK N   1      34.372  13.539  11.984  0.00  0.00    -0.346 OA
BRANCH  74  75
HETATM   75  C   UNK N   1      35.447  12.888  12.632  0.00  0.00     0.292 C 
HETATM   76  O   UNK N   1      35.619  13.329  13.976  0.00  0.00    -0.348 OA
HETATM   77  C   UNK N   1      34.945  12.433  14.825  0.00  0.00     0.179 C 
HETATM   78  C   UNK N   1      35.657  11.066  14.906  0.00  0.00     0.180 C 
HETATM   79  C   UNK N   1      36.299  10.694  13.549  0.00  0.00     0.183 C 
HETATM   80  C   UNK N   1      35.489  11.342  12.427  0.00  0.00     0.204 C 
BRANCH  77  81
HETATM   81  C   UNK N   1      34.555  13.067  16.153  0.00  0.00     0.198 C 
BRANCH  81  82
HETATM   82  O   UNK N   1      35.666  13.649  16.764  0.00  0.00    -0.398 OA
HETATM   83  H   UNK N   1      36.114  14.423  16.388  0.00  0.00     0.209 HD
ENDBRANCH  81  82
ENDBRANCH  77  81
BRANCH  78  84
HETATM   84  O   UNK N   1      36.612  11.024  15.926  0.00  0.00    -0.390 OA
HETATM   85  H   UNK N   1      36.422  10.584  16.769  0.00  0.00     0.210 HD
ENDBRANCH  78  84
BRANCH  79  86
HETATM   86  O   UNK N   1      37.620  11.153  13.485  0.00  0.00    -0.390 OA
HETATM   87  H   UNK N   1      38.409  10.981  12.948  0.00  0.00     0.210 HD
ENDBRANCH  79  86
BRANCH  80  88
HETATM   88  O   UNK N   1      35.996  11.021  11.168  0.00  0.00    -0.388 OA
HETATM   89  H   UNK N   1      35.750  11.051  10.230  0.00  0.00     0.210 HD
ENDBRANCH  80  88
ENDBRANCH  74  75
ENDBRANCH  66  74
ENDBRANCH  60  61
ENDBRANCH  11  60
TORSDOF 29
ENDMDL
MODEL 2
REMARK VINA RESULT:      -9.5      1.190      1.918
REMARK  29 active torsions:
REMARK  status: ('A' for Active; 'I' for Inactive)
REMARK    1  A    between atoms: C_1  and  O_12 
REMARK    2  A    between atoms: C_2  and  O_7 
REMARK    3  A    between atoms: C_3  and  O_8 
REMARK    4  A    between atoms: C_5  and  O_9 
REMARK    5  A    between atoms: C_6  and  C_10 
REMARK    6  A    between atoms: O_11  and  C_10 
REMARK    7  A    between atoms: C_15  and  O_12 
REMARK    8  A    between atoms: C_18  and  O_37 
REMARK    9  A    between atoms: C_19  and  O_36 
REMARK   10  A    between atoms: C_20  and  O_49 
REMARK   11  A    between atoms: C_22  and  O_50 
REMARK   12  A    between atoms: C_24  and  O_51 
REMARK   13  A    between atoms: C_28  and  O_53 
REMARK   14  A    between atoms: C_29  and  O_52 
REMARK   15  A    between atoms: C_30  and  C_45 
REMARK   16  A    between atoms: C_31  and  O_55 
REMARK   17  A    between atoms: C_32  and  C_59 
REMARK   18  A    between atoms: C_35  and  C_33 
REMARK   19  A    between atoms: C_35  and  O_36 
REMARK   20  A    between atoms: C_58  and  C_35 
REMARK   21  A    between atoms: C_38  and  O_37 
REMARK   22  A    between atoms: O_44  and  C_45 
REMARK   23  A    between atoms: C_65  and  O_44 
REMARK   24  A    between atoms: C_48  and  C_60 
REMARK   25  A    between atoms: C_60  and  C_58 
REMARK   26  A    between atoms: O_62  and  C_59 
REMARK   27  A    between atoms: C_68  and  O_73 
REMARK   28  A    between atoms: C_69  and  O_72 
REMARK   29  A    between atoms: C_70  and  O_71 
ROOT
HETATM    1  C   UNK N   1      28.426  16.600   4.503  0.00  0.00    -0.030 C 
HETATM    2  C   UNK N   1      29.818  16.450   5.205  0.00  0.00    -0.032 C 
HETATM    3  C   UNK N   1      31.069  16.970   7.413  0.00  0.00    -0.035 C 
HETATM    4  C   UNK N   1      29.767  17.184   6.586  0.00  0.00     0.005 C 
HETATM    5  C   UNK N   1      27.350  16.024   5.441  0.00  0.00     0.030 C 
HETATM    6  C   UNK N   1      32.332  16.756   6.503  0.00  0.00     0.004 C 
HETATM    7  C   UNK N   1      33.663  16.837   7.320  0.00  0.00    -0.017 C 
HETATM    8  C   UNK N   1      27.207  16.863   6.720  0.00  0.00     0.123 C 
HETATM    9  C   UNK N   1      26.105  15.739   4.585  0.00  0.00     0.027 C 
HETATM   10  C   UNK N   1      28.535  16.852   7.464  0.00  0.00     0.038 C 
HETATM   11  C   UNK N   1      33.366  16.232   8.716  0.00  0.00     0.133 C 
HETATM   12  C   UNK N   1      28.224  15.758   3.259  0.00  0.00     0.011 C 
HETATM   13  C   UNK N   1      30.974  17.088   4.370  0.00  0.00     0.011 C 
HETATM   14  C   UNK N   1      30.972  15.696   8.311  0.00  0.00     0.012 C 
HETATM   15  C   UNK N   1      32.231  17.531   5.185  0.00  0.00     0.007 C 
HETATM   16  C   UNK N   1      26.704  15.584   3.164  0.00  0.00     0.009 C 
HETATM   17  C   UNK N   1      32.321  15.134   8.794  0.00  0.00     0.034 C 
HETATM   18  C   UNK N   1      28.148  18.057   4.099  0.00  0.00     0.016 C 
HETATM   19  C   UNK N   1      30.119  14.949   5.375  0.00  0.00     0.016 C 
HETATM   20  C   UNK N   1      31.196  18.196   8.327  0.00  0.00     0.016 C 
HETATM   21  C   UNK N   1      34.773  16.070   6.614  0.00  0.00     0.018 C 
HETATM   22  C   UNK N   1      34.123  18.276   7.493  0.00  0.00     0.018 C 
ENDROOT
BRANCH   9  23
HETATM   23  C   UNK N   1      25.288  14.421   4.958  0.00  0.00     0.065 C 
HETATM   24  C   UNK N   1      25.948  13.703   6.134  0.00  0.00     0.046 C 
BRANCH  23  25
HETATM   25  O   UNK N   1      23.890  14.521   5.212  0.00  0.00    -0.348 OA
BRANCH  25  26
HETATM   26  C   UNK N   1      23.461  13.873   6.396  0.00  0.00     0.292 C 
HETATM   27  O   UNK N   1      23.021  14.823   7.346  0.00  0.00    -0.348 OA
HETATM   28  C   UNK N   1      21.881  15.538   6.863  0.00  0.00     0.180 C 
HETATM   29  C   UNK N   1      20.858  14.652   6.110  0.00  0.00     0.180 C 
HETATM   30  C   UNK N   1      20.991  13.200   6.535  0.00  0.00     0.183 C 
HETATM   31  C   UNK N   1      22.413  12.740   6.208  0.00  0.00     0.204 C 
BRANCH  28  32
HETATM   32  C   UNK N   1      22.341  16.761   6.064  0.00  0.00     0.205 C 
BRANCH  32  33
HETATM   33  O   UNK N   1      21.297  17.434   5.412  0.00  0.00    -0.356 OA
BRANCH  33  34
HETATM   34  C   UNK N   1      21.518  17.246   4.030  0.00  0.00     0.290 C 
HETATM   35  O   UNK N   1      22.593  18.032   3.539  0.00  0.00    -0.356 OA
HETATM   36  C   UNK N   1      22.288  19.397   3.716  0.00  0.00     0.205 C 
HETATM   37  C   UNK N   1      21.118  19.795   2.821  0.00  0.00     0.173 C 
HETATM   38  C   UNK N   1      19.898  18.979   3.237  0.00  0.00     0.182 C 
HETATM   39  C   UNK N   1      20.248  17.494   3.203  0.00  0.00     0.204 C 
BRANCH  37  40
HETATM   40  O   UNK N   1      20.858  21.157   2.976  0.00  0.00    -0.391 OA
HETATM   41  H   UNK N   1      21.269  21.892   2.496  0.00  0.00     0.210 HD
ENDBRANCH  37  40
BRANCH  38  42
HETATM   42  O   UNK N   1      18.833  19.240   2.375  0.00  0.00    -0.390 OA
HETATM   43  H   UNK N   1      17.977  18.787   2.317  0.00  0.00     0.210 HD
ENDBRANCH  38  42
BRANCH  39  44
HETATM   44  O   UNK N   1      19.187  16.730   3.690  0.00  0.00    -0.388 OA
HETATM   45  H   UNK N   1      18.428  16.520   3.123  0.00  0.00     0.210 HD
ENDBRANCH  39  44
ENDBRANCH  33  34
ENDBRANCH  32  33
ENDBRANCH  28  32
BRANCH  29  46
HETATM   46  O   UNK N   1      19.559  15.118   6.324  0.00  0.00    -0.390 OA
HETATM   47  H   UNK N   1      18.787  14.540   6.209  0.00  0.00     0.210 HD
ENDBRANCH  29  46
BRANCH  30  48
HETATM   48  O   UNK N   1      20.755  13.076   7.907  0.00  0.00    -0.390 OA
HETATM   49  H   UNK N   1      20.892  13.566   8.732  0.00  0.00     0.210 HD
ENDBRANCH  30  48
BRANCH  31  50
HETATM   50  O   UNK N   1      22.462  12.187   4.936  0.00  0.00    -0.388 OA
HETATM   51  H   UNK N   1      22.727  11.820   4.078  0.00  0.00     0.210 HD
ENDBRANCH  31  50
ENDBRANCH  25  26
ENDBRANCH  23  25
BRANCH  23  52
HETATM   52  C   UNK N   1      25.426  13.428   3.799  0.00  0.00     0.042 C 
BRANCH  52  53
HETATM   53  C   UNK N   1      26.329  12.250   4.121  0.00  0.00     0.030 C 
BRANCH  53  54
HETATM   54  C   UNK N   1      27.289  12.077   2.990  0.00  0.00    -0.025 C 
HETATM   55  C   UNK N   1      28.568  11.738   3.182  0.00  0.00    -0.091 C 
HETATM   56  C   UNK N   1      29.458  11.564   2.001  0.00  0.00     0.042 C 
HETATM   57  C   UNK N   1      29.124  11.508   4.551  0.00  0.00     0.042 C 
ENDBRANCH  53  54
ENDBRANCH  52  53
ENDBRANCH  23  52
ENDBRANCH   9  23
BRANCH   8  58
HETATM   58  O   UNK N   1      26.775  18.169   6.476  0.00  0.00    -0.395 OA
HETATM   59  H   UNK N   1      26.546  19.077   6.733  0.00  0.00     0.210 HD
ENDBRANCH   8  58
BRANCH  11  60
HETATM   60  O   UNK N   1      34.387  16.114   9.661  0.00  0.00    -0.352 OA
BRANCH  60  61
HETATM   61  C   UNK N   1      34.378  14.763  10.070  0.00  0.00     0.292 C 
HETATM   62  O   UNK N   1      34.974  13.859   9.148  0.00  0.00    -0.348 OA
HETATM   63  C   UNK N   1      36.353  14.124   9.040  0.00  0.00     0.179 C 
HETATM   64  C   UNK N   1      37.039  13.732  10.356  0.00  0.00     0.180 C 
HETATM   65  C   UNK N   1      36.490  14.631  11.467  0.00  0.00     0.183 C 
HETATM   66  C   UNK N   1      34.959  14.588  11.472  0.00  0.00     0.211 C 
BRANCH  63  67
HETATM   67  C   UNK N   1      36.902  13.360   7.843  0.00  0.00     0.198 C 
BRANCH  67  68
HETATM   68  O   UNK N   1      37.338  12.093   8.232  0.00  0.00    -0.398 OA
HETATM   69  H   UNK N   1      37.194  11.610   9.060  0.00  0.00     0.209 HD
ENDBRANCH  67  68
ENDBRANCH  63  67
BRANCH  64  70
HETATM   70  O   UNK N   1      38.426  13.877  10.274  0.00  0.00    -0.390 OA
HETATM   71  H   UNK N   1      38.891  14.709  10.452  0.00  0.00     0.210 HD
ENDBRANCH  64  70
BRANCH  65  72
HETATM   72  O   UNK N   1      36.913  15.948  11.269  0.00  0.00    -0.390 OA
HETATM   73  H   UNK N   1      37.361  16.784  11.068  0.00  0.00     0.210 HD
ENDBRANCH  65  72
BRANCH  66  74
HETATM   74  O   UNK N   1      34.473  13.400  12.037  0.00  0.00    -0.346 OA
BRANCH  74  75
HETATM   75  C   UNK N   1      35.529  12.832  12.787  0.00  0.00     0.292 C 
HETATM   76  O   UNK N   1      35.603  13.360  14.108  0.00  0.00    -0.348 OA
HETATM   77  C   UNK N   1      34.911  12.491  14.971  0.00  0.00     0.179 C 
HETATM   78  C   UNK N   1      35.664  11.161  15.179  0.00  0.00     0.180 C 
HETATM   79  C   UNK N   1      36.401  10.733  13.888  0.00  0.00     0.183 C 
HETATM   80  C   UNK N   1      35.637  11.279  12.682  0.00  0.00     0.204 C 
BRANCH  77  81
HETATM   81  C   UNK N   1      34.418  13.189  16.231  0.00  0.00     0.198 C 
BRANCH  81  82
HETATM   82  O   UNK N   1      35.489  13.733  16.941  0.00  0.00    -0.398 OA
HETATM   83  H   UNK N   1      36.350  13.901  16.526  0.00  0.00     0.209 HD
ENDBRANCH  81  82
ENDBRANCH  77  81
BRANCH  78  84
HETATM   84  O   UNK N   1      36.556  11.218  16.254  0.00  0.00    -0.390 OA
HETATM   85  H   UNK N   1      36.841  12.069  16.620  0.00  0.00     0.210 HD
ENDBRANCH  78  84
BRANCH  79  86
HETATM   86  O   UNK N   1      37.706  11.238  13.873  0.00  0.00    -0.390 OA
HETATM   87  H   UNK N   1      38.597  10.905  13.681  0.00  0.00     0.210 HD
ENDBRANCH  79  86
BRANCH  80  88
HETATM   88  O   UNK N   1      36.232  10.902  11.477  0.00  0.00    -0.388 OA
HETATM   89  H   UNK N   1      35.996  10.582  10.593  0.00  0.00     0.210 HD
ENDBRANCH  80  88
ENDBRANCH  74  75
ENDBRANCH  66  74
ENDBRANCH  60  61
ENDBRANCH  11  60
TORSDOF 29
ENDMDL
MODEL 3
REMARK VINA RESULT:      -9.3      1.826      4.138
REMARK  29 active torsions:
REMARK  status: ('A' for Active; 'I' for Inactive)
REMARK    1  A    between atoms: C_1  and  O_12 
REMARK    2  A    between atoms: C_2  and  O_7 
REMARK    3  A    between atoms: C_3  and  O_8 
REMARK    4  A    between atoms: C_5  and  O_9 
REMARK    5  A    between atoms: C_6  and  C_10 
REMARK    6  A    between atoms: O_11  and  C_10 
REMARK    7  A    between atoms: C_15  and  O_12 
REMARK    8  A    between atoms: C_18  and  O_37 
REMARK    9  A    between atoms: C_19  and  O_36 
REMARK   10  A    between atoms: C_20  and  O_49 
REMARK   11  A    between atoms: C_22  and  O_50 
REMARK   12  A    between atoms: C_24  and  O_51 
REMARK   13  A    between atoms: C_28  and  O_53 
REMARK   14  A    between atoms: C_29  and  O_52 
REMARK   15  A    between atoms: C_30  and  C_45 
REMARK   16  A    between atoms: C_31  and  O_55 
REMARK   17  A    between atoms: C_32  and  C_59 
REMARK   18  A    between atoms: C_35  and  C_33 
REMARK   19  A    between atoms: C_35  and  O_36 
REMARK   20  A    between atoms: C_58  and  C_35 
REMARK   21  A    between atoms: C_38  and  O_37 
REMARK   22  A    between atoms: O_44  and  C_45 
REMARK   23  A    between atoms: C_65  and  O_44 
REMARK   24  A    between atoms: C_48  and  C_60 
REMARK   25  A    between atoms: C_60  and  C_58 
REMARK   26  A    between atoms: O_62  and  C_59 
REMARK   27  A    between atoms: C_68  and  O_73 
REMARK   28  A    between atoms: C_69  and  O_72 
REMARK   29  A    between atoms: C_70  and  O_71 
ROOT
HETATM    1  C   UNK N   1      28.652  16.602   4.332  0.00  0.00    -0.030 C 
HETATM    2  C   UNK N   1      30.021  16.438   5.074  0.00  0.00    -0.032 C 
HETATM    3  C   UNK N   1      31.205  16.927   7.326  0.00  0.00    -0.035 C 
HETATM    4  C   UNK N   1      29.931  17.156   6.461  0.00  0.00     0.005 C 
HETATM    5  C   UNK N   1      27.544  16.021   5.229  0.00  0.00     0.030 C 
HETATM    6  C   UNK N   1      32.495  16.717   6.452  0.00  0.00     0.004 C 
HETATM    7  C   UNK N   1      33.801  16.783   7.310  0.00  0.00    -0.017 C 
HETATM    8  C   UNK N   1      27.366  16.846   6.513  0.00  0.00     0.123 C 
HETATM    9  C   UNK N   1      26.326  15.751   4.332  0.00  0.00     0.027 C 
HETATM   10  C   UNK N   1      28.671  16.820   7.298  0.00  0.00     0.038 C 
HETATM   11  C   UNK N   1      33.458  16.164   8.690  0.00  0.00     0.133 C 
HETATM   12  C   UNK N   1      28.485  15.775   3.073  0.00  0.00     0.011 C 
HETATM   13  C   UNK N   1      31.205  17.079   4.282  0.00  0.00     0.011 C 
HETATM   14  C   UNK N   1      31.076  15.643   8.205  0.00  0.00     0.012 C 
HETATM   15  C   UNK N   1      32.438  17.508   5.141  0.00  0.00     0.007 C 
HETATM   16  C   UNK N   1      26.968  15.610   2.929  0.00  0.00     0.009 C 
HETATM   17  C   UNK N   1      32.407  15.070   8.722  0.00  0.00     0.034 C 
HETATM   18  C   UNK N   1      28.392  18.065   3.936  0.00  0.00     0.016 C 
HETATM   19  C   UNK N   1      30.310  14.934   5.236  0.00  0.00     0.016 C 
HETATM   20  C   UNK N   1      31.310  18.142   8.257  0.00  0.00     0.016 C 
HETATM   21  C   UNK N   1      34.929  16.019   6.630  0.00  0.00     0.018 C 
HETATM   22  C   UNK N   1      34.261  18.218   7.514  0.00  0.00     0.018 C 
ENDROOT
BRANCH   9  23
HETATM   23  C   UNK N   1      25.492  14.432   4.665  0.00  0.00     0.065 C 
HETATM   24  C   UNK N   1      26.382  13.403   5.359  0.00  0.00     0.046 C 
BRANCH  23  25
HETATM   25  O   UNK N   1      24.275  14.549   5.396  0.00  0.00    -0.348 OA
BRANCH  25  26
HETATM   26  C   UNK N   1      23.240  15.229   4.708  0.00  0.00     0.292 C 
HETATM   27  O   UNK N   1      22.061  14.451   4.698  0.00  0.00    -0.348 OA
HETATM   28  C   UNK N   1      21.572  14.246   6.027  0.00  0.00     0.180 C 
HETATM   29  C   UNK N   1      21.675  15.499   6.931  0.00  0.00     0.180 C 
HETATM   30  C   UNK N   1      21.724  16.764   6.093  0.00  0.00     0.183 C 
HETATM   31  C   UNK N   1      22.950  16.681   5.181  0.00  0.00     0.204 C 
BRANCH  28  32
HETATM   32  C   UNK N   1      22.221  12.997   6.628  0.00  0.00     0.205 C 
BRANCH  32  33
HETATM   33  O   UNK N   1      22.699  13.183   7.934  0.00  0.00    -0.356 OA
BRANCH  33  34
HETATM   34  C   UNK N   1      23.718  12.223   8.115  0.00  0.00     0.290 C 
HETATM   35  O   UNK N   1      23.267  11.078   8.823  0.00  0.00    -0.356 OA
HETATM   36  C   UNK N   1      22.845  11.467  10.111  0.00  0.00     0.205 C 
HETATM   37  C   UNK N   1      24.037  11.946  10.933  0.00  0.00     0.173 C 
HETATM   38  C   UNK N   1      24.634  13.168  10.242  0.00  0.00     0.182 C 
HETATM   39  C   UNK N   1      24.960  12.820   8.792  0.00  0.00     0.204 C 
BRANCH  37  40
HETATM   40  O   UNK N   1      23.610  12.284  12.217  0.00  0.00    -0.391 OA
HETATM   41  H   UNK N   1      23.034  11.767  12.801  0.00  0.00     0.210 HD
ENDBRANCH  37  40
BRANCH  38  42
HETATM   42  O   UNK N   1      25.791  13.576  10.908  0.00  0.00    -0.390 OA
HETATM   43  H   UNK N   1      25.875  13.951  11.799  0.00  0.00     0.210 HD
ENDBRANCH  38  42
BRANCH  39  44
HETATM   44  O   UNK N   1      25.399  13.951   8.104  0.00  0.00    -0.388 OA
HETATM   45  H   UNK N   1      26.054  13.873   7.392  0.00  0.00     0.210 HD
ENDBRANCH  39  44
ENDBRANCH  33  34
ENDBRANCH  32  33
ENDBRANCH  28  32
BRANCH  29  46
HETATM   46  O   UNK N   1      20.610  15.539   7.834  0.00  0.00    -0.390 OA
HETATM   47  H   UNK N   1      20.463  14.827   8.477  0.00  0.00     0.210 HD
ENDBRANCH  29  46
BRANCH  30  48
HETATM   48  O   UNK N   1      20.565  16.874   5.320  0.00  0.00    -0.390 OA
HETATM   49  H   UNK N   1      19.955  17.550   4.985  0.00  0.00     0.210 HD
ENDBRANCH  30  48
BRANCH  31  50
HETATM   50  O   UNK N   1      24.050  17.260   5.799  0.00  0.00    -0.388 OA
HETATM   51  H   UNK N   1      24.812  17.808   6.044  0.00  0.00     0.210 HD
ENDBRANCH  31  50
ENDBRANCH  25  26
ENDBRANCH  23  25
BRANCH  23  52
HETATM   52  C   UNK N   1      25.116  13.758   3.343  0.00  0.00     0.042 C 
BRANCH  52  53
HETATM   53  C   UNK N   1      25.571  12.312   3.254  0.00  0.00     0.030 C 
BRANCH  53  54
HETATM   54  C   UNK N   1      26.366  12.150   2.000  0.00  0.00    -0.025 C 
HETATM   55  C   UNK N   1      27.693  11.980   2.011  0.00  0.00    -0.091 C 
HETATM   56  C   UNK N   1      28.412  11.806   0.719  0.00  0.00     0.042 C 
HETATM   57  C   UNK N   1      28.470  11.938   3.287  0.00  0.00     0.042 C 
ENDBRANCH  53  54
ENDBRANCH  52  53
ENDBRANCH  23  52
ENDBRANCH   9  23
BRANCH   8  58
HETATM   58  O   UNK N   1      26.948  18.156   6.272  0.00  0.00    -0.395 OA
HETATM   59  H   UNK N   1      26.284  18.850   6.126  0.00  0.00     0.210 HD
ENDBRANCH   8  58
BRANCH  11  60
HETATM   60  O   UNK N   1      34.450  16.030   9.664  0.00  0.00    -0.352 OA
BRANCH  60  61
HETATM   61  C   UNK N   1      34.405  14.681  10.075  0.00  0.00     0.292 C 
HETATM   62  O   UNK N   1      35.053  13.769   9.196  0.00  0.00    -0.348 OA
HETATM   63  C   UNK N   1      36.438  14.026   9.176  0.00  0.00     0.179 C 
HETATM   64  C   UNK N   1      37.035  13.632  10.534  0.00  0.00     0.180 C 
HETATM   65  C   UNK N   1      36.422  14.539  11.606  0.00  0.00     0.183 C 
HETATM   66  C   UNK N   1      34.893  14.506  11.512  0.00  0.00     0.211 C 
BRANCH  63  67
HETATM   67  C   UNK N   1      37.057  13.254   8.019  0.00  0.00     0.198 C 
BRANCH  67  68
HETATM   68  O   UNK N   1      37.456  11.984   8.438  0.00  0.00    -0.398 OA
HETATM   69  H   UNK N   1      37.632  11.647   9.330  0.00  0.00     0.209 HD
ENDBRANCH  67  68
ENDBRANCH  63  67
BRANCH  64  70
HETATM   70  O   UNK N   1      38.426  13.769  10.541  0.00  0.00    -0.390 OA
HETATM   71  H   UNK N   1      39.037  13.039  10.725  0.00  0.00     0.210 HD
ENDBRANCH  64  70
BRANCH  65  72
HETATM   72  O   UNK N   1      36.866  15.852  11.432  0.00  0.00    -0.390 OA
HETATM   73  H   UNK N   1      37.229  16.750  11.485  0.00  0.00     0.210 HD
ENDBRANCH  65  72
BRANCH  66  74
HETATM   74  O   UNK N   1      34.365  13.323  12.047  0.00  0.00    -0.346 OA
BRANCH  74  75
HETATM   75  C   UNK N   1      35.403  12.690  12.770  0.00  0.00     0.292 C 
HETATM   76  O   UNK N   1      35.553  13.221  14.083  0.00  0.00    -0.348 OA
HETATM   77  C   UNK N   1      34.831  12.406  14.975  0.00  0.00     0.179 C 
HETATM   78  C   UNK N   1      35.501  11.030  15.171  0.00  0.00     0.180 C 
HETATM   79  C   UNK N   1      36.167  10.545  13.862  0.00  0.00     0.183 C 
HETATM   80  C   UNK N   1      35.405  11.133  12.675  0.00  0.00     0.204 C 
BRANCH  77  81
HETATM   81  C   UNK N   1      34.425  13.143  16.243  0.00  0.00     0.198 C 
BRANCH  81  82
HETATM   82  O   UNK N   1      35.540  13.718  16.854  0.00  0.00    -0.398 OA
HETATM   83  H   UNK N   1      36.272  14.096  16.341  0.00  0.00     0.209 HD
ENDBRANCH  81  82
ENDBRANCH  77  81
BRANCH  78  84
HETATM   84  O   UNK N   1      36.427  11.034  16.218  0.00  0.00    -0.390 OA
HETATM   85  H   UNK N   1      37.340  11.328  16.074  0.00  0.00     0.210 HD
ENDBRANCH  78  84
BRANCH  79  86
HETATM   86  O   UNK N   1      37.501  10.962  13.803  0.00  0.00    -0.390 OA
HETATM   87  H   UNK N   1      38.207  11.002  13.138  0.00  0.00     0.210 HD
ENDBRANCH  79  86
BRANCH  80  88
HETATM   88  O   UNK N   1      35.935  10.710  11.456  0.00  0.00    -0.388 OA
HETATM   89  H   UNK N   1      36.005  10.991  10.531  0.00  0.00     0.210 HD
ENDBRANCH  80  88
ENDBRANCH  74  75
ENDBRANCH  66  74
ENDBRANCH  60  61
ENDBRANCH  11  60
TORSDOF 29
ENDMDL
MODEL 4
REMARK VINA RESULT:      -9.2      2.330      3.758
REMARK  29 active torsions:
REMARK  status: ('A' for Active; 'I' for Inactive)
REMARK    1  A    between atoms: C_1  and  O_12 
REMARK    2  A    between atoms: C_2  and  O_7 
REMARK    3  A    between atoms: C_3  and  O_8 
REMARK    4  A    between atoms: C_5  and  O_9 
REMARK    5  A    between atoms: C_6  and  C_10 
REMARK    6  A    between atoms: O_11  and  C_10 
REMARK    7  A    between atoms: C_15  and  O_12 
REMARK    8  A    between atoms: C_18  and  O_37 
REMARK    9  A    between atoms: C_19  and  O_36 
REMARK   10  A    between atoms: C_20  and  O_49 
REMARK   11  A    between atoms: C_22  and  O_50 
REMARK   12  A    between atoms: C_24  and  O_51 
REMARK   13  A    between atoms: C_28  and  O_53 
REMARK   14  A    between atoms: C_29  and  O_52 
REMARK   15  A    between atoms: C_30  and  C_45 
REMARK   16  A    between atoms: C_31  and  O_55 
REMARK   17  A    between atoms: C_32  and  C_59 
REMARK   18  A    between atoms: C_35  and  C_33 
REMARK   19  A    between atoms: C_35  and  O_36 
REMARK   20  A    between atoms: C_58  and  C_35 
REMARK   21  A    between atoms: C_38  and  O_37 
REMARK   22  A    between atoms: O_44  and  C_45 
REMARK   23  A    between atoms: C_65  and  O_44 
REMARK   24  A    between atoms: C_48  and  C_60 
REMARK   25  A    between atoms: C_60  and  C_58 
REMARK   26  A    between atoms: O_62  and  C_59 
REMARK   27  A    between atoms: C_68  and  O_73 
REMARK   28  A    between atoms: C_69  and  O_72 
REMARK   29  A    between atoms: C_70  and  O_71 
ROOT
HETATM    1  C   UNK N   1      28.482  16.781   4.304  0.00  0.00    -0.030 C 
HETATM    2  C   UNK N   1      29.866  16.501   4.980  0.00  0.00    -0.032 C 
HETATM    3  C   UNK N   1      31.123  16.691   7.238  0.00  0.00    -0.035 C 
HETATM    4  C   UNK N   1      29.831  17.049   6.445  0.00  0.00     0.005 C 
HETATM    5  C   UNK N   1      27.386  16.119   5.158  0.00  0.00     0.030 C 
HETATM    6  C   UNK N   1      32.383  16.562   6.307  0.00  0.00     0.004 C 
HETATM    7  C   UNK N   1      33.713  16.498   7.128  0.00  0.00    -0.017 C 
HETATM    8  C   UNK N   1      27.262  16.787   6.536  0.00  0.00     0.123 C 
HETATM    9  C   UNK N   1      26.137  15.985   4.271  0.00  0.00     0.027 C 
HETATM   10  C   UNK N   1      28.587  16.640   7.273  0.00  0.00     0.038 C 
HETATM   11  C   UNK N   1      33.393  15.724   8.433  0.00  0.00     0.133 C 
HETATM   12  C   UNK N   1      28.262  16.116   2.960  0.00  0.00     0.011 C 
HETATM   13  C   UNK N   1      31.043  17.210   4.236  0.00  0.00     0.011 C 
HETATM   14  C   UNK N   1      30.987  15.314   7.961  0.00  0.00     0.012 C 
HETATM   15  C   UNK N   1      32.309  17.507   5.103  0.00  0.00     0.007 C 
HETATM   16  C   UNK N   1      26.738  16.000   2.843  0.00  0.00     0.009 C 
HETATM   17  C   UNK N   1      32.317  14.656   8.366  0.00  0.00     0.034 C 
HETATM   18  C   UNK N   1      28.247  18.286   4.094  0.00  0.00     0.016 C 
HETATM   19  C   UNK N   1      30.124  14.983   4.952  0.00  0.00     0.016 C 
HETATM   20  C   UNK N   1      31.281  17.783   8.305  0.00  0.00     0.016 C 
HETATM   21  C   UNK N   1      34.804  15.799   6.328  0.00  0.00     0.018 C 
HETATM   22  C   UNK N   1      34.212  17.888   7.489  0.00  0.00     0.018 C 
ENDROOT
BRANCH   9  23
HETATM   23  C   UNK N   1      25.282  14.652   4.468  0.00  0.00     0.065 C 
HETATM   24  C   UNK N   1      26.013  13.685   5.397  0.00  0.00     0.046 C 
BRANCH  23  25
HETATM   25  O   UNK N   1      23.927  14.757   4.895  0.00  0.00    -0.348 OA
BRANCH  25  26
HETATM   26  C   UNK N   1      23.614  13.994   6.048  0.00  0.00     0.292 C 
HETATM   27  O   UNK N   1      23.235  14.843   7.112  0.00  0.00    -0.348 OA
HETATM   28  C   UNK N   1      22.043  15.564   6.791  0.00  0.00     0.180 C 
HETATM   29  C   UNK N   1      20.980  14.718   6.049  0.00  0.00     0.180 C 
HETATM   30  C   UNK N   1      21.181  13.238   6.329  0.00  0.00     0.183 C 
HETATM   31  C   UNK N   1      22.580  12.852   5.846  0.00  0.00     0.204 C 
BRANCH  28  32
HETATM   32  C   UNK N   1      22.407  16.865   6.071  0.00  0.00     0.205 C 
BRANCH  32  33
HETATM   33  O   UNK N   1      21.323  17.469   5.416  0.00  0.00    -0.356 OA
BRANCH  33  34
HETATM   34  C   UNK N   1      21.540  17.264   4.035  0.00  0.00     0.290 C 
HETATM   35  O   UNK N   1      22.612  18.047   3.532  0.00  0.00    -0.356 OA
HETATM   36  C   UNK N   1      22.302  19.413   3.693  0.00  0.00     0.205 C 
HETATM   37  C   UNK N   1      21.130  19.796   2.796  0.00  0.00     0.173 C 
HETATM   38  C   UNK N   1      19.913  18.982   3.225  0.00  0.00     0.182 C 
HETATM   39  C   UNK N   1      20.268  17.497   3.209  0.00  0.00     0.204 C 
BRANCH  37  40
HETATM   40  O   UNK N   1      20.865  21.159   2.934  0.00  0.00    -0.391 OA
HETATM   41  H   UNK N   1      20.528  21.764   2.255  0.00  0.00     0.210 HD
ENDBRANCH  37  40
BRANCH  38  42
HETATM   42  O   UNK N   1      18.845  19.228   2.362  0.00  0.00    -0.390 OA
HETATM   43  H   UNK N   1      18.417  18.618   1.740  0.00  0.00     0.210 HD
ENDBRANCH  38  42
BRANCH  39  44
HETATM   44  O   UNK N   1      19.211  16.736   3.708  0.00  0.00    -0.388 OA
HETATM   45  H   UNK N   1      18.669  17.064   4.443  0.00  0.00     0.210 HD
ENDBRANCH  39  44
ENDBRANCH  33  34
ENDBRANCH  32  33
ENDBRANCH  28  32
BRANCH  29  46
HETATM   46  O   UNK N   1      19.693  15.124   6.410  0.00  0.00    -0.390 OA
HETATM   47  H   UNK N   1      18.910  14.603   6.170  0.00  0.00     0.210 HD
ENDBRANCH  29  46
BRANCH  30  48
HETATM   48  O   UNK N   1      21.065  12.987   7.698  0.00  0.00    -0.390 OA
HETATM   49  H   UNK N   1      21.618  12.767   8.464  0.00  0.00     0.210 HD
ENDBRANCH  30  48
BRANCH  31  50
HETATM   50  O   UNK N   1      22.533  12.414   4.529  0.00  0.00    -0.388 OA
HETATM   51  H   UNK N   1      22.294  12.222   3.609  0.00  0.00     0.210 HD
ENDBRANCH  31  50
ENDBRANCH  25  26
ENDBRANCH  23  25
BRANCH  23  52
HETATM   52  C   UNK N   1      25.237  13.910   3.129  0.00  0.00     0.042 C 
BRANCH  52  53
HETATM   53  C   UNK N   1      25.792  12.499   3.205  0.00  0.00     0.030 C 
BRANCH  53  54
HETATM   54  C   UNK N   1      26.626  12.262   1.989  0.00  0.00    -0.025 C 
HETATM   55  C   UNK N   1      27.952  12.097   2.052  0.00  0.00    -0.091 C 
HETATM   56  C   UNK N   1      28.713  11.844   0.797  0.00  0.00     0.042 C 
HETATM   57  C   UNK N   1      28.689  12.137   3.352  0.00  0.00     0.042 C 
ENDBRANCH  53  54
ENDBRANCH  52  53
ENDBRANCH  23  52
ENDBRANCH   9  23
BRANCH   8  58
HETATM   58  O   UNK N   1      26.869  18.125   6.466  0.00  0.00    -0.395 OA
HETATM   59  H   UNK N   1      26.269  18.849   6.222  0.00  0.00     0.210 HD
ENDBRANCH   8  58
BRANCH  11  60
HETATM   60  O   UNK N   1      34.407  15.454   9.354  0.00  0.00    -0.352 OA
BRANCH  60  61
HETATM   61  C   UNK N   1      35.015  14.258   8.917  0.00  0.00     0.292 C 
HETATM   62  O   UNK N   1      36.438  14.277   8.924  0.00  0.00    -0.348 OA
HETATM   63  C   UNK N   1      36.909  14.381  10.247  0.00  0.00     0.179 C 
HETATM   64  C   UNK N   1      36.608  13.070  10.985  0.00  0.00     0.180 C 
HETATM   65  C   UNK N   1      35.087  12.901  11.058  0.00  0.00     0.183 C 
HETATM   66  C   UNK N   1      34.475  13.037   9.661  0.00  0.00     0.211 C 
BRANCH  63  67
HETATM   67  C   UNK N   1      38.396  14.702  10.208  0.00  0.00     0.198 C 
BRANCH  67  68
HETATM   68  O   UNK N   1      39.148  13.575  10.541  0.00  0.00    -0.398 OA
HETATM   69  H   UNK N   1      39.857  13.467  11.194  0.00  0.00     0.209 HD
ENDBRANCH  67  68
ENDBRANCH  63  67
BRANCH  64  70
HETATM   70  O   UNK N   1      37.144  13.074  12.276  0.00  0.00    -0.390 OA
HETATM   71  H   UNK N   1      37.435  12.274  12.740  0.00  0.00     0.210 HD
ENDBRANCH  64  70
BRANCH  65  72
HETATM   72  O   UNK N   1      34.539  13.872  11.900  0.00  0.00    -0.390 OA
HETATM   73  H   UNK N   1      34.236  14.665  12.368  0.00  0.00     0.210 HD
ENDBRANCH  65  72
BRANCH  66  74
HETATM   74  O   UNK N   1      34.680  11.886   8.887  0.00  0.00    -0.346 OA
BRANCH  74  75
HETATM   75  C   UNK N   1      33.454  11.182   8.852  0.00  0.00     0.292 C 
HETATM   76  O   UNK N   1      32.673  11.506   7.706  0.00  0.00    -0.348 OA
HETATM   77  C   UNK N   1      32.922  10.540   6.714  0.00  0.00     0.179 C 
HETATM   78  C   UNK N   1      32.305   9.172   7.072  0.00  0.00     0.180 C 
HETATM   79  C   UNK N   1      32.365   8.918   8.597  0.00  0.00     0.183 C 
HETATM   80  C   UNK N   1      33.571   9.660   9.172  0.00  0.00     0.204 C 
BRANCH  77  81
HETATM   81  C   UNK N   1      32.641  11.057   5.310  0.00  0.00     0.198 C 
BRANCH  81  82
HETATM   82  O   UNK N   1      31.418  11.727   5.270  0.00  0.00    -0.398 OA
HETATM   83  H   UNK N   1      30.746  11.616   5.962  0.00  0.00     0.209 HD
ENDBRANCH  81  82
ENDBRANCH  77  81
BRANCH  78  84
HETATM   84  O   UNK N   1      30.993   9.042   6.607  0.00  0.00    -0.390 OA
HETATM   85  H   UNK N   1      30.723   9.436   5.763  0.00  0.00     0.210 HD
ENDBRANCH  78  84
BRANCH  79  86
HETATM   86  O   UNK N   1      31.201   9.381   9.221  0.00  0.00    -0.390 OA
HETATM   87  H   UNK N   1      30.971   9.994   9.937  0.00  0.00     0.210 HD
ENDBRANCH  79  86
BRANCH  80  88
HETATM   88  O   UNK N   1      33.704   9.448  10.545  0.00  0.00    -0.388 OA
HETATM   89  H   UNK N   1      33.894   8.740  11.179  0.00  0.00     0.210 HD
ENDBRANCH  80  88
ENDBRANCH  74  75
ENDBRANCH  66  74
ENDBRANCH  60  61
ENDBRANCH  11  60
TORSDOF 29
ENDMDL
MODEL 5
REMARK VINA RESULT:      -8.9      4.213      7.076
REMARK  29 active torsions:
REMARK  status: ('A' for Active; 'I' for Inactive)
REMARK    1  A    between atoms: C_1  and  O_12 
REMARK    2  A    between atoms: C_2  and  O_7 
REMARK    3  A    between atoms: C_3  and  O_8 
REMARK    4  A    between atoms: C_5  and  O_9 
REMARK    5  A    between atoms: C_6  and  C_10 
REMARK    6  A    between atoms: O_11  and  C_10 
REMARK    7  A    between atoms: C_15  and  O_12 
REMARK    8  A    between atoms: C_18  and  O_37 
REMARK    9  A    between atoms: C_19  and  O_36 
REMARK   10  A    between atoms: C_20  and  O_49 
REMARK   11  A    between atoms: C_22  and  O_50 
REMARK   12  A    between atoms: C_24  and  O_51 
REMARK   13  A    between atoms: C_28  and  O_53 
REMARK   14  A    between atoms: C_29  and  O_52 
REMARK   15  A    between atoms: C_30  and  C_45 
REMARK   16  A    between atoms: C_31  and  O_55 
REMARK   17  A    between atoms: C_32  and  C_59 
REMARK   18  A    between atoms: C_35  and  C_33 
REMARK   19  A    between atoms: C_35  and  O_36 
REMARK   20  A    between atoms: C_58  and  C_35 
REMARK   21  A    between atoms: C_38  and  O_37 
REMARK   22  A    between atoms: O_44  and  C_45 
REMARK   23  A    between atoms: C_65  and  O_44 
REMARK   24  A    between atoms: C_48  and  C_60 
REMARK   25  A    between atoms: C_60  and  C_58 
REMARK   26  A    between atoms: O_62  and  C_59 
REMARK   27  A    between atoms: C_68  and  O_73 
REMARK   28  A    between atoms: C_69  and  O_72 
REMARK   29  A    between atoms: C_70  and  O_71 
ROOT
HETATM    1  C   UNK N   1      23.737  12.527   3.173  0.00  0.00    -0.030 C 
HETATM    2  C   UNK N   1      25.254  12.183   2.994  0.00  0.00    -0.032 C 
HETATM    3  C   UNK N   1      27.582  13.274   2.675  0.00  0.00    -0.035 C 
HETATM    4  C   UNK N   1      26.043  13.507   2.730  0.00  0.00     0.005 C 
HETATM    5  C   UNK N   1      23.605  13.535   4.328  0.00  0.00     0.030 C 
HETATM    6  C   UNK N   1      27.954  11.835   2.164  0.00  0.00     0.004 C 
HETATM    7  C   UNK N   1      29.477  11.707   1.832  0.00  0.00    -0.017 C 
HETATM    8  C   UNK N   1      24.248  14.886   3.976  0.00  0.00     0.123 C 
HETATM    9  C   UNK N   1      22.143  13.498   4.800  0.00  0.00     0.027 C 
HETATM   10  C   UNK N   1      25.731  14.667   3.708  0.00  0.00     0.038 C 
HETATM   11  C   UNK N   1      30.232  12.593   2.856  0.00  0.00     0.133 C 
HETATM   12  C   UNK N   1      22.860  11.392   3.661  0.00  0.00     0.011 C 
HETATM   13  C   UNK N   1      25.506  11.230   1.782  0.00  0.00     0.011 C 
HETATM   14  C   UNK N   1      28.231  13.403   4.089  0.00  0.00     0.012 C 
HETATM   15  C   UNK N   1      26.935  11.301   1.152  0.00  0.00     0.007 C 
HETATM   16  C   UNK N   1      21.678  12.094   4.339  0.00  0.00     0.009 C 
HETATM   17  C   UNK N   1      29.615  12.748   4.234  0.00  0.00     0.034 C 
HETATM   18  C   UNK N   1      23.112  13.035   1.864  0.00  0.00     0.016 C 
HETATM   19  C   UNK N   1      25.748  11.477   4.271  0.00  0.00     0.016 C 
HETATM   20  C   UNK N   1      28.147  14.386   1.780  0.00  0.00     0.016 C 
HETATM   21  C   UNK N   1      29.926  10.256   1.925  0.00  0.00     0.018 C 
HETATM   22  C   UNK N   1      29.784  12.205   0.428  0.00  0.00     0.018 C 
ENDROOT
BRANCH   9  23
HETATM   23  C   UNK N   1      21.913  13.637   6.373  0.00  0.00     0.065 C 
HETATM   24  C   UNK N   1      23.114  14.319   7.026  0.00  0.00     0.046 C 
BRANCH  23  25
HETATM   25  O   UNK N   1      20.723  14.261   6.846  0.00  0.00    -0.348 OA
BRANCH  25  26
HETATM   26  C   UNK N   1      20.941  15.351   7.725  0.00  0.00     0.292 C 
HETATM   27  O   UNK N   1      20.739  16.576   7.050  0.00  0.00    -0.348 OA
HETATM   28  C   UNK N   1      19.383  16.700   6.611  0.00  0.00     0.180 C 
HETATM   29  C   UNK N   1      18.343  16.191   7.639  0.00  0.00     0.180 C 
HETATM   30  C   UNK N   1      18.920  16.216   9.044  0.00  0.00     0.183 C 
HETATM   31  C   UNK N   1      20.154  15.311   9.064  0.00  0.00     0.204 C 
BRANCH  28  32
HETATM   32  C   UNK N   1      19.233  16.073   5.222  0.00  0.00     0.205 C 
BRANCH  32  33
HETATM   33  O   UNK N   1      19.253  17.009   4.177  0.00  0.00    -0.356 OA
BRANCH  33  34
HETATM   34  C   UNK N   1      20.454  16.778   3.471  0.00  0.00     0.290 C 
HETATM   35  O   UNK N   1      21.591  17.291   4.150  0.00  0.00    -0.356 OA
HETATM   36  C   UNK N   1      21.461  18.689   4.279  0.00  0.00     0.205 C 
HETATM   37  C   UNK N   1      21.536  19.354   2.908  0.00  0.00     0.173 C 
HETATM   38  C   UNK N   1      20.369  18.846   2.066  0.00  0.00     0.182 C 
HETATM   39  C   UNK N   1      20.393  17.320   2.036  0.00  0.00     0.204 C 
BRANCH  37  40
HETATM   40  O   UNK N   1      21.451  20.737   3.057  0.00  0.00    -0.391 OA
HETATM   41  H   UNK N   1      22.181  21.376   3.054  0.00  0.00     0.210 HD
ENDBRANCH  37  40
BRANCH  38  42
HETATM   42  O   UNK N   1      20.460  19.353   0.769  0.00  0.00    -0.390 OA
HETATM   43  H   UNK N   1      20.969  19.006   0.019  0.00  0.00     0.210 HD
ENDBRANCH  38  42
BRANCH  39  44
HETATM   44  O   UNK N   1      19.272  16.826   1.370  0.00  0.00    -0.388 OA
HETATM   45  H   UNK N   1      18.643  17.430   0.944  0.00  0.00     0.210 HD
ENDBRANCH  39  44
ENDBRANCH  33  34
ENDBRANCH  32  33
ENDBRANCH  28  32
BRANCH  29  46
HETATM   46  O   UNK N   1      17.173  16.951   7.566  0.00  0.00    -0.390 OA
HETATM   47  H   UNK N   1      17.016  17.699   8.165  0.00  0.00     0.210 HD
ENDBRANCH  29  46
BRANCH  30  48
HETATM   48  O   UNK N   1      19.282  17.520   9.392  0.00  0.00    -0.390 OA
HETATM   49  H   UNK N   1      19.827  18.254   9.067  0.00  0.00     0.210 HD
ENDBRANCH  30  48
BRANCH  31  50
HETATM   50  O   UNK N   1      19.798  14.019   9.425  0.00  0.00    -0.388 OA
HETATM   51  H   UNK N   1      19.348  13.173   9.572  0.00  0.00     0.210 HD
ENDBRANCH  31  50
ENDBRANCH  25  26
ENDBRANCH  23  25
BRANCH  23  52
HETATM   52  C   UNK N   1      21.913  12.233   6.983  0.00  0.00     0.042 C 
BRANCH  52  53
HETATM   53  C   UNK N   1      23.119  11.960   7.865  0.00  0.00     0.030 C 
BRANCH  53  54
HETATM   54  C   UNK N   1      22.642  11.804   9.271  0.00  0.00    -0.025 C 
HETATM   55  C   UNK N   1      23.389  12.157  10.324  0.00  0.00    -0.091 C 
HETATM   56  C   UNK N   1      22.834  11.990  11.695  0.00  0.00     0.042 C 
HETATM   57  C   UNK N   1      24.757  12.735  10.158  0.00  0.00     0.042 C 
ENDBRANCH  53  54
ENDBRANCH  52  53
ENDBRANCH  23  52
ENDBRANCH   9  23
BRANCH   8  58
HETATM   58  O   UNK N   1      23.629  15.526   2.901  0.00  0.00    -0.395 OA
HETATM   59  H   UNK N   1      23.177  16.268   2.467  0.00  0.00     0.210 HD
ENDBRANCH   8  58
BRANCH  11  60
HETATM   60  O   UNK N   1      31.627  12.641   2.848  0.00  0.00    -0.352 OA
BRANCH  60  61
HETATM   61  C   UNK N   1      31.994  13.361   4.004  0.00  0.00     0.292 C 
HETATM   62  O   UNK N   1      32.862  12.663   4.889  0.00  0.00    -0.348 OA
HETATM   63  C   UNK N   1      34.109  12.449   4.267  0.00  0.00     0.179 C 
HETATM   64  C   UNK N   1      34.827  13.797   4.118  0.00  0.00     0.180 C 
HETATM   65  C   UNK N   1      33.998  14.679   3.179  0.00  0.00     0.183 C 
HETATM   66  C   UNK N   1      32.546  14.745   3.664  0.00  0.00     0.211 C 
BRANCH  63  67
HETATM   67  C   UNK N   1      34.901  11.453   5.102  0.00  0.00     0.198 C 
BRANCH  67  68
HETATM   68  O   UNK N   1      35.867  10.820   4.319  0.00  0.00    -0.398 OA
HETATM   69  H   UNK N   1      36.418  10.046   4.511  0.00  0.00     0.209 HD
ENDBRANCH  67  68
ENDBRANCH  63  67
BRANCH  64  70
HETATM   70  O   UNK N   1      36.114  13.637   3.599  0.00  0.00    -0.390 OA
HETATM   71  H   UNK N   1      36.674  14.374   3.311  0.00  0.00     0.210 HD
ENDBRANCH  64  70
BRANCH  65  72
HETATM   72  O   UNK N   1      34.028  14.157   1.883  0.00  0.00    -0.390 OA
HETATM   73  H   UNK N   1      34.217  13.737   1.030  0.00  0.00     0.210 HD
ENDBRANCH  65  72
BRANCH  66  74
HETATM   74  O   UNK N   1      32.404  15.593   4.771  0.00  0.00    -0.346 OA
BRANCH  74  75
HETATM   75  C   UNK N   1      31.025  15.876   4.906  0.00  0.00     0.292 C 
HETATM   76  O   UNK N   1      30.556  15.677   6.236  0.00  0.00    -0.348 OA
HETATM   77  C   UNK N   1      30.579  16.916   6.903  0.00  0.00     0.179 C 
HETATM   78  C   UNK N   1      29.487  17.873   6.382  0.00  0.00     0.180 C 
HETATM   79  C   UNK N   1      29.262  17.684   4.864  0.00  0.00     0.183 C 
HETATM   80  C   UNK N   1      30.567  17.205   4.229  0.00  0.00     0.204 C 
BRANCH  77  81
HETATM   81  C   UNK N   1      30.675  16.764   8.415  0.00  0.00     0.198 C 
BRANCH  81  82
HETATM   82  O   UNK N   1      31.954  17.099   8.861  0.00  0.00    -0.398 OA
HETATM   83  H   UNK N   1      32.236  16.951   9.778  0.00  0.00     0.209 HD
ENDBRANCH  81  82
ENDBRANCH  77  81
BRANCH  78  84
HETATM   84  O   UNK N   1      28.282  17.732   7.076  0.00  0.00    -0.390 OA
HETATM   85  H   UNK N   1      27.485  18.206   6.793  0.00  0.00     0.210 HD
ENDBRANCH  78  84
BRANCH  79  86
HETATM   86  O   UNK N   1      28.261  16.735   4.627  0.00  0.00    -0.390 OA
HETATM   87  H   UNK N   1      27.521  16.617   4.010  0.00  0.00     0.210 HD
ENDBRANCH  79  86
BRANCH  80  88
HETATM   88  O   UNK N   1      30.443  17.043   2.848  0.00  0.00    -0.388 OA
HETATM   89  H   UNK N   1      30.825  16.535   2.116  0.00  0.00     0.210 HD
ENDBRANCH  80  88
ENDBRANCH  74  75
ENDBRANCH  66  74
ENDBRANCH  60  61
ENDBRANCH  11  60
TORSDOF 29
ENDMDL
MODEL 6
REMARK VINA RESULT:      -8.8      3.912     11.913
REMARK  29 active torsions:
REMARK  status: ('A' for Active; 'I' for Inactive)
REMARK    1  A    between atoms: C_1  and  O_12 
REMARK    2  A    between atoms: C_2  and  O_7 
REMARK    3  A    between atoms: C_3  and  O_8 
REMARK    4  A    between atoms: C_5  and  O_9 
REMARK    5  A    between atoms: C_6  and  C_10 
REMARK    6  A    between atoms: O_11  and  C_10 
REMARK    7  A    between atoms: C_15  and  O_12 
REMARK    8  A    between atoms: C_18  and  O_37 
REMARK    9  A    between atoms: C_19  and  O_36 
REMARK   10  A    between atoms: C_20  and  O_49 
REMARK   11  A    between atoms: C_22  and  O_50 
REMARK   12  A    between atoms: C_24  and  O_51 
REMARK   13  A    between atoms: C_28  and  O_53 
REMARK   14  A    between atoms: C_29  and  O_52 
REMARK   15  A    between atoms: C_30  and  C_45 
REMARK   16  A    between atoms: C_31  and  O_55 
REMARK   17  A    between atoms: C_32  and  C_59 
REMARK   18  A    between atoms: C_35  and  C_33 
REMARK   19  A    between atoms: C_35  and  O_36 
REMARK   20  A    between atoms: C_58  and  C_35 
REMARK   21  A    between atoms: C_38  and  O_37 
REMARK   22  A    between atoms: O_44  and  C_45 
REMARK   23  A    between atoms: C_65  and  O_44 
REMARK   24  A    between atoms: C_48  and  C_60 
REMARK   25  A    between atoms: C_60  and  C_58 
REMARK   26  A    between atoms: O_62  and  C_59 
REMARK   27  A    between atoms: C_68  and  O_73 
REMARK   28  A    between atoms: C_69  and  O_72 
REMARK   29  A    between atoms: C_70  and  O_71 
ROOT
HETATM    1  C   UNK N   1      29.995  12.290   2.362  0.00  0.00    -0.030 C 
HETATM    2  C   UNK N   1      28.523  12.731   2.065  0.00  0.00    -0.032 C 
HETATM    3  C   UNK N   1      26.255  13.220   3.219  0.00  0.00    -0.035 C 
HETATM    4  C   UNK N   1      27.700  12.667   3.394  0.00  0.00     0.005 C 
HETATM    5  C   UNK N   1      30.563  13.213   3.455  0.00  0.00     0.030 C 
HETATM    6  C   UNK N   1      25.708  13.021   1.759  0.00  0.00     0.004 C 
HETATM    7  C   UNK N   1      24.173  13.303   1.665  0.00  0.00    -0.017 C 
HETATM    8  C   UNK N   1      29.843  13.010   4.797  0.00  0.00     0.123 C 
HETATM    9  C   UNK N   1      32.095  13.097   3.398  0.00  0.00     0.027 C 
HETATM   10  C   UNK N   1      28.368  13.345   4.617  0.00  0.00     0.038 C 
HETATM   11  C   UNK N   1      23.870  14.452   2.662  0.00  0.00     0.133 C 
HETATM   12  C   UNK N   1      30.986  12.511   1.236  0.00  0.00     0.011 C 
HETATM   13  C   UNK N   1      27.822  11.797   1.027  0.00  0.00     0.011 C 
HETATM   14  C   UNK N   1      26.195  14.757   3.489  0.00  0.00     0.012 C 
HETATM   15  C   UNK N   1      26.262  11.752   1.104  0.00  0.00     0.007 C 
HETATM   16  C   UNK N   1      32.341  12.624   1.943  0.00  0.00     0.009 C 
HETATM   17  C   UNK N   1      24.966  15.474   2.903  0.00  0.00     0.034 C 
HETATM   18  C   UNK N   1      30.078  10.801   2.736  0.00  0.00     0.016 C 
HETATM   19  C   UNK N   1      28.548  14.158   1.487  0.00  0.00     0.016 C 
HETATM   20  C   UNK N   1      25.398  12.510   4.276  0.00  0.00     0.016 C 
HETATM   21  C   UNK N   1      23.784  13.691   0.245  0.00  0.00     0.018 C 
HETATM   22  C   UNK N   1      23.357  12.082   2.059  0.00  0.00     0.018 C 
ENDROOT
BRANCH   9  23
HETATM   23  C   UNK N   1      32.907  14.447   3.656  0.00  0.00     0.065 C 
HETATM   24  C   UNK N   1      32.498  15.514   2.643  0.00  0.00     0.046 C 
BRANCH  23  25
HETATM   25  O   UNK N   1      32.891  15.025   4.958  0.00  0.00    -0.348 OA
BRANCH  25  26
HETATM   26  C   UNK N   1      33.839  16.060   5.151  0.00  0.00     0.292 C 
HETATM   27  O   UNK N   1      33.225  17.325   5.004  0.00  0.00    -0.348 OA
HETATM   28  C   UNK N   1      32.224  17.526   6.005  0.00  0.00     0.180 C 
HETATM   29  C   UNK N   1      32.629  17.011   7.408  0.00  0.00     0.180 C 
HETATM   30  C   UNK N   1      34.141  16.943   7.539  0.00  0.00     0.183 C 
HETATM   31  C   UNK N   1      34.666  15.988   6.465  0.00  0.00     0.204 C 
BRANCH  28  32
HETATM   32  C   UNK N   1      30.883  16.975   5.510  0.00  0.00     0.205 C 
BRANCH  32  33
HETATM   33  O   UNK N   1      29.910  17.964   5.303  0.00  0.00    -0.356 OA
BRANCH  33  34
HETATM   34  C   UNK N   1      28.678  17.382   5.674  0.00  0.00     0.290 C 
HETATM   35  O   UNK N   1      27.685  17.525   4.670  0.00  0.00    -0.356 OA
HETATM   36  C   UNK N   1      27.435  18.896   4.458  0.00  0.00     0.205 C 
HETATM   37  C   UNK N   1      26.782  19.508   5.693  0.00  0.00     0.173 C 
HETATM   38  C   UNK N   1      27.756  19.380   6.861  0.00  0.00     0.182 C 
HETATM   39  C   UNK N   1      28.167  17.918   7.018  0.00  0.00     0.204 C 
BRANCH  37  40
HETATM   40  O   UNK N   1      26.501  20.853   5.452  0.00  0.00    -0.391 OA
HETATM   41  H   UNK N   1      26.844  21.621   5.933  0.00  0.00     0.210 HD
ENDBRANCH  37  40
BRANCH  38  42
HETATM   42  O   UNK N   1      27.155  19.837   8.036  0.00  0.00    -0.390 OA
HETATM   43  H   UNK N   1      26.281  20.241   8.150  0.00  0.00     0.210 HD
ENDBRANCH  38  42
BRANCH  39  44
HETATM   44  O   UNK N   1      29.145  17.788   8.004  0.00  0.00    -0.388 OA
HETATM   45  H   UNK N   1      29.568  18.572   8.388  0.00  0.00     0.210 HD
ENDBRANCH  39  44
ENDBRANCH  33  34
ENDBRANCH  32  33
ENDBRANCH  28  32
BRANCH  29  46
HETATM   46  O   UNK N   1      32.078  17.822   8.403  0.00  0.00    -0.390 OA
HETATM   47  H   UNK N   1      31.790  17.455   9.254  0.00  0.00     0.210 HD
ENDBRANCH  29  46
BRANCH  30  48
HETATM   48  O   UNK N   1      34.697  18.213   7.358  0.00  0.00    -0.390 OA
HETATM   49  H   UNK N   1      35.439  18.642   6.905  0.00  0.00     0.210 HD
ENDBRANCH  30  48
BRANCH  31  50
HETATM   50  O   UNK N   1      34.742  14.695   6.965  0.00  0.00    -0.388 OA
HETATM   51  H   UNK N   1      34.951  13.765   7.142  0.00  0.00     0.210 HD
ENDBRANCH  31  50
ENDBRANCH  25  26
ENDBRANCH  23  25
BRANCH  23  52
HETATM   52  C   UNK N   1      34.382  14.186   3.338  0.00  0.00     0.042 C 
BRANCH  52  53
HETATM   53  C   UNK N   1      34.931  12.941   4.012  0.00  0.00     0.030 C 
BRANCH  53  54
HETATM   54  C   UNK N   1      36.397  13.136   4.225  0.00  0.00    -0.025 C 
HETATM   55  C   UNK N   1      37.318  12.504   3.490  0.00  0.00    -0.091 C 
HETATM   56  C   UNK N   1      38.760  12.766   3.749  0.00  0.00     0.042 C 
HETATM   57  C   UNK N   1      36.937  11.556   2.398  0.00  0.00     0.042 C 
ENDBRANCH  53  54
ENDBRANCH  52  53
ENDBRANCH  23  52
ENDBRANCH   9  23
BRANCH   8  58
HETATM   58  O   UNK N   1      30.009  11.727   5.322  0.00  0.00    -0.395 OA
HETATM   59  H   UNK N   1      30.238  10.784   5.273  0.00  0.00     0.210 HD
ENDBRANCH   8  58
BRANCH  11  60
HETATM   60  O   UNK N   1      22.577  14.969   2.764  0.00  0.00    -0.352 OA
BRANCH  60  61
HETATM   61  C   UNK N   1      22.535  15.661   3.993  0.00  0.00     0.292 C 
HETATM   62  O   UNK N   1      21.985  16.971   3.919  0.00  0.00    -0.348 OA
HETATM   63  C   UNK N   1      20.620  16.899   3.575  0.00  0.00     0.179 C 
HETATM   64  C   UNK N   1      19.843  16.295   4.753  0.00  0.00     0.180 C 
HETATM   65  C   UNK N   1      20.334  14.860   4.964  0.00  0.00     0.183 C 
HETATM   66  C   UNK N   1      21.861  14.838   5.089  0.00  0.00     0.211 C 
BRANCH  63  67
HETATM   67  C   UNK N   1      20.137  18.295   3.210  0.00  0.00     0.198 C 
BRANCH  67  68
HETATM   68  O   UNK N   1      18.973  18.224   2.444  0.00  0.00    -0.398 OA
HETATM   69  H   UNK N   1      18.081  17.933   2.690  0.00  0.00     0.209 HD
ENDBRANCH  67  68
ENDBRANCH  63  67
BRANCH  64  70
HETATM   70  O   UNK N   1      18.467  16.291   4.511  0.00  0.00    -0.390 OA
HETATM   71  H   UNK N   1      18.060  16.660   3.712  0.00  0.00     0.210 HD
ENDBRANCH  64  70
BRANCH  65  72
HETATM   72  O   UNK N   1      19.948  14.060   3.886  0.00  0.00    -0.390 OA
HETATM   73  H   UNK N   1      19.756  13.368   3.234  0.00  0.00     0.210 HD
ENDBRANCH  65  72
BRANCH  66  74
HETATM   74  O   UNK N   1      22.287  15.291   6.346  0.00  0.00    -0.346 OA
BRANCH  74  75
HETATM   75  C   UNK N   1      21.614  14.516   7.319  0.00  0.00     0.292 C 
HETATM   76  O   UNK N   1      22.173  13.213   7.459  0.00  0.00    -0.348 OA
HETATM   77  C   UNK N   1      23.085  13.236   8.529  0.00  0.00     0.179 C 
HETATM   78  C   UNK N   1      22.374  13.362   9.892  0.00  0.00     0.180 C 
HETATM   79  C   UNK N   1      21.112  14.250   9.779  0.00  0.00     0.183 C 
HETATM   80  C   UNK N   1      21.323  15.264   8.656  0.00  0.00     0.204 C 
BRANCH  77  81
HETATM   81  C   UNK N   1      24.141  12.145   8.421  0.00  0.00     0.198 C 
BRANCH  81  82
HETATM   82  O   UNK N   1      23.541  10.894   8.272  0.00  0.00    -0.398 OA
HETATM   83  H   UNK N   1      23.710  10.163   8.887  0.00  0.00     0.209 HD
ENDBRANCH  81  82
ENDBRANCH  77  81
BRANCH  78  84
HETATM   84  O   UNK N   1      22.049  12.118  10.440  0.00  0.00    -0.390 OA
HETATM   85  H   UNK N   1      22.588  11.334  10.251  0.00  0.00     0.210 HD
ENDBRANCH  78  84
BRANCH  79  86
HETATM   86  O   UNK N   1      19.985  13.472   9.490  0.00  0.00    -0.390 OA
HETATM   87  H   UNK N   1      19.796  12.623   9.061  0.00  0.00     0.210 HD
ENDBRANCH  79  86
BRANCH  80  88
HETATM   88  O   UNK N   1      20.231  16.121   8.519  0.00  0.00    -0.388 OA
HETATM   89  H   UNK N   1      19.432  16.399   8.993  0.00  0.00     0.210 HD
ENDBRANCH  80  88
ENDBRANCH  74  75
ENDBRANCH  66  74
ENDBRANCH  60  61
ENDBRANCH  11  60
TORSDOF 29
ENDMDL
MODEL 7
REMARK VINA RESULT:      -8.7      2.041      4.447
REMARK  29 active torsions:
REMARK  status: ('A' for Active; 'I' for Inactive)
REMARK    1  A    between atoms: C_1  and  O_12 
REMARK    2  A    between atoms: C_2  and  O_7 
REMARK    3  A    between atoms: C_3  and  O_8 
REMARK    4  A    between atoms: C_5  and  O_9 
REMARK    5  A    between atoms: C_6  and  C_10 
REMARK    6  A    between atoms: O_11  and  C_10 
REMARK    7  A    between atoms: C_15  and  O_12 
REMARK    8  A    between atoms: C_18  and  O_37 
REMARK    9  A    between atoms: C_19  and  O_36 
REMARK   10  A    between atoms: C_20  and  O_49 
REMARK   11  A    between atoms: C_22  and  O_50 
REMARK   12  A    between atoms: C_24  and  O_51 
REMARK   13  A    between atoms: C_28  and  O_53 
REMARK   14  A    between atoms: C_29  and  O_52 
REMARK   15  A    between atoms: C_30  and  C_45 
REMARK   16  A    between atoms: C_31  and  O_55 
REMARK   17  A    between atoms: C_32  and  C_59 
REMARK   18  A    between atoms: C_35  and  C_33 
REMARK   19  A    between atoms: C_35  and  O_36 
REMARK   20  A    between atoms: C_58  and  C_35 
REMARK   21  A    between atoms: C_38  and  O_37 
REMARK   22  A    between atoms: O_44  and  C_45 
REMARK   23  A    between atoms: C_65  and  O_44 
REMARK   24  A    between atoms: C_48  and  C_60 
REMARK   25  A    between atoms: C_60  and  C_58 
REMARK   26  A    between atoms: O_62  and  C_59 
REMARK   27  A    between atoms: C_68  and  O_73 
REMARK   28  A    between atoms: C_69  and  O_72 
REMARK   29  A    between atoms: C_70  and  O_71 
ROOT
HETATM    1  C   UNK N   1      28.403  17.318   4.875  0.00  0.00    -0.030 C 
HETATM    2  C   UNK N   1      29.853  16.836   5.218  0.00  0.00    -0.032 C 
HETATM    3  C   UNK N   1      31.556  16.681   7.164  0.00  0.00    -0.035 C 
HETATM    4  C   UNK N   1      30.182  17.242   6.693  0.00  0.00     0.005 C 
HETATM    5  C   UNK N   1      27.433  16.691   5.892  0.00  0.00     0.030 C 
HETATM    6  C   UNK N   1      32.576  16.515   5.979  0.00  0.00     0.004 C 
HETATM    7  C   UNK N   1      34.028  16.238   6.491  0.00  0.00    -0.017 C 
HETATM    8  C   UNK N   1      27.673  17.233   7.310  0.00  0.00     0.123 C 
HETATM    9  C   UNK N   1      26.023  16.769   5.285  0.00  0.00     0.027 C 
HETATM   10  C   UNK N   1      29.093  16.883   7.735  0.00  0.00     0.038 C 
HETATM   11  C   UNK N   1      33.891  15.379   7.775  0.00  0.00     0.133 C 
HETATM   12  C   UNK N   1      27.836  16.810   3.564  0.00  0.00     0.011 C 
HETATM   13  C   UNK N   1      30.929  17.490   4.294  0.00  0.00     0.011 C 
HETATM   14  C   UNK N   1      31.408  15.261   7.798  0.00  0.00     0.012 C 
HETATM   15  C   UNK N   1      32.371  17.573   4.890  0.00  0.00     0.007 C 
HETATM   16  C   UNK N   1      26.317  16.860   3.766  0.00  0.00     0.009 C 
HETATM   17  C   UNK N   1      32.705  14.436   7.861  0.00  0.00     0.034 C 
HETATM   18  C   UNK N   1      28.311  18.852   4.830  0.00  0.00     0.016 C 
HETATM   19  C   UNK N   1      29.917  15.309   5.026  0.00  0.00     0.016 C 
HETATM   20  C   UNK N   1      32.058  17.644   8.249  0.00  0.00     0.016 C 
HETATM   21  C   UNK N   1      34.842  15.513   5.429  0.00  0.00     0.018 C 
HETATM   22  C   UNK N   1      34.752  17.530   6.837  0.00  0.00     0.018 C 
ENDROOT
BRANCH   9  23
HETATM   23  C   UNK N   1      25.074  15.517   5.562  0.00  0.00     0.065 C 
HETATM   24  C   UNK N   1      25.737  14.556   6.546  0.00  0.00     0.046 C 
BRANCH  23  25
HETATM   25  O   UNK N   1      23.732  15.746   5.983  0.00  0.00    -0.348 OA
BRANCH  25  26
HETATM   26  C   UNK N   1      22.852  16.146   4.947  0.00  0.00     0.292 C 
HETATM   27  O   UNK N   1      22.049  15.059   4.536  0.00  0.00    -0.348 OA
HETATM   28  C   UNK N   1      21.210  14.610   5.604  0.00  0.00     0.180 C 
HETATM   29  C   UNK N   1      20.601  15.759   6.446  0.00  0.00     0.180 C 
HETATM   30  C   UNK N   1      20.555  17.047   5.643  0.00  0.00     0.183 C 
HETATM   31  C   UNK N   1      21.988  17.404   5.239  0.00  0.00     0.204 C 
BRANCH  28  32
HETATM   32  C   UNK N   1      21.952  13.562   6.437  0.00  0.00     0.205 C 
BRANCH  32  33
HETATM   33  O   UNK N   1      21.257  13.161   7.587  0.00  0.00    -0.356 OA
BRANCH  33  34
HETATM   34  C   UNK N   1      21.737  13.976   8.636  0.00  0.00     0.290 C 
HETATM   35  O   UNK N   1      23.113  13.758   8.908  0.00  0.00    -0.356 OA
HETATM   36  C   UNK N   1      23.298  12.422   9.319  0.00  0.00     0.205 C 
HETATM   37  C   UNK N   1      22.627  12.189  10.669  0.00  0.00     0.173 C 
HETATM   38  C   UNK N   1      21.129  12.432  10.507  0.00  0.00     0.182 C 
HETATM   39  C   UNK N   1      20.903  13.821   9.916  0.00  0.00     0.204 C 
BRANCH  37  40
HETATM   40  O   UNK N   1      22.856  10.877  11.082  0.00  0.00    -0.391 OA
HETATM   41  H   UNK N   1      23.252  10.159  10.565  0.00  0.00     0.210 HD
ENDBRANCH  37  40
BRANCH  38  42
HETATM   42  O   UNK N   1      20.493  12.329  11.745  0.00  0.00    -0.390 OA
HETATM   43  H   UNK N   1      19.832  11.680  12.033  0.00  0.00     0.210 HD
ENDBRANCH  38  42
BRANCH  39  44
HETATM   44  O   UNK N   1      19.549  14.025   9.649  0.00  0.00    -0.388 OA
HETATM   45  H   UNK N   1      19.265  14.417   8.808  0.00  0.00     0.210 HD
ENDBRANCH  39  44
ENDBRANCH  33  34
ENDBRANCH  32  33
ENDBRANCH  28  32
BRANCH  29  46
HETATM   46  O   UNK N   1      19.328  15.408   6.901  0.00  0.00    -0.390 OA
HETATM   47  H   UNK N   1      19.190  14.647   7.488  0.00  0.00     0.210 HD
ENDBRANCH  29  46
BRANCH  30  48
HETATM   48  O   UNK N   1      19.769  16.875   4.501  0.00  0.00    -0.390 OA
HETATM   49  H   UNK N   1      19.824  16.972   3.538  0.00  0.00     0.210 HD
ENDBRANCH  30  48
BRANCH  31  50
HETATM   50  O   UNK N   1      22.567  18.228   6.194  0.00  0.00    -0.388 OA
HETATM   51  H   UNK N   1      22.753  18.886   6.883  0.00  0.00     0.210 HD
ENDBRANCH  31  50
ENDBRANCH  25  26
ENDBRANCH  23  25
BRANCH  23  52
HETATM   52  C   UNK N   1      24.967  14.702   4.270  0.00  0.00     0.042 C 
BRANCH  52  53
HETATM   53  C   UNK N   1      25.696  13.371   4.336  0.00  0.00     0.030 C 
BRANCH  53  54
HETATM   54  C   UNK N   1      26.629  13.294   3.172  0.00  0.00    -0.025 C 
HETATM   55  C   UNK N   1      27.825  12.699   3.251  0.00  0.00    -0.091 C 
HETATM   56  C   UNK N   1      28.690  12.645   2.041  0.00  0.00     0.042 C 
HETATM   57  C   UNK N   1      28.306  12.067   4.518  0.00  0.00     0.042 C 
ENDBRANCH  53  54
ENDBRANCH  52  53
ENDBRANCH  23  52
ENDBRANCH   9  23
BRANCH   8  58
HETATM   58  O   UNK N   1      27.435  18.604   7.422  0.00  0.00    -0.395 OA
HETATM   59  H   UNK N   1      27.262  19.494   7.073  0.00  0.00     0.210 HD
ENDBRANCH   8  58
BRANCH  11  60
HETATM   60  O   UNK N   1      35.032  14.921   8.436  0.00  0.00    -0.352 OA
BRANCH  60  61
HETATM   61  C   UNK N   1      34.831  13.539   8.637  0.00  0.00     0.292 C 
HETATM   62  O   UNK N   1      35.036  12.734   7.481  0.00  0.00    -0.348 OA
HETATM   63  C   UNK N   1      36.391  12.783   7.099  0.00  0.00     0.179 C 
HETATM   64  C   UNK N   1      37.230  12.044   8.150  0.00  0.00     0.180 C 
HETATM   65  C   UNK N   1      37.107  12.800   9.476  0.00  0.00     0.183 C 
HETATM   66  C   UNK N   1      35.631  13.012   9.827  0.00  0.00     0.211 C 
BRANCH  63  67
HETATM   67  C   UNK N   1      36.524  12.173   5.710  0.00  0.00     0.198 C 
BRANCH  67  68
HETATM   68  O   UNK N   1      35.275  11.781   5.228  0.00  0.00    -0.398 OA
HETATM   69  H   UNK N   1      34.891  11.872   4.342  0.00  0.00     0.209 HD
ENDBRANCH  67  68
ENDBRANCH  63  67
BRANCH  64  70
HETATM   70  O   UNK N   1      38.573  11.970   7.773  0.00  0.00    -0.390 OA
HETATM   71  H   UNK N   1      39.313  12.140   8.378  0.00  0.00     0.210 HD
ENDBRANCH  64  70
BRANCH  65  72
HETATM   72  O   UNK N   1      37.740  14.042   9.379  0.00  0.00    -0.390 OA
HETATM   73  H   UNK N   1      38.335  14.807   9.325  0.00  0.00     0.210 HD
ENDBRANCH  65  72
BRANCH  66  74
HETATM   74  O   UNK N   1      35.037  11.837  10.310  0.00  0.00    -0.346 OA
BRANCH  74  75
HETATM   75  C   UNK N   1      34.896  11.986  11.709  0.00  0.00     0.292 C 
HETATM   76  O   UNK N   1      35.530  10.936  12.435  0.00  0.00    -0.348 OA
HETATM   77  C   UNK N   1      36.813  11.372  12.811  0.00  0.00     0.179 C 
HETATM   78  C   UNK N   1      36.758  12.453  13.911  0.00  0.00     0.180 C 
HETATM   79  C   UNK N   1      35.525  13.369  13.726  0.00  0.00     0.183 C 
HETATM   80  C   UNK N   1      35.173  13.426  12.241  0.00  0.00     0.204 C 
BRANCH  77  81
HETATM   81  C   UNK N   1      37.776  10.217  13.052  0.00  0.00     0.198 C 
BRANCH  81  82
HETATM   82  O   UNK N   1      37.458   9.136  12.230  0.00  0.00    -0.398 OA
HETATM   83  H   UNK N   1      38.036   8.360  12.152  0.00  0.00     0.209 HD
ENDBRANCH  81  82
ENDBRANCH  77  81
BRANCH  78  84
HETATM   84  O   UNK N   1      36.770  11.904  15.197  0.00  0.00    -0.390 OA
HETATM   85  H   UNK N   1      35.968  11.891  15.741  0.00  0.00     0.210 HD
ENDBRANCH  78  84
BRANCH  79  86
HETATM   86  O   UNK N   1      34.429  12.872  14.440  0.00  0.00    -0.390 OA
HETATM   87  H   UNK N   1      34.278  12.359  15.249  0.00  0.00     0.210 HD
ENDBRANCH  79  86
BRANCH  80  88
HETATM   88  O   UNK N   1      34.084  14.264  11.997  0.00  0.00    -0.388 OA
HETATM   89  H   UNK N   1      33.203  14.469  12.346  0.00  0.00     0.210 HD
ENDBRANCH  80  88
ENDBRANCH  74  75
ENDBRANCH  66  74
ENDBRANCH  60  61
ENDBRANCH  11  60
TORSDOF 29
ENDMDL
MODEL 8
REMARK VINA RESULT:      -8.7      2.282      4.697
REMARK  29 active torsions:
REMARK  status: ('A' for Active; 'I' for Inactive)
REMARK    1  A    between atoms: C_1  and  O_12 
REMARK    2  A    between atoms: C_2  and  O_7 
REMARK    3  A    between atoms: C_3  and  O_8 
REMARK    4  A    between atoms: C_5  and  O_9 
REMARK    5  A    between atoms: C_6  and  C_10 
REMARK    6  A    between atoms: O_11  and  C_10 
REMARK    7  A    between atoms: C_15  and  O_12 
REMARK    8  A    between atoms: C_18  and  O_37 
REMARK    9  A    between atoms: C_19  and  O_36 
REMARK   10  A    between atoms: C_20  and  O_49 
REMARK   11  A    between atoms: C_22  and  O_50 
REMARK   12  A    between atoms: C_24  and  O_51 
REMARK   13  A    between atoms: C_28  and  O_53 
REMARK   14  A    between atoms: C_29  and  O_52 
REMARK   15  A    between atoms: C_30  and  C_45 
REMARK   16  A    between atoms: C_31  and  O_55 
REMARK   17  A    between atoms: C_32  and  C_59 
REMARK   18  A    between atoms: C_35  and  C_33 
REMARK   19  A    between atoms: C_35  and  O_36 
REMARK   20  A    between atoms: C_58  and  C_35 
REMARK   21  A    between atoms: C_38  and  O_37 
REMARK   22  A    between atoms: O_44  and  C_45 
REMARK   23  A    between atoms: C_65  and  O_44 
REMARK   24  A    between atoms: C_48  and  C_60 
REMARK   25  A    between atoms: C_60  and  C_58 
REMARK   26  A    between atoms: O_62  and  C_59 
REMARK   27  A    between atoms: C_68  and  O_73 
REMARK   28  A    between atoms: C_69  and  O_72 
REMARK   29  A    between atoms: C_70  and  O_71 
ROOT
HETATM    1  C   UNK N   1      28.806  17.061   4.326  0.00  0.00    -0.030 C 
HETATM    2  C   UNK N   1      30.158  16.678   5.016  0.00  0.00    -0.032 C 
HETATM    3  C   UNK N   1      31.364  16.682   7.309  0.00  0.00    -0.035 C 
HETATM    4  C   UNK N   1      30.111  17.145   6.508  0.00  0.00     0.005 C 
HETATM    5  C   UNK N   1      27.659  16.405   5.115  0.00  0.00     0.030 C 
HETATM    6  C   UNK N   1      32.640  16.545   6.401  0.00  0.00     0.004 C 
HETATM    7  C   UNK N   1      33.944  16.372   7.247  0.00  0.00    -0.017 C 
HETATM    8  C   UNK N   1      27.531  17.001   6.526  0.00  0.00     0.123 C 
HETATM    9  C   UNK N   1      26.428  16.380   4.194  0.00  0.00     0.027 C 
HETATM   10  C   UNK N   1      28.828  16.750   7.283  0.00  0.00     0.038 C 
HETATM   11  C   UNK N   1      33.556  15.543   8.499  0.00  0.00     0.133 C 
HETATM   12  C   UNK N   1      28.589  16.482   2.942  0.00  0.00     0.011 C 
HETATM   13  C   UNK N   1      31.385  17.370   4.340  0.00  0.00     0.011 C 
HETATM   14  C   UNK N   1      31.146  15.275   7.949  0.00  0.00     0.012 C 
HETATM   15  C   UNK N   1      32.641  17.557   5.251  0.00  0.00     0.007 C 
HETATM   16  C   UNK N   1      27.065  16.445   2.783  0.00  0.00     0.009 C 
HETATM   17  C   UNK N   1      32.434  14.532   8.346  0.00  0.00     0.034 C 
HETATM   18  C   UNK N   1      28.646  18.584   4.196  0.00  0.00     0.016 C 
HETATM   19  C   UNK N   1      30.346  15.153   4.908  0.00  0.00     0.016 C 
HETATM   20  C   UNK N   1      31.546  17.705   8.439  0.00  0.00     0.016 C 
HETATM   21  C   UNK N   1      35.022  15.667   6.434  0.00  0.00     0.018 C 
HETATM   22  C   UNK N   1      34.498  17.715   7.698  0.00  0.00     0.018 C 
ENDROOT
BRANCH   9  23
HETATM   23  C   UNK N   1      25.507  15.081   4.296  0.00  0.00     0.065 C 
HETATM   24  C   UNK N   1      26.339  13.872   4.722  0.00  0.00     0.046 C 
BRANCH  23  25
HETATM   25  O   UNK N   1      24.330  15.128   5.097  0.00  0.00    -0.348 OA
BRANCH  25  26
HETATM   26  C   UNK N   1      23.259  15.857   4.522  0.00  0.00     0.292 C 
HETATM   27  O   UNK N   1      22.078  15.081   4.524  0.00  0.00    -0.348 OA
HETATM   28  C   UNK N   1      21.667  14.779   5.861  0.00  0.00     0.180 C 
HETATM   29  C   UNK N   1      21.829  15.962   6.847  0.00  0.00     0.180 C 
HETATM   30  C   UNK N   1      21.833  17.286   6.102  0.00  0.00     0.183 C 
HETATM   31  C   UNK N   1      23.003  17.269   5.117  0.00  0.00     0.204 C 
BRANCH  28  32
HETATM   32  C   UNK N   1      22.346  13.489   6.329  0.00  0.00     0.205 C 
BRANCH  32  33
HETATM   33  O   UNK N   1      22.834  13.555   7.642  0.00  0.00    -0.356 OA
BRANCH  33  34
HETATM   34  C   UNK N   1      23.906  12.637   7.705  0.00  0.00     0.290 C 
HETATM   35  O   UNK N   1      23.524  11.394   8.274  0.00  0.00    -0.356 OA
HETATM   36  C   UNK N   1      23.096  11.604   9.601  0.00  0.00     0.205 C 
HETATM   37  C   UNK N   1      24.270  12.047  10.468  0.00  0.00     0.173 C 
HETATM   38  C   UNK N   1      24.793  13.373   9.924  0.00  0.00     0.182 C 
HETATM   39  C   UNK N   1      25.121  13.217   8.442  0.00  0.00     0.204 C 
BRANCH  37  40
HETATM   40  O   UNK N   1      23.839  12.208  11.785  0.00  0.00    -0.391 OA
HETATM   41  H   UNK N   1      23.251  12.896  12.132  0.00  0.00     0.210 HD
ENDBRANCH  37  40
BRANCH  38  42
HETATM   42  O   UNK N   1      25.933  13.762  10.629  0.00  0.00    -0.390 OA
HETATM   43  H   UNK N   1      26.657  13.208  10.960  0.00  0.00     0.210 HD
ENDBRANCH  38  42
BRANCH  39  44
HETATM   44  O   UNK N   1      25.492  14.443   7.891  0.00  0.00    -0.388 OA
HETATM   45  H   UNK N   1      26.093  15.038   8.366  0.00  0.00     0.210 HD
ENDBRANCH  39  44
ENDBRANCH  33  34
ENDBRANCH  32  33
ENDBRANCH  28  32
BRANCH  29  46
HETATM   46  O   UNK N   1      20.818  15.935   7.811  0.00  0.00    -0.390 OA
HETATM   47  H   UNK N   1      20.653  16.693   8.395  0.00  0.00     0.210 HD
ENDBRANCH  29  46
BRANCH  30  48
HETATM   48  O   UNK N   1      20.631  17.452   5.409  0.00  0.00    -0.390 OA
HETATM   49  H   UNK N   1      19.743  17.820   5.536  0.00  0.00     0.210 HD
ENDBRANCH  30  48
BRANCH  31  50
HETATM   50  O   UNK N   1      24.140  17.802   5.709  0.00  0.00    -0.388 OA
HETATM   51  H   UNK N   1      25.045  18.046   5.961  0.00  0.00     0.210 HD
ENDBRANCH  31  50
ENDBRANCH  25  26
ENDBRANCH  23  25
BRANCH  23  52
HETATM   52  C   UNK N   1      25.033  14.719   2.886  0.00  0.00     0.042 C 
BRANCH  52  53
HETATM   53  C   UNK N   1      25.079  13.228   2.599  0.00  0.00     0.030 C 
BRANCH  53  54
HETATM   54  C   UNK N   1      23.675  12.733   2.486  0.00  0.00    -0.025 C 
HETATM   55  C   UNK N   1      23.037  12.651   1.313  0.00  0.00    -0.091 C 
HETATM   56  C   UNK N   1      21.643  12.127   1.279  0.00  0.00     0.042 C 
HETATM   57  C   UNK N   1      23.694  13.051   0.031  0.00  0.00     0.042 C 
ENDBRANCH  53  54
ENDBRANCH  52  53
ENDBRANCH  23  52
ENDBRANCH   9  23
BRANCH   8  58
HETATM   58  O   UNK N   1      27.202  18.358   6.522  0.00  0.00    -0.395 OA
HETATM   59  H   UNK N   1      26.912  19.187   6.108  0.00  0.00     0.210 HD
ENDBRANCH   8  58
BRANCH  11  60
HETATM   60  O   UNK N   1      34.532  15.174   9.426  0.00  0.00    -0.352 OA
BRANCH  60  61
HETATM   61  C   UNK N   1      35.075  13.961   8.952  0.00  0.00     0.292 C 
HETATM   62  O   UNK N   1      36.475  13.993   8.700  0.00  0.00    -0.348 OA
HETATM   63  C   UNK N   1      37.174  14.175   9.910  0.00  0.00     0.179 C 
HETATM   64  C   UNK N   1      37.035  12.905  10.759  0.00  0.00     0.180 C 
HETATM   65  C   UNK N   1      35.556  12.727  11.114  0.00  0.00     0.183 C 
HETATM   66  C   UNK N   1      34.700  12.779   9.845  0.00  0.00     0.211 C 
BRANCH  63  67
HETATM   67  C   UNK N   1      38.624  14.507   9.585  0.00  0.00     0.198 C 
BRANCH  67  68
HETATM   68  O   UNK N   1      38.953  14.058   8.306  0.00  0.00    -0.398 OA
HETATM   69  H   UNK N   1      38.969  13.158   7.945  0.00  0.00     0.209 HD
ENDBRANCH  67  68
ENDBRANCH  63  67
BRANCH  64  70
HETATM   70  O   UNK N   1      37.794  12.986  11.930  0.00  0.00    -0.390 OA
HETATM   71  H   UNK N   1      38.300  12.245  12.296  0.00  0.00     0.210 HD
ENDBRANCH  64  70
BRANCH  65  72
HETATM   72  O   UNK N   1      35.149  13.739  11.987  0.00  0.00    -0.390 OA
HETATM   73  H   UNK N   1      34.906  14.320  12.724  0.00  0.00     0.210 HD
ENDBRANCH  65  72
BRANCH  66  74
HETATM   74  O   UNK N   1      34.785  11.589   9.110  0.00  0.00    -0.346 OA
BRANCH  74  75
HETATM   75  C   UNK N   1      34.436  10.533   9.983  0.00  0.00     0.292 C 
HETATM   76  O   UNK N   1      33.064  10.167   9.874  0.00  0.00    -0.348 OA
HETATM   77  C   UNK N   1      32.966   9.078   8.989  0.00  0.00     0.179 C 
HETATM   78  C   UNK N   1      33.534   7.781   9.602  0.00  0.00     0.180 C 
HETATM   79  C   UNK N   1      34.749   8.083  10.510  0.00  0.00     0.183 C 
HETATM   80  C   UNK N   1      35.445   9.343   9.998  0.00  0.00     0.204 C 
BRANCH  77  81
HETATM   81  C   UNK N   1      31.591   8.970   8.344  0.00  0.00     0.198 C 
BRANCH  81  82
HETATM   82  O   UNK N   1      30.624   8.659   9.300  0.00  0.00    -0.398 OA
HETATM   83  H   UNK N   1      29.675   8.675   9.099  0.00  0.00     0.209 HD
ENDBRANCH  81  82
ENDBRANCH  77  81
BRANCH  78  84
HETATM   84  O   UNK N   1      32.566   7.057  10.304  0.00  0.00    -0.390 OA
HETATM   85  H   UNK N   1      32.819   6.438  11.006  0.00  0.00     0.210 HD
ENDBRANCH  78  84
BRANCH  79  86
HETATM   86  O   UNK N   1      34.338   8.289  11.832  0.00  0.00    -0.390 OA
HETATM   87  H   UNK N   1      33.978   9.018  12.361  0.00  0.00     0.210 HD
ENDBRANCH  79  86
BRANCH  80  88
HETATM   88  O   UNK N   1      36.574   9.656  10.756  0.00  0.00    -0.388 OA
HETATM   89  H   UNK N   1      37.285  10.313  10.805  0.00  0.00     0.210 HD
ENDBRANCH  80  88
ENDBRANCH  74  75
ENDBRANCH  66  74
ENDBRANCH  60  61
ENDBRANCH  11  60
TORSDOF 29
ENDMDL
MODEL 9
REMARK VINA RESULT:      -8.6      2.714     12.942
REMARK  29 active torsions:
REMARK  status: ('A' for Active; 'I' for Inactive)
REMARK    1  A    between atoms: C_1  and  O_12 
REMARK    2  A    between atoms: C_2  and  O_7 
REMARK    3  A    between atoms: C_3  and  O_8 
REMARK    4  A    between atoms: C_5  and  O_9 
REMARK    5  A    between atoms: C_6  and  C_10 
REMARK    6  A    between atoms: O_11  and  C_10 
REMARK    7  A    between atoms: C_15  and  O_12 
REMARK    8  A    between atoms: C_18  and  O_37 
REMARK    9  A    between atoms: C_19  and  O_36 
REMARK   10  A    between atoms: C_20  and  O_49 
REMARK   11  A    between atoms: C_22  and  O_50 
REMARK   12  A    between atoms: C_24  and  O_51 
REMARK   13  A    between atoms: C_28  and  O_53 
REMARK   14  A    between atoms: C_29  and  O_52 
REMARK   15  A    between atoms: C_30  and  C_45 
REMARK   16  A    between atoms: C_31  and  O_55 
REMARK   17  A    between atoms: C_32  and  C_59 
REMARK   18  A    between atoms: C_35  and  C_33 
REMARK   19  A    between atoms: C_35  and  O_36 
REMARK   20  A    between atoms: C_58  and  C_35 
REMARK   21  A    between atoms: C_38  and  O_37 
REMARK   22  A    between atoms: O_44  and  C_45 
REMARK   23  A    between atoms: C_65  and  O_44 
REMARK   24  A    between atoms: C_48  and  C_60 
REMARK   25  A    between atoms: C_60  and  C_58 
REMARK   26  A    between atoms: O_62  and  C_59 
REMARK   27  A    between atoms: C_68  and  O_73 
REMARK   28  A    between atoms: C_69  and  O_72 
REMARK   29  A    between atoms: C_70  and  O_71 
ROOT
HETATM    1  C   UNK N   1      30.941  16.128   4.586  0.00  0.00    -0.030 C 
HETATM    2  C   UNK N   1      29.392  16.009   4.392  0.00  0.00    -0.032 C 
HETATM    3  C   UNK N   1      27.474  14.276   4.215  0.00  0.00    -0.035 C 
HETATM    4  C   UNK N   1      29.014  14.495   4.273  0.00  0.00     0.005 C 
HETATM    5  C   UNK N   1      31.334  15.321   5.835  0.00  0.00     0.030 C 
HETATM    6  C   UNK N   1      26.718  15.492   3.565  0.00  0.00     0.004 C 
HETATM    7  C   UNK N   1      25.227  15.149   3.241  0.00  0.00    -0.017 C 
HETATM    8  C   UNK N   1      31.105  13.815   5.631  0.00  0.00     0.123 C 
HETATM    9  C   UNK N   1      32.717  15.818   6.283  0.00  0.00     0.027 C 
HETATM   10  C   UNK N   1      29.626  13.576   5.361  0.00  0.00     0.038 C 
HETATM   11  C   UNK N   1      24.737  14.193   4.360  0.00  0.00     0.133 C 
HETATM   12  C   UNK N   1      31.453  17.509   4.945  0.00  0.00     0.011 C 
HETATM   13  C   UNK N   1      28.900  16.724   3.092  0.00  0.00     0.011 C 
HETATM   14  C   UNK N   1      26.864  14.112   5.643  0.00  0.00     0.012 C 
HETATM   15  C   UNK N   1      27.561  16.188   2.492  0.00  0.00     0.007 C 
HETATM   16  C   UNK N   1      32.774  17.243   5.675  0.00  0.00     0.009 C 
HETATM   17  C   UNK N   1      25.349  14.360   5.738  0.00  0.00     0.034 C 
HETATM   18  C   UNK N   1      31.706  15.688   3.327  0.00  0.00     0.016 C 
HETATM   19  C   UNK N   1      28.697  16.671   5.596  0.00  0.00     0.016 C 
HETATM   20  C   UNK N   1      27.261  12.965   3.445  0.00  0.00     0.016 C 
HETATM   21  C   UNK N   1      24.383  16.416   3.192  0.00  0.00     0.018 C 
HETATM   22  C   UNK N   1      25.097  14.445   1.899  0.00  0.00     0.018 C 
ENDROOT
BRANCH   9  23
HETATM   23  C   UNK N   1      32.951  15.909   7.859  0.00  0.00     0.065 C 
HETATM   24  C   UNK N   1      32.002  14.962   8.591  0.00  0.00     0.046 C 
BRANCH  23  25
HETATM   25  O   UNK N   1      34.266  15.725   8.375  0.00  0.00    -0.348 OA
BRANCH  25  26
HETATM   26  C   UNK N   1      34.315  15.423   9.758  0.00  0.00     0.292 C 
HETATM   27  O   UNK N   1      34.638  14.061   9.954  0.00  0.00    -0.348 OA
HETATM   28  C   UNK N   1      35.942  13.766   9.447  0.00  0.00     0.180 C 
HETATM   29  C   UNK N   1      36.990  14.868   9.738  0.00  0.00     0.180 C 
HETATM   30  C   UNK N   1      36.575  15.701  10.938  0.00  0.00     0.183 C 
HETATM   31  C   UNK N   1      35.222  16.343  10.622  0.00  0.00     0.204 C 
BRANCH  28  32
HETATM   32  C   UNK N   1      35.845  13.384   7.967  0.00  0.00     0.205 C 
BRANCH  32  33
HETATM   33  O   UNK N   1      36.867  13.929   7.176  0.00  0.00    -0.356 OA
BRANCH  33  34
HETATM   34  C   UNK N   1      37.673  12.840   6.776  0.00  0.00     0.290 C 
HETATM   35  O   UNK N   1      38.993  12.921   7.293  0.00  0.00    -0.356 OA
HETATM   36  C   UNK N   1      39.613  14.086   6.796  0.00  0.00     0.205 C 
HETATM   37  C   UNK N   1      39.827  13.966   5.290  0.00  0.00     0.173 C 
HETATM   38  C   UNK N   1      38.462  13.836   4.622  0.00  0.00     0.182 C 
HETATM   39  C   UNK N   1      37.700  12.672   5.251  0.00  0.00     0.204 C 
BRANCH  37  40
HETATM   40  O   UNK N   1      40.481  15.104   4.822  0.00  0.00    -0.391 OA
HETATM   41  H   UNK N   1      40.205  16.028   4.928  0.00  0.00     0.210 HD
ENDBRANCH  37  40
BRANCH  38  42
HETATM   42  O   UNK N   1      38.619  13.620   3.252  0.00  0.00    -0.390 OA
HETATM   43  H   UNK N   1      38.850  12.798   2.792  0.00  0.00     0.210 HD
ENDBRANCH  38  42
BRANCH  39  44
HETATM   44  O   UNK N   1      36.404  12.602   4.740  0.00  0.00    -0.388 OA
HETATM   45  H   UNK N   1      35.866  11.804   4.865  0.00  0.00     0.210 HD
ENDBRANCH  39  44
ENDBRANCH  33  34
ENDBRANCH  32  33
ENDBRANCH  28  32
BRANCH  29  46
HETATM   46  O   UNK N   1      38.251  14.301   9.936  0.00  0.00    -0.390 OA
HETATM   47  H   UNK N   1      39.042  14.658   9.501  0.00  0.00     0.210 HD
ENDBRANCH  29  46
BRANCH  30  48
HETATM   48  O   UNK N   1      36.462  14.890  12.071  0.00  0.00    -0.390 OA
HETATM   49  H   UNK N   1      37.015  14.499  12.765  0.00  0.00     0.210 HD
ENDBRANCH  30  48
BRANCH  31  50
HETATM   50  O   UNK N   1      35.405  17.591  10.043  0.00  0.00    -0.388 OA
HETATM   51  H   UNK N   1      35.539  18.535   9.862  0.00  0.00     0.210 HD
ENDBRANCH  31  50
ENDBRANCH  25  26
ENDBRANCH  23  25
BRANCH  23  52
HETATM   52  C   UNK N   1      32.514  17.300   8.328  0.00  0.00     0.042 C 
BRANCH  52  53
HETATM   53  C   UNK N   1      31.190  17.295   9.072  0.00  0.00     0.030 C 
BRANCH  53  54
HETATM   54  C   UNK N   1      30.298  18.314   8.441  0.00  0.00    -0.025 C 
HETATM   55  C   UNK N   1      28.973  18.314   8.621  0.00  0.00    -0.091 C 
HETATM   56  C   UNK N   1      28.153  19.376   7.974  0.00  0.00     0.042 C 
HETATM   57  C   UNK N   1      28.295  17.291   9.473  0.00  0.00     0.042 C 
ENDBRANCH  53  54
ENDBRANCH  52  53
ENDBRANCH  23  52
ENDBRANCH   9  23
BRANCH   8  58
HETATM   58  O   UNK N   1      31.898  13.271   4.618  0.00  0.00    -0.395 OA
HETATM   59  H   UNK N   1      32.220  13.193   3.705  0.00  0.00     0.210 HD
ENDBRANCH   8  58
BRANCH  11  60
HETATM   60  O   UNK N   1      23.412  13.753   4.374  0.00  0.00    -0.352 OA
BRANCH  60  61
HETATM   61  C   UNK N   1      22.813  14.372   5.492  0.00  0.00     0.292 C 
HETATM   62  O   UNK N   1      21.898  15.415   5.174  0.00  0.00    -0.348 OA
HETATM   63  C   UNK N   1      20.782  14.883   4.498  0.00  0.00     0.179 C 
HETATM   64  C   UNK N   1      19.965  14.034   5.481  0.00  0.00     0.180 C 
HETATM   65  C   UNK N   1      20.830  12.852   5.926  0.00  0.00     0.183 C 
HETATM   66  C   UNK N   1      22.183  13.353   6.440  0.00  0.00     0.211 C 
BRANCH  63  67
HETATM   67  C   UNK N   1      19.978  16.034   3.910  0.00  0.00     0.198 C 
BRANCH  67  68
HETATM   68  O   UNK N   1      20.537  17.258   4.279  0.00  0.00    -0.398 OA
HETATM   69  H   UNK N   1      21.215  17.460   4.943  0.00  0.00     0.209 HD
ENDBRANCH  67  68
ENDBRANCH  63  67
BRANCH  64  70
HETATM   70  O   UNK N   1      18.788  13.562   4.895  0.00  0.00    -0.390 OA
HETATM   71  H   UNK N   1      17.902  13.866   5.145  0.00  0.00     0.210 HD
ENDBRANCH  64  70
BRANCH  65  72
HETATM   72  O   UNK N   1      21.039  11.982   4.853  0.00  0.00    -0.390 OA
HETATM   73  H   UNK N   1      21.001  11.366   4.104  0.00  0.00     0.210 HD
ENDBRANCH  65  72
BRANCH  66  74
HETATM   74  O   UNK N   1      22.080  13.908   7.724  0.00  0.00    -0.346 OA
BRANCH  74  75
HETATM   75  C   UNK N   1      22.441  12.898   8.645  0.00  0.00     0.292 C 
HETATM   76  O   UNK N   1      23.850  12.697   8.708  0.00  0.00    -0.348 OA
HETATM   77  C   UNK N   1      24.357  13.451   9.781  0.00  0.00     0.179 C 
HETATM   78  C   UNK N   1      23.949  12.862  11.147  0.00  0.00     0.180 C 
HETATM   79  C   UNK N   1      22.531  12.245  11.083  0.00  0.00     0.183 C 
HETATM   80  C   UNK N   1      21.718  12.989  10.025  0.00  0.00     0.204 C 
BRANCH  77  81
HETATM   81  C   UNK N   1      25.831  13.794   9.610  0.00  0.00     0.198 C 
BRANCH  81  82
HETATM   82  O   UNK N   1      26.365  14.270  10.808  0.00  0.00    -0.398 OA
HETATM   83  H   UNK N   1      27.030  14.976  10.832  0.00  0.00     0.209 HD
ENDBRANCH  81  82
ENDBRANCH  77  81
BRANCH  78  84
HETATM   84  O   UNK N   1      24.870  11.921  11.616  0.00  0.00    -0.390 OA
HETATM   85  H   UNK N   1      25.782  12.176  11.822  0.00  0.00     0.210 HD
ENDBRANCH  78  84
BRANCH  79  86
HETATM   86  O   UNK N   1      22.597  10.889  10.743  0.00  0.00    -0.390 OA
HETATM   87  H   UNK N   1      23.252  10.278  10.372  0.00  0.00     0.210 HD
ENDBRANCH  79  86
BRANCH  80  88
HETATM   88  O   UNK N   1      20.414  12.503   9.936  0.00  0.00    -0.388 OA
HETATM   89  H   UNK N   1      19.850  11.799  10.292  0.00  0.00     0.210 HD
ENDBRANCH  80  88
ENDBRANCH  74  75
ENDBRANCH  66  74
ENDBRANCH  60  61
ENDBRANCH  11  60
TORSDOF 29
ENDMDL
