MODEL 1
REMARK VINA RESULT:      -7.6      0.000      0.000
REMARK  4 active torsions:
REMARK  status: ('A' for Active; 'I' for Inactive)
REMARK    1  A    between atoms: C_4  and  O_20 
REMARK    2  A    between atoms: C_13  and  O_25 
REMARK    3  A    between atoms: C_17  and  C_26 
REMARK    4  A    between atoms: C_18  and  O_30 
ROOT
HETATM    1  C   UNK N   1      36.110  13.850  12.745  0.00  0.00     0.266 C 
HETATM    2  O   UNK N   1      34.950  14.478  12.470  0.00  0.00    -0.312 OA
HETATM    3  C   UNK N   1      34.927  14.934  11.185  0.00  0.00     0.171 C 
HETATM    4  C   UNK N   1      36.403  14.528  10.532  0.00  0.00     0.138 C 
HETATM    5  C   UNK N   1      36.978  13.534  11.556  0.00  0.00     0.122 C 
HETATM    6  C   UNK N   1      34.346  14.909   8.595  0.00  0.00     0.051 A 
HETATM    7  C   UNK N   1      36.077  14.193   8.855  0.00  0.00     0.196 A 
HETATM    8  C   UNK N   1      34.142  14.850   6.792  0.00  0.00     0.066 C 
HETATM    9  C   UNK N   1      35.755  14.481   6.389  0.00  0.00     0.284 C 
HETATM   10  O   UNK N   1      36.757  14.300   7.523  0.00  0.00    -0.334 OA
HETATM   11  O   UNK N   1      35.669  13.269   5.757  0.00  0.00    -0.287 OA
HETATM   12  C   UNK N   1      34.432  12.773   5.692  0.00  0.00     0.291 C 
HETATM   13  C   UNK N   1      33.350  13.668   6.166  0.00  0.00     0.232 C 
HETATM   14  O   UNK N   1      36.501  13.712  13.893  0.00  0.00    -0.265 OA
HETATM   15  C   UNK N   1      33.545  14.820  10.244  0.00  0.00     0.052 C 
HETATM   16  C   UNK N   1      34.431  16.302   8.708  0.00  0.00     0.174 A 
HETATM   17  C   UNK N   1      33.751  16.310   6.418  0.00  0.00     0.042 C 
HETATM   18  C   UNK N   1      34.700  16.988   7.397  0.00  0.00     0.154 C 
HETATM   19  O   UNK N   1      34.204  11.697   5.163  0.00  0.00    -0.262 OA
HETATM   20  C   UNK N   1      36.796  12.065  11.223  0.00  0.00     0.024 C 
HETATM   21  C   UNK N   1      35.109  13.672   8.733  0.00  0.00     0.298 A 
HETATM   22  O   UNK N   1      35.195  15.214   8.761  0.00  0.00    -0.310 OA
HETATM   23  O   UNK N   1      34.790  12.746   9.520  0.00  0.00    -0.262 OA
ENDROOT
BRANCH  17  24
HETATM   24  C   UNK N   1      32.236  16.758   6.607  0.00  0.00    -0.044 C 
HETATM   25  C   UNK N   1      31.632  17.230   5.295  0.00  0.00     0.015 C 
HETATM   26  C   UNK N   1      31.343  15.611   7.017  0.00  0.00     0.015 C 
HETATM   27  C   UNK N   1      32.035  17.865   7.630  0.00  0.00     0.015 C 
ENDBRANCH  17  24
BRANCH  18  28
HETATM   28  O   UNK N   1      34.560  18.370   7.504  0.00  0.00    -0.393 OA
HETATM   29  H   UNK N   1      34.209  18.976   6.833  0.00  0.00     0.210 HD
ENDBRANCH  18  28
BRANCH  13  30
HETATM   30  O   UNK N   1      32.686  14.043   4.999  0.00  0.00    -0.385 OA
HETATM   31  H   UNK N   1      31.811  14.459   5.051  0.00  0.00     0.210 HD
ENDBRANCH  13  30
BRANCH   4  32
HETATM   32  O   UNK N   1      37.188  15.682  10.595  0.00  0.00    -0.383 OA
HETATM   33  H   UNK N   1      38.029  16.166  10.577  0.00  0.00     0.210 HD
ENDBRANCH   4  32
TORSDOF 4
ENDMDL
MODEL 2
REMARK VINA RESULT:      -7.6      3.669      7.440
REMARK  4 active torsions:
REMARK  status: ('A' for Active; 'I' for Inactive)
REMARK    1  A    between atoms: C_4  and  O_20 
REMARK    2  A    between atoms: C_13  and  O_25 
REMARK    3  A    between atoms: C_17  and  C_26 
REMARK    4  A    between atoms: C_18  and  O_30 
ROOT
HETATM    1  C   UNK N   1      35.951  16.071  10.949  0.00  0.00     0.266 C 
HETATM    2  O   UNK N   1      36.074  15.761  12.255  0.00  0.00    -0.312 OA
HETATM    3  C   UNK N   1      35.692  14.474  12.495  0.00  0.00     0.171 C 
HETATM    4  C   UNK N   1      35.195  13.866  11.028  0.00  0.00     0.138 C 
HETATM    5  C   UNK N   1      35.712  14.909  10.022  0.00  0.00     0.122 C 
HETATM    6  C   UNK N   1      36.003  11.868  12.895  0.00  0.00     0.051 A 
HETATM    7  C   UNK N   1      35.633  12.181  11.067  0.00  0.00     0.196 A 
HETATM    8  C   UNK N   1      36.143  10.060  12.984  0.00  0.00     0.066 C 
HETATM    9  C   UNK N   1      35.542   9.705  11.430  0.00  0.00     0.284 C 
HETATM   10  O   UNK N   1      35.147  10.869  10.528  0.00  0.00    -0.334 OA
HETATM   11  O   UNK N   1      36.586   9.076  10.808  0.00  0.00    -0.287 OA
HETATM   12  C   UNK N   1      37.689   8.976  11.554  0.00  0.00     0.291 C 
HETATM   13  C   UNK N   1      37.557   9.415  12.963  0.00  0.00     0.232 C 
HETATM   14  O   UNK N   1      35.862  17.230  10.578  0.00  0.00    -0.265 OA
HETATM   15  C   UNK N   1      36.547  13.493  13.552  0.00  0.00     0.052 C 
HETATM   16  C   UNK N   1      34.802  11.978  13.606  0.00  0.00     0.174 A 
HETATM   17  C   UNK N   1      35.145   9.669  14.114  0.00  0.00     0.042 C 
HETATM   18  C   UNK N   1      34.066  10.673  13.731  0.00  0.00     0.154 C 
HETATM   19  O   UNK N   1      38.700   8.445  11.128  0.00  0.00    -0.262 OA
HETATM   20  C   UNK N   1      37.027  14.576   9.344  0.00  0.00     0.024 C 
HETATM   21  C   UNK N   1      36.604  12.033  11.574  0.00  0.00     0.298 A 
HETATM   22  O   UNK N   1      35.278  12.058  12.366  0.00  0.00    -0.310 OA
HETATM   23  O   UNK N   1      37.561  12.814  11.342  0.00  0.00    -0.262 OA
ENDROOT
BRANCH  17  24
HETATM   24  C   UNK N   1      35.623   9.813  15.625  0.00  0.00    -0.044 C 
HETATM   25  C   UNK N   1      34.543  10.445  16.487  0.00  0.00     0.015 C 
HETATM   26  C   UNK N   1      35.865   8.476  16.283  0.00  0.00     0.015 C 
HETATM   27  C   UNK N   1      36.891  10.633  15.803  0.00  0.00     0.015 C 
ENDBRANCH  17  24
BRANCH  18  28
HETATM   28  O   UNK N   1      32.999  10.771  14.623  0.00  0.00    -0.393 OA
HETATM   29  H   UNK N   1      32.288  11.432  14.615  0.00  0.00     0.210 HD
ENDBRANCH  18  28
BRANCH  13  30
HETATM   30  O   UNK N   1      37.601   8.228  13.692  0.00  0.00    -0.385 OA
HETATM   31  H   UNK N   1      38.216   8.140  14.438  0.00  0.00     0.210 HD
ENDBRANCH  13  30
BRANCH   4  32
HETATM   32  O   UNK N   1      33.801  13.947  11.024  0.00  0.00    -0.383 OA
HETATM   33  H   UNK N   1      32.909  13.639  11.252  0.00  0.00     0.210 HD
ENDBRANCH   4  32
TORSDOF 4
ENDMDL
MODEL 3
REMARK VINA RESULT:      -7.6      1.849      3.901
REMARK  4 active torsions:
REMARK  status: ('A' for Active; 'I' for Inactive)
REMARK    1  A    between atoms: C_4  and  O_20 
REMARK    2  A    between atoms: C_13  and  O_25 
REMARK    3  A    between atoms: C_17  and  C_26 
REMARK    4  A    between atoms: C_18  and  O_30 
ROOT
HETATM    1  C   UNK N   1      36.663  11.472  10.679  0.00  0.00     0.266 C 
HETATM    2  O   UNK N   1      36.671  11.445   9.332  0.00  0.00    -0.312 OA
HETATM    3  C   UNK N   1      35.675  12.221   8.815  0.00  0.00     0.171 C 
HETATM    4  C   UNK N   1      34.854  12.836  10.126  0.00  0.00     0.138 C 
HETATM    5  C   UNK N   1      35.792  12.529  11.305  0.00  0.00     0.122 C 
HETATM    6  C   UNK N   1      34.571  14.386   7.749  0.00  0.00     0.051 A 
HETATM    7  C   UNK N   1      34.327  14.419   9.624  0.00  0.00     0.196 A 
HETATM    8  C   UNK N   1      33.730  15.898   7.198  0.00  0.00     0.066 C 
HETATM    9  C   UNK N   1      32.951  16.277   8.665  0.00  0.00     0.284 C 
HETATM   10  O   UNK N   1      33.190  15.365   9.863  0.00  0.00    -0.334 OA
HETATM   11  O   UNK N   1      33.464  17.499   9.006  0.00  0.00    -0.287 OA
HETATM   12  C   UNK N   1      34.382  17.964   8.155  0.00  0.00     0.291 C 
HETATM   13  C   UNK N   1      34.580  17.170   6.921  0.00  0.00     0.232 C 
HETATM   14  O   UNK N   1      37.185  10.585  11.335  0.00  0.00    -0.265 OA
HETATM   15  C   UNK N   1      35.931  13.186   7.469  0.00  0.00     0.052 C 
HETATM   16  C   UNK N   1      33.653  13.478   7.208  0.00  0.00     0.174 A 
HETATM   17  C   UNK N   1      32.740  15.392   6.108  0.00  0.00     0.042 C 
HETATM   18  C   UNK N   1      32.343  14.112   6.832  0.00  0.00     0.154 C 
HETATM   19  O   UNK N   1      34.931  19.039   8.335  0.00  0.00    -0.262 OA
HETATM   20  C   UNK N   1      36.690  13.669  11.748  0.00  0.00     0.024 C 
HETATM   21  C   UNK N   1      35.096  14.916   9.005  0.00  0.00     0.298 A 
HETATM   22  O   UNK N   1      34.032  13.990   8.376  0.00  0.00    -0.310 OA
HETATM   23  O   UNK N   1      36.308  14.850   9.331  0.00  0.00    -0.262 OA
ENDROOT
BRANCH  17  24
HETATM   24  C   UNK N   1      33.300  15.131   4.643  0.00  0.00    -0.044 C 
HETATM   25  C   UNK N   1      32.611  13.944   3.992  0.00  0.00     0.015 C 
HETATM   26  C   UNK N   1      33.005  16.273   3.700  0.00  0.00     0.015 C 
HETATM   27  C   UNK N   1      34.799  14.881   4.582  0.00  0.00     0.015 C 
ENDBRANCH  17  24
BRANCH  18  28
HETATM   28  O   UNK N   1      31.541  13.237   6.101  0.00  0.00    -0.393 OA
HETATM   29  H   UNK N   1      30.757  13.462   5.576  0.00  0.00     0.210 HD
ENDBRANCH  18  28
BRANCH  13  30
HETATM   30  O   UNK N   1      34.024  17.962   5.917  0.00  0.00    -0.385 OA
HETATM   31  H   UNK N   1      34.191  18.917   5.904  0.00  0.00     0.210 HD
ENDBRANCH  13  30
BRANCH   4  32
HETATM   32  O   UNK N   1      33.719  12.037  10.285  0.00  0.00    -0.383 OA
HETATM   33  H   UNK N   1      32.858  11.814  10.672  0.00  0.00     0.210 HD
ENDBRANCH   4  32
TORSDOF 4
ENDMDL
MODEL 4
REMARK VINA RESULT:      -7.5     13.749     17.555
REMARK  4 active torsions:
REMARK  status: ('A' for Active; 'I' for Inactive)
REMARK    1  A    between atoms: C_4  and  O_20 
REMARK    2  A    between atoms: C_13  and  O_25 
REMARK    3  A    between atoms: C_17  and  C_26 
REMARK    4  A    between atoms: C_18  and  O_30 
ROOT
HETATM    1  C   UNK N   1      32.202  21.750  -2.728  0.00  0.00     0.266 C 
HETATM    2  O   UNK N   1      31.177  22.437  -2.188  0.00  0.00    -0.312 OA
HETATM    3  C   UNK N   1      30.601  23.267  -3.104  0.00  0.00     0.171 C 
HETATM    4  C   UNK N   1      31.479  23.076  -4.505  0.00  0.00     0.138 C 
HETATM    5  C   UNK N   1      32.312  21.812  -4.228  0.00  0.00     0.122 C 
HETATM    6  C   UNK N   1      28.830  24.044  -4.923  0.00  0.00     0.051 A 
HETATM    7  C   UNK N   1      30.323  23.276  -5.792  0.00  0.00     0.196 A 
HETATM    8  C   UNK N   1      27.762  24.544  -6.303  0.00  0.00     0.066 C 
HETATM    9  C   UNK N   1      28.886  24.310  -7.562  0.00  0.00     0.284 C 
HETATM   10  O   UNK N   1      30.271  23.784  -7.201  0.00  0.00    -0.334 OA
HETATM   11  O   UNK N   1      28.305  23.353  -8.349  0.00  0.00    -0.287 OA
HETATM   12  C   UNK N   1      27.133  22.905  -7.894  0.00  0.00     0.291 C 
HETATM   13  C   UNK N   1      26.585  23.616  -6.714  0.00  0.00     0.232 C 
HETATM   14  O   UNK N   1      33.077  21.264  -2.030  0.00  0.00    -0.265 OA
HETATM   15  C   UNK N   1      28.937  23.454  -3.188  0.00  0.00     0.052 C 
HETATM   16  C   UNK N   1      29.184  25.334  -4.510  0.00  0.00     0.174 A 
HETATM   17  C   UNK N   1      27.481  26.050  -6.024  0.00  0.00     0.042 C 
HETATM   18  C   UNK N   1      28.884  26.389  -5.539  0.00  0.00     0.154 C 
HETATM   19  O   UNK N   1      26.504  22.047  -8.489  0.00  0.00    -0.262 OA
HETATM   20  C   UNK N   1      31.754  20.519  -4.790  0.00  0.00     0.024 C 
HETATM   21  C   UNK N   1      29.351  22.821  -5.528  0.00  0.00     0.298 A 
HETATM   22  O   UNK N   1      29.688  24.279  -5.146  0.00  0.00    -0.310 OA
HETATM   23  O   UNK N   1      29.313  21.699  -4.964  0.00  0.00    -0.262 OA
ENDROOT
BRANCH  17  24
HETATM   24  C   UNK N   1      26.350  26.424  -4.970  0.00  0.00    -0.044 C 
HETATM   25  C   UNK N   1      26.782  27.578  -4.082  0.00  0.00     0.015 C 
HETATM   26  C   UNK N   1      25.092  26.938  -5.631  0.00  0.00     0.015 C 
HETATM   27  C   UNK N   1      25.938  25.276  -4.063  0.00  0.00     0.015 C 
ENDBRANCH  17  24
BRANCH  18  28
HETATM   28  O   UNK N   1      29.041  27.672  -5.017  0.00  0.00    -0.393 OA
HETATM   29  H   UNK N   1      29.853  28.204  -5.007  0.00  0.00     0.210 HD
ENDBRANCH  18  28
BRANCH  13  30
HETATM   30  O   UNK N   1      25.505  24.335  -7.225  0.00  0.00    -0.385 OA
HETATM   31  H   UNK N   1      25.434  24.490  -8.180  0.00  0.00     0.210 HD
ENDBRANCH  13  30
BRANCH   4  32
HETATM   32  O   UNK N   1      32.370  24.151  -4.557  0.00  0.00    -0.383 OA
HETATM   33  H   UNK N   1      33.228  24.578  -4.411  0.00  0.00     0.210 HD
ENDBRANCH   4  32
TORSDOF 4
ENDMDL
MODEL 5
REMARK VINA RESULT:      -7.4      1.725      3.862
REMARK  4 active torsions:
REMARK  status: ('A' for Active; 'I' for Inactive)
REMARK    1  A    between atoms: C_4  and  O_20 
REMARK    2  A    between atoms: C_13  and  O_25 
REMARK    3  A    between atoms: C_17  and  C_26 
REMARK    4  A    between atoms: C_18  and  O_30 
ROOT
HETATM    1  C   UNK N   1      37.048  12.569  12.273  0.00  0.00     0.266 C 
HETATM    2  O   UNK N   1      37.327  12.346  10.974  0.00  0.00    -0.312 OA
HETATM    3  C   UNK N   1      36.321  12.792  10.168  0.00  0.00     0.171 C 
HETATM    4  C   UNK N   1      35.153  13.393  11.191  0.00  0.00     0.138 C 
HETATM    5  C   UNK N   1      35.882  13.482  12.543  0.00  0.00     0.122 C 
HETATM    6  C   UNK N   1      35.048  14.471   8.553  0.00  0.00     0.051 A 
HETATM    7  C   UNK N   1      34.438  14.724  10.325  0.00  0.00     0.196 A 
HETATM    8  C   UNK N   1      34.055  15.656   7.602  0.00  0.00     0.066 C 
HETATM    9  C   UNK N   1      32.943  16.061   8.827  0.00  0.00     0.284 C 
HETATM   10  O   UNK N   1      33.113  15.413  10.197  0.00  0.00    -0.334 OA
HETATM   11  O   UNK N   1      33.130  17.404   9.013  0.00  0.00    -0.287 OA
HETATM   12  C   UNK N   1      34.089  17.934   8.250  0.00  0.00     0.291 C 
HETATM   13  C   UNK N   1      34.678  17.031   7.233  0.00  0.00     0.232 C 
HETATM   14  O   UNK N   1      37.593  11.929  13.158  0.00  0.00    -0.265 OA
HETATM   15  C   UNK N   1      36.644  13.581   8.725  0.00  0.00     0.052 C 
HETATM   16  C   UNK N   1      34.451  13.309   8.050  0.00  0.00     0.174 A 
HETATM   17  C   UNK N   1      33.417  14.784   6.480  0.00  0.00     0.042 C 
HETATM   18  C   UNK N   1      33.142  13.569   7.356  0.00  0.00     0.154 C 
HETATM   19  O   UNK N   1      34.371  19.119   8.312  0.00  0.00    -0.262 OA
HETATM   20  C   UNK N   1      36.434  14.848  12.904  0.00  0.00     0.024 C 
HETATM   21  C   UNK N   1      35.202  15.285   9.756  0.00  0.00     0.298 A 
HETATM   22  O   UNK N   1      34.484  14.060   9.148  0.00  0.00    -0.310 OA
HETATM   23  O   UNK N   1      36.314  15.543  10.280  0.00  0.00    -0.262 OA
ENDROOT
BRANCH  17  24
HETATM   24  C   UNK N   1      34.296  14.442   5.199  0.00  0.00    -0.044 C 
HETATM   25  C   UNK N   1      34.127  12.991   4.785  0.00  0.00     0.015 C 
HETATM   26  C   UNK N   1      33.858  15.213   3.976  0.00  0.00     0.015 C 
HETATM   27  C   UNK N   1      35.784  14.699   5.376  0.00  0.00     0.015 C 
ENDBRANCH  17  24
BRANCH  18  28
HETATM   28  O   UNK N   1      32.687  12.437   6.681  0.00  0.00    -0.393 OA
HETATM   29  H   UNK N   1      32.230  11.672   7.064  0.00  0.00     0.210 HD
ENDBRANCH  18  28
BRANCH  13  30
HETATM   30  O   UNK N   1      34.188  17.520   6.023  0.00  0.00    -0.385 OA
HETATM   31  H   UNK N   1      33.294  17.280   5.730  0.00  0.00     0.210 HD
ENDBRANCH  13  30
BRANCH   4  32
HETATM   32  O   UNK N   1      34.188  12.390  11.311  0.00  0.00    -0.383 OA
HETATM   33  H   UNK N   1      33.856  11.533  11.621  0.00  0.00     0.210 HD
ENDBRANCH   4  32
TORSDOF 4
ENDMDL
MODEL 6
REMARK VINA RESULT:      -7.4     17.252     19.829
REMARK  4 active torsions:
REMARK  status: ('A' for Active; 'I' for Inactive)
REMARK    1  A    between atoms: C_4  and  O_20 
REMARK    2  A    between atoms: C_13  and  O_25 
REMARK    3  A    between atoms: C_17  and  C_26 
REMARK    4  A    between atoms: C_18  and  O_30 
ROOT
HETATM    1  C   UNK N   1      25.387  23.064  -8.222  0.00  0.00     0.266 C 
HETATM    2  O   UNK N   1      25.270  24.405  -8.286  0.00  0.00    -0.312 OA
HETATM    3  C   UNK N   1      25.746  24.998  -7.154  0.00  0.00     0.171 C 
HETATM    4  C   UNK N   1      26.236  23.754  -6.161  0.00  0.00     0.138 C 
HETATM    5  C   UNK N   1      26.245  22.537  -7.102  0.00  0.00     0.122 C 
HETATM    6  C   UNK N   1      27.504  26.247  -5.605  0.00  0.00     0.051 A 
HETATM    7  C   UNK N   1      27.607  24.384  -5.292  0.00  0.00     0.196 A 
HETATM    8  C   UNK N   1      28.728  26.927  -4.450  0.00  0.00     0.066 C 
HETATM    9  C   UNK N   1      29.009  25.508  -3.550  0.00  0.00     0.284 C 
HETATM   10  O   UNK N   1      28.266  24.240  -3.954  0.00  0.00    -0.334 OA
HETATM   11  O   UNK N   1      30.339  25.252  -3.744  0.00  0.00    -0.287 OA
HETATM   12  C   UNK N   1      30.951  26.118  -4.556  0.00  0.00     0.291 C 
HETATM   13  C   UNK N   1      30.144  27.284  -4.982  0.00  0.00     0.232 C 
HETATM   14  O   UNK N   1      24.700  22.333  -8.916  0.00  0.00    -0.265 OA
HETATM   15  C   UNK N   1      26.649  26.408  -7.221  0.00  0.00     0.052 C 
HETATM   16  C   UNK N   1      26.367  26.735  -4.951  0.00  0.00     0.174 A 
HETATM   17  C   UNK N   1      27.924  27.994  -3.649  0.00  0.00     0.042 C 
HETATM   18  C   UNK N   1      26.640  27.183  -3.542  0.00  0.00     0.154 C 
HETATM   19  O   UNK N   1      32.136  26.010  -4.826  0.00  0.00    -0.262 OA
HETATM   20  C   UNK N   1      27.595  22.165  -7.686  0.00  0.00     0.024 C 
HETATM   21  C   UNK N   1      28.230  25.026  -5.943  0.00  0.00     0.298 A 
HETATM   22  O   UNK N   1      27.034  25.602  -5.153  0.00  0.00    -0.310 OA
HETATM   23  O   UNK N   1      28.479  24.672  -7.122  0.00  0.00    -0.262 OA
ENDROOT
BRANCH  17  24
HETATM   24  C   UNK N   1      27.704  29.425  -4.309  0.00  0.00    -0.044 C 
HETATM   25  C   UNK N   1      26.318  29.966  -4.004  0.00  0.00     0.015 C 
HETATM   26  C   UNK N   1      28.628  30.473  -3.736  0.00  0.00     0.015 C 
HETATM   27  C   UNK N   1      27.884  29.450  -5.819  0.00  0.00     0.015 C 
ENDBRANCH  17  24
BRANCH  18  28
HETATM   28  O   UNK N   1      25.550  27.860  -2.999  0.00  0.00    -0.393 OA
HETATM   29  H   UNK N   1      25.122  27.692  -2.145  0.00  0.00     0.210 HD
ENDBRANCH  18  28
BRANCH  13  30
HETATM   30  O   UNK N   1      30.707  28.356  -4.291  0.00  0.00    -0.385 OA
HETATM   31  H   UNK N   1      30.143  29.078  -3.972  0.00  0.00     0.210 HD
ENDBRANCH  13  30
BRANCH   4  32
HETATM   32  O   UNK N   1      25.200  23.556  -5.245  0.00  0.00    -0.383 OA
HETATM   33  H   UNK N   1      24.838  23.303  -4.381  0.00  0.00     0.210 HD
ENDBRANCH   4  32
TORSDOF 4
ENDMDL
MODEL 7
REMARK VINA RESULT:      -7.2     14.461     17.571
REMARK  4 active torsions:
REMARK  status: ('A' for Active; 'I' for Inactive)
REMARK    1  A    between atoms: C_4  and  O_20 
REMARK    2  A    between atoms: C_13  and  O_25 
REMARK    3  A    between atoms: C_17  and  C_26 
REMARK    4  A    between atoms: C_18  and  O_30 
ROOT
HETATM    1  C   UNK N   1      32.104  20.500  -4.566  0.00  0.00     0.266 C 
HETATM    2  O   UNK N   1      30.912  20.585  -5.190  0.00  0.00    -0.312 OA
HETATM    3  C   UNK N   1      30.242  21.715  -4.825  0.00  0.00     0.171 C 
HETATM    4  C   UNK N   1      31.215  22.480  -3.711  0.00  0.00     0.138 C 
HETATM    5  C   UNK N   1      32.560  21.748  -3.858  0.00  0.00     0.122 C 
HETATM    6  C   UNK N   1      29.379  24.217  -5.031  0.00  0.00     0.051 A 
HETATM    7  C   UNK N   1      30.943  24.181  -3.968  0.00  0.00     0.196 A 
HETATM    8  C   UNK N   1      28.920  25.974  -5.028  0.00  0.00     0.066 C 
HETATM    9  C   UNK N   1      29.990  26.490  -3.807  0.00  0.00     0.284 C 
HETATM   10  O   UNK N   1      30.923  25.458  -3.184  0.00  0.00    -0.334 OA
HETATM   11  O   UNK N   1      30.794  27.401  -4.437  0.00  0.00    -0.287 OA
HETATM   12  C   UNK N   1      30.528  27.562  -5.735  0.00  0.00     0.291 C 
HETATM   13  C   UNK N   1      29.326  26.857  -6.240  0.00  0.00     0.232 C 
HETATM   14  O   UNK N   1      32.679  19.431  -4.439  0.00  0.00    -0.265 OA
HETATM   15  C   UNK N   1      29.392  22.626  -5.946  0.00  0.00     0.052 C 
HETATM   16  C   UNK N   1      28.311  23.763  -4.249  0.00  0.00     0.174 A 
HETATM   17  C   UNK N   1      27.435  25.964  -4.557  0.00  0.00     0.042 C 
HETATM   18  C   UNK N   1      27.604  24.868  -3.514  0.00  0.00     0.154 C 
HETATM   19  O   UNK N   1      31.168  28.337  -6.426  0.00  0.00    -0.262 OA
HETATM   20  C   UNK N   1      33.589  22.432  -4.738  0.00  0.00     0.024 C 
HETATM   21  C   UNK N   1      30.827  24.407  -5.044  0.00  0.00     0.298 A 
HETATM   22  O   UNK N   1      29.619  23.998  -4.174  0.00  0.00    -0.310 OA
HETATM   23  O   UNK N   1      31.589  23.869  -5.886  0.00  0.00    -0.262 OA
ENDROOT
BRANCH  17  24
HETATM   24  C   UNK N   1      26.306  25.637  -5.628  0.00  0.00    -0.044 C 
HETATM   25  C   UNK N   1      25.453  24.459  -5.189  0.00  0.00     0.015 C 
HETATM   26  C   UNK N   1      25.308  26.761  -5.777  0.00  0.00     0.015 C 
HETATM   27  C   UNK N   1      26.836  25.327  -7.019  0.00  0.00     0.015 C 
ENDBRANCH  17  24
BRANCH  18  28
HETATM   28  O   UNK N   1      26.423  24.417  -2.926  0.00  0.00    -0.393 OA
HETATM   29  H   UNK N   1      26.004  23.550  -3.045  0.00  0.00     0.210 HD
ENDBRANCH  18  28
BRANCH  13  30
HETATM   30  O   UNK N   1      28.408  27.880  -6.473  0.00  0.00    -0.385 OA
HETATM   31  H   UNK N   1      28.349  28.628  -5.858  0.00  0.00     0.210 HD
ENDBRANCH  13  30
BRANCH   4  32
HETATM   32  O   UNK N   1      30.703  22.148  -2.454  0.00  0.00    -0.383 OA
HETATM   33  H   UNK N   1      30.053  22.204  -1.736  0.00  0.00     0.210 HD
ENDBRANCH   4  32
TORSDOF 4
ENDMDL
MODEL 8
REMARK VINA RESULT:      -7.2     11.732     15.417
REMARK  4 active torsions:
REMARK  status: ('A' for Active; 'I' for Inactive)
REMARK    1  A    between atoms: C_4  and  O_20 
REMARK    2  A    between atoms: C_13  and  O_25 
REMARK    3  A    between atoms: C_17  and  C_26 
REMARK    4  A    between atoms: C_18  and  O_30 
ROOT
HETATM    1  C   UNK N   1      20.366  17.256   1.212  0.00  0.00     0.266 C 
HETATM    2  O   UNK N   1      20.542  15.974   1.591  0.00  0.00    -0.312 OA
HETATM    3  C   UNK N   1      21.023  15.898   2.865  0.00  0.00     0.171 C 
HETATM    4  C   UNK N   1      21.216  17.471   3.373  0.00  0.00     0.138 C 
HETATM    5  C   UNK N   1      20.448  18.279   2.313  0.00  0.00     0.122 C 
HETATM    6  C   UNK N   1      20.920  15.596   5.501  0.00  0.00     0.051 A 
HETATM    7  C   UNK N   1      20.871  17.439   5.080  0.00  0.00     0.196 A 
HETATM    8  C   UNK N   1      20.882  15.586   7.316  0.00  0.00     0.066 C 
HETATM    9  C   UNK N   1      21.146  17.252   7.561  0.00  0.00     0.284 C 
HETATM   10  O   UNK N   1      21.285  18.147   6.335  0.00  0.00    -0.334 OA
HETATM   11  O   UNK N   1      20.021  17.671   8.217  0.00  0.00    -0.287 OA
HETATM   12  C   UNK N   1      19.112  16.714   8.413  0.00  0.00     0.291 C 
HETATM   13  C   UNK N   1      19.527  15.342   8.036  0.00  0.00     0.232 C 
HETATM   14  O   UNK N   1      20.322  17.568   0.033  0.00  0.00    -0.265 OA
HETATM   15  C   UNK N   1      20.462  14.743   3.942  0.00  0.00     0.052 C 
HETATM   16  C   UNK N   1      22.241  15.153   5.359  0.00  0.00     0.174 A 
HETATM   17  C   UNK N   1      22.118  14.721   7.705  0.00  0.00     0.042 C 
HETATM   18  C   UNK N   1      23.043  15.266   6.626  0.00  0.00     0.154 C 
HETATM   19  O   UNK N   1      18.056  16.944   8.979  0.00  0.00    -0.262 OA
HETATM   20  C   UNK N   1      19.033  18.679   2.685  0.00  0.00     0.024 C 
HETATM   21  C   UNK N   1      20.040  16.745   5.305  0.00  0.00     0.298 A 
HETATM   22  O   UNK N   1      21.504  16.256   5.246  0.00  0.00    -0.310 OA
HETATM   23  O   UNK N   1      19.023  16.721   4.569  0.00  0.00    -0.262 OA
ENDROOT
BRANCH  17  24
HETATM   24  C   UNK N   1      21.973  13.138   7.661  0.00  0.00    -0.044 C 
HETATM   25  C   UNK N   1      23.254  12.480   7.178  0.00  0.00     0.015 C 
HETATM   26  C   UNK N   1      21.763  12.539   9.032  0.00  0.00     0.015 C 
HETATM   27  C   UNK N   1      20.840  12.638   6.779  0.00  0.00     0.015 C 
ENDBRANCH  17  24
BRANCH  18  28
HETATM   28  O   UNK N   1      24.273  14.620   6.512  0.00  0.00    -0.393 OA
HETATM   29  H   UNK N   1      24.862  14.613   5.741  0.00  0.00     0.210 HD
ENDBRANCH  18  28
BRANCH  13  30
HETATM   30  O   UNK N   1      19.694  14.692   9.258  0.00  0.00    -0.385 OA
HETATM   31  H   UNK N   1      20.415  14.054   9.373  0.00  0.00     0.210 HD
ENDBRANCH  13  30
BRANCH   4  32
HETATM   32  O   UNK N   1      22.571  17.769   3.214  0.00  0.00    -0.383 OA
HETATM   33  H   UNK N   1      23.336  18.111   2.726  0.00  0.00     0.210 HD
ENDBRANCH   4  32
TORSDOF 4
ENDMDL
MODEL 9
REMARK VINA RESULT:      -7.1     12.301     15.030
REMARK  4 active torsions:
REMARK  status: ('A' for Active; 'I' for Inactive)
REMARK    1  A    between atoms: C_4  and  O_20 
REMARK    2  A    between atoms: C_13  and  O_25 
REMARK    3  A    between atoms: C_17  and  C_26 
REMARK    4  A    between atoms: C_18  and  O_30 
ROOT
HETATM    1  C   UNK N   1      22.540  20.151   3.097  0.00  0.00     0.266 C 
HETATM    2  O   UNK N   1      23.409  19.222   3.543  0.00  0.00    -0.312 OA
HETATM    3  C   UNK N   1      22.772  18.256   4.266  0.00  0.00     0.171 C 
HETATM    4  C   UNK N   1      21.168  18.699   4.302  0.00  0.00     0.138 C 
HETATM    5  C   UNK N   1      21.083  19.797   3.227  0.00  0.00     0.122 C 
HETATM    6  C   UNK N   1      21.609  15.914   4.720  0.00  0.00     0.051 A 
HETATM    7  C   UNK N   1      20.285  17.198   4.301  0.00  0.00     0.196 A 
HETATM    8  C   UNK N   1      20.639  14.411   5.033  0.00  0.00     0.066 C 
HETATM    9  C   UNK N   1      19.098  15.135   5.074  0.00  0.00     0.284 C 
HETATM   10  O   UNK N   1      19.001  16.637   4.831  0.00  0.00    -0.334 OA
HETATM   11  O   UNK N   1      18.425  14.536   4.043  0.00  0.00    -0.287 OA
HETATM   12  C   UNK N   1      19.152  13.656   3.351  0.00  0.00     0.291 C 
HETATM   13  C   UNK N   1      20.497  13.360   3.897  0.00  0.00     0.232 C 
HETATM   14  O   UNK N   1      22.915  21.268   2.779  0.00  0.00    -0.265 OA
HETATM   15  C   UNK N   1      23.181  16.638   4.111  0.00  0.00     0.052 C 
HETATM   16  C   UNK N   1      22.018  16.127   6.041  0.00  0.00     0.174 A 
HETATM   17  C   UNK N   1      21.121  13.950   6.441  0.00  0.00     0.042 C 
HETATM   18  C   UNK N   1      21.216  15.345   7.044  0.00  0.00     0.154 C 
HETATM   19  O   UNK N   1      18.685  13.051   2.401  0.00  0.00    -0.262 OA
HETATM   20  C   UNK N   1      20.589  19.349   1.865  0.00  0.00     0.024 C 
HETATM   21  C   UNK N   1      20.773  16.450   3.649  0.00  0.00     0.298 A 
HETATM   22  O   UNK N   1      21.173  16.607   5.132  0.00  0.00    -0.310 OA
HETATM   23  O   UNK N   1      21.222  16.791   2.526  0.00  0.00    -0.262 OA
ENDROOT
BRANCH  17  24
HETATM   24  C   UNK N   1      22.482  13.132   6.542  0.00  0.00    -0.044 C 
HETATM   25  C   UNK N   1      23.365  13.668   7.656  0.00  0.00     0.015 C 
HETATM   26  C   UNK N   1      22.261  11.689   6.927  0.00  0.00     0.015 C 
HETATM   27  C   UNK N   1      23.305  13.130   5.264  0.00  0.00     0.015 C 
ENDBRANCH  17  24
BRANCH  18  28
HETATM   28  O   UNK N   1      21.785  15.407   8.315  0.00  0.00    -0.393 OA
HETATM   29  H   UNK N   1      22.720  15.288   8.544  0.00  0.00     0.210 HD
ENDBRANCH  18  28
BRANCH  13  30
HETATM   30  O   UNK N   1      20.381  12.063   4.396  0.00  0.00    -0.385 OA
HETATM   31  H   UNK N   1      19.768  11.437   3.981  0.00  0.00     0.210 HD
ENDBRANCH  13  30
BRANCH   4  32
HETATM   32  O   UNK N   1      20.962  19.318   5.537  0.00  0.00    -0.383 OA
HETATM   33  H   UNK N   1      21.254  19.687   6.386  0.00  0.00     0.210 HD
ENDBRANCH   4  32
TORSDOF 4
ENDMDL
