MODEL 1
REMARK VINA RESULT:      -3.9      0.000      0.000
REMARK  2 active torsions:
REMARK  status: ('A' for Active; 'I' for Inactive)
REMARK    1  A    between atoms: C_2  and  C_4 
REMARK    2  A    between atoms: C_4  and  N_5 
ROOT
HETATM    1  C   UNK N   1      33.680  17.288   8.865  0.00  0.00     0.348 C 
ENDROOT
BRANCH   1   2
HETATM    2  C   UNK N   1      34.496  18.194   7.980  0.00  0.00     0.199 C 
HETATM    3  O   UNK N   1      35.265  19.155   8.527  0.00  0.00    -0.647 OA
HETATM    4  O   UNK N   1      34.419  18.098   6.767  0.00  0.00    -0.647 OA
ENDBRANCH   1   2
BRANCH   1   5
HETATM    5  N   UNK N   1      34.412  16.130   9.397  0.00  0.00    -0.069 N 
HETATM    6  C   UNK N   1      35.233  15.464   8.395  0.00  0.00     0.272 C 
HETATM    7  C   UNK N   1      33.437  15.171   9.878  0.00  0.00     0.272 C 
HETATM    8  C   UNK N   1      35.246  16.528  10.520  0.00  0.00     0.272 C 
ENDBRANCH   1   5
TORSDOF 2
ENDMDL
MODEL 2
REMARK VINA RESULT:      -3.3      1.526      2.374
REMARK  2 active torsions:
REMARK  status: ('A' for Active; 'I' for Inactive)
REMARK    1  A    between atoms: C_2  and  C_4 
REMARK    2  A    between atoms: C_4  and  N_5 
ROOT
HETATM    1  C   UNK N   1      34.040  16.754   8.437  0.00  0.00     0.348 C 
ENDROOT
BRANCH   1   2
HETATM    2  C   UNK N   1      34.466  18.002   7.707  0.00  0.00     0.199 C 
HETATM    3  O   UNK N   1      34.899  19.072   8.400  0.00  0.00    -0.647 OA
HETATM    4  O   UNK N   1      34.365  18.067   6.493  0.00  0.00    -0.647 OA
ENDBRANCH   1   2
BRANCH   1   5
HETATM    5  N   UNK N   1      32.621  16.408   8.283  0.00  0.00    -0.069 N 
HETATM    6  C   UNK N   1      31.732  17.547   8.469  0.00  0.00     0.272 C 
HETATM    7  C   UNK N   1      32.292  15.421   9.293  0.00  0.00     0.272 C 
HETATM    8  C   UNK N   1      32.381  15.816   6.977  0.00  0.00     0.272 C 
ENDBRANCH   1   5
TORSDOF 2
ENDMDL
MODEL 3
REMARK VINA RESULT:      -3.3      2.018      2.548
REMARK  2 active torsions:
REMARK  status: ('A' for Active; 'I' for Inactive)
REMARK    1  A    between atoms: C_2  and  C_4 
REMARK    2  A    between atoms: C_4  and  N_5 
ROOT
HETATM    1  C   UNK N   1      32.708  18.214   8.291  0.00  0.00     0.348 C 
ENDROOT
BRANCH   1   2
HETATM    2  C   UNK N   1      34.185  18.128   8.004  0.00  0.00     0.199 C 
HETATM    3  O   UNK N   1      35.071  18.178   9.017  0.00  0.00    -0.647 OA
HETATM    4  O   UNK N   1      34.584  18.069   6.854  0.00  0.00    -0.647 OA
ENDBRANCH   1   2
BRANCH   1   5
HETATM    5  N   UNK N   1      31.967  16.965   8.070  0.00  0.00    -0.069 N 
HETATM    6  C   UNK N   1      31.705  16.697   6.662  0.00  0.00     0.272 C 
HETATM    7  C   UNK N   1      30.688  17.082   8.743  0.00  0.00     0.272 C 
HETATM    8  C   UNK N   1      32.682  15.840   8.653  0.00  0.00     0.272 C 
ENDBRANCH   1   5
TORSDOF 2
ENDMDL
MODEL 4
REMARK VINA RESULT:      -3.3      1.894      2.557
REMARK  2 active torsions:
REMARK  status: ('A' for Active; 'I' for Inactive)
REMARK    1  A    between atoms: C_2  and  C_4 
REMARK    2  A    between atoms: C_4  and  N_5 
ROOT
HETATM    1  C   UNK N   1      33.366  17.444   8.216  0.00  0.00     0.348 C 
ENDROOT
BRANCH   1   2
HETATM    2  C   UNK N   1      34.636  18.059   8.744  0.00  0.00     0.199 C 
HETATM    3  O   UNK N   1      35.279  17.490   9.782  0.00  0.00    -0.647 OA
HETATM    4  O   UNK N   1      35.054  19.104   8.273  0.00  0.00    -0.647 OA
ENDBRANCH   1   2
BRANCH   1   5
HETATM    5  N   UNK N   1      33.535  16.640   6.998  0.00  0.00    -0.069 N 
HETATM    6  C   UNK N   1      33.557  17.443   5.782  0.00  0.00     0.272 C 
HETATM    7  C   UNK N   1      32.411  15.729   6.906  0.00  0.00     0.272 C 
HETATM    8  C   UNK N   1      34.753  15.849   7.076  0.00  0.00     0.272 C 
ENDBRANCH   1   5
TORSDOF 2
ENDMDL
MODEL 5
REMARK VINA RESULT:      -3.3     14.669     15.308
REMARK  2 active torsions:
REMARK  status: ('A' for Active; 'I' for Inactive)
REMARK    1  A    between atoms: C_2  and  C_4 
REMARK    2  A    between atoms: C_4  and  N_5 
ROOT
HETATM    1  C   UNK N   1      20.119  19.654   2.561  0.00  0.00     0.348 C 
ENDROOT
BRANCH   1   2
HETATM    2  C   UNK N   1      21.191  20.507   1.931  0.00  0.00     0.199 C 
HETATM    3  O   UNK N   1      21.993  21.261   2.708  0.00  0.00    -0.647 OA
HETATM    4  O   UNK N   1      21.297  20.562   0.718  0.00  0.00    -0.647 OA
ENDBRANCH   1   2
BRANCH   1   5
HETATM    5  N   UNK N   1      20.449  18.225   2.651  0.00  0.00    -0.069 N 
HETATM    6  C   UNK N   1      20.318  17.527   1.379  0.00  0.00     0.272 C 
HETATM    7  C   UNK N   1      19.526  17.614   3.588  0.00  0.00     0.272 C 
HETATM    8  C   UNK N   1      21.798  18.046   3.164  0.00  0.00     0.272 C 
ENDBRANCH   1   5
TORSDOF 2
ENDMDL
MODEL 6
REMARK VINA RESULT:      -3.2     14.653     15.366
REMARK  2 active torsions:
REMARK  status: ('A' for Active; 'I' for Inactive)
REMARK    1  A    between atoms: C_2  and  C_4 
REMARK    2  A    between atoms: C_4  and  N_5 
ROOT
HETATM    1  C   UNK N   1      20.073  19.637   2.622  0.00  0.00     0.348 C 
ENDROOT
BRANCH   1   2
HETATM    2  C   UNK N   1      21.131  20.530   2.025  0.00  0.00     0.199 C 
HETATM    3  O   UNK N   1      21.335  20.534   0.694  0.00  0.00    -0.647 OA
HETATM    4  O   UNK N   1      21.842  21.207   2.749  0.00  0.00    -0.647 OA
ENDBRANCH   1   2
BRANCH   1   5
HETATM    5  N   UNK N   1      20.465  18.227   2.752  0.00  0.00    -0.069 N 
HETATM    6  C   UNK N   1      21.844  18.054   3.186  0.00  0.00     0.272 C 
HETATM    7  C   UNK N   1      20.331  17.607   1.447  0.00  0.00     0.272 C 
HETATM    8  C   UNK N   1      19.577  17.536   3.673  0.00  0.00     0.272 C 
ENDBRANCH   1   5
TORSDOF 2
ENDMDL
MODEL 7
REMARK VINA RESULT:      -3.1     12.155     13.166
REMARK  2 active torsions:
REMARK  status: ('A' for Active; 'I' for Inactive)
REMARK    1  A    between atoms: C_2  and  C_4 
REMARK    2  A    between atoms: C_4  and  N_5 
ROOT
HETATM    1  C   UNK N   1      22.506  13.544   9.819  0.00  0.00     0.348 C 
ENDROOT
BRANCH   1   2
HETATM    2  C   UNK N   1      21.103  13.093   9.504  0.00  0.00     0.199 C 
HETATM    3  O   UNK N   1      20.698  12.999   8.223  0.00  0.00    -0.647 OA
HETATM    4  O   UNK N   1      20.314  12.867  10.406  0.00  0.00    -0.647 OA
ENDBRANCH   1   2
BRANCH   1   5
HETATM    5  N   UNK N   1      23.447  12.456  10.119  0.00  0.00    -0.069 N 
HETATM    6  C   UNK N   1      23.337  11.966  11.487  0.00  0.00     0.272 C 
HETATM    7  C   UNK N   1      24.791  12.969   9.940  0.00  0.00     0.272 C 
HETATM    8  C   UNK N   1      23.258  11.351   9.193  0.00  0.00     0.272 C 
ENDBRANCH   1   5
TORSDOF 2
ENDMDL
MODEL 8
REMARK VINA RESULT:      -3.0     17.728     18.802
REMARK  2 active torsions:
REMARK  status: ('A' for Active; 'I' for Inactive)
REMARK    1  A    between atoms: C_2  and  C_4 
REMARK    2  A    between atoms: C_4  and  N_5 
ROOT
HETATM    1  C   UNK N   1      26.811  25.983  -5.043  0.00  0.00     0.348 C 
ENDROOT
BRANCH   1   2
HETATM    2  C   UNK N   1      26.060  24.740  -4.639  0.00  0.00     0.199 C 
HETATM    3  O   UNK N   1      25.277  24.107  -5.533  0.00  0.00    -0.647 OA
HETATM    4  O   UNK N   1      26.114  24.338  -3.489  0.00  0.00    -0.647 OA
ENDBRANCH   1   2
BRANCH   1   5
HETATM    5  N   UNK N   1      26.039  27.228  -4.930  0.00  0.00    -0.069 N 
HETATM    6  C   UNK N   1      24.746  27.162  -5.599  0.00  0.00     0.272 C 
HETATM    7  C   UNK N   1      26.807  28.286  -5.558  0.00  0.00     0.272 C 
HETATM    8  C   UNK N   1      25.844  27.580  -3.533  0.00  0.00     0.272 C 
ENDBRANCH   1   5
TORSDOF 2
ENDMDL
MODEL 9
REMARK VINA RESULT:      -2.9     14.756     15.497
REMARK  2 active torsions:
REMARK  status: ('A' for Active; 'I' for Inactive)
REMARK    1  A    between atoms: C_2  and  C_4 
REMARK    2  A    between atoms: C_4  and  N_5 
ROOT
HETATM    1  C   UNK N   1      19.746  19.129   2.725  0.00  0.00     0.348 C 
ENDROOT
BRANCH   1   2
HETATM    2  C   UNK N   1      20.702  20.153   2.169  0.00  0.00     0.199 C 
HETATM    3  O   UNK N   1      21.000  20.152   0.856  0.00  0.00    -0.647 OA
HETATM    4  O   UNK N   1      21.252  20.947   2.914  0.00  0.00    -0.647 OA
ENDBRANCH   1   2
BRANCH   1   5
HETATM    5  N   UNK N   1      20.324  17.792   2.916  0.00  0.00    -0.069 N 
HETATM    6  C   UNK N   1      19.616  17.001   3.914  0.00  0.00     0.272 C 
HETATM    7  C   UNK N   1      21.690  17.959   3.373  0.00  0.00     0.272 C 
HETATM    8  C   UNK N   1      20.354  17.066   1.656  0.00  0.00     0.272 C 
ENDBRANCH   1   5
TORSDOF 2
ENDMDL
