MODEL 1
REMARK VINA RESULT:      -7.8      0.000      0.000
REMARK  3 active torsions:
REMARK  status: ('A' for Active; 'I' for Inactive)
REMARK    1  A    between atoms: C_4  and  O_20 
REMARK    2  A    between atoms: C_13  and  O_25 
REMARK    3  A    between atoms: C_17  and  C_26 
ROOT
HETATM    1  C   UNK N   1      28.259  15.478   5.513  0.00  0.00     0.266 C 
HETATM    2  O   UNK N   1      29.258  14.619   5.256  0.00  0.00    -0.312 OA
HETATM    3  C   UNK N   1      30.322  15.087   5.958  0.00  0.00     0.171 C 
HETATM    4  C   UNK N   1      30.242  16.571   5.934  0.00  0.00     0.138 C 
HETATM    5  C   UNK N   1      28.735  16.711   6.255  0.00  0.00     0.122 C 
HETATM    6  C   UNK N   1      32.140  15.656   7.129  0.00  0.00     0.049 C 
HETATM    7  C   UNK N   1      31.430  16.944   6.864  0.00  0.00     0.196 C 
HETATM    8  C   UNK N   1      33.610  16.030   7.379  0.00  0.00     0.063 C 
HETATM    9  C   UNK N   1      33.670  17.045   6.198  0.00  0.00     0.284 C 
HETATM   10  O   UNK N   1      32.400  17.733   6.187  0.00  0.00    -0.334 OA
HETATM   11  O   UNK N   1      34.560  18.007   6.595  0.00  0.00    -0.287 OA
HETATM   12  C   UNK N   1      34.590  18.115   7.919  0.00  0.00     0.291 C 
HETATM   13  C   UNK N   1      34.002  16.962   8.609  0.00  0.00     0.232 C 
HETATM   14  O   UNK N   1      27.089  15.217   5.286  0.00  0.00    -0.265 OA
HETATM   15  C   UNK N   1      31.766  14.714   5.935  0.00  0.00     0.052 C 
HETATM   16  C   UNK N   1      31.664  15.065   8.440  0.00  0.00     0.145 C 
HETATM   17  C   UNK N   1      33.923  14.554   7.707  0.00  0.00     0.013 C 
HETATM   18  C   UNK N   1      32.921  14.276   8.864  0.00  0.00     0.040 C 
HETATM   19  O   UNK N   1      35.045  19.090   8.493  0.00  0.00    -0.262 OA
HETATM   20  C   UNK N   1      28.157  18.008   5.713  0.00  0.00     0.024 C 
HETATM   21  C   UNK N   1      31.115  17.256   8.298  0.00  0.00     0.298 C 
HETATM   22  O   UNK N   1      31.336  16.214   9.142  0.00  0.00    -0.312 OA
HETATM   23  O   UNK N   1      30.671  18.328   8.677  0.00  0.00    -0.262 OA
ENDROOT
BRANCH  17  24
HETATM   24  C   UNK N   1      35.264  13.795   7.766  0.00  0.00    -0.047 C 
HETATM   25  C   UNK N   1      35.803  13.581   9.167  0.00  0.00     0.015 C 
HETATM   26  C   UNK N   1      36.305  14.500   6.924  0.00  0.00     0.015 C 
HETATM   27  C   UNK N   1      35.037  12.419   7.165  0.00  0.00     0.015 C 
ENDBRANCH  17  24
BRANCH  13  28
HETATM   28  O   UNK N   1      35.015  16.429   9.404  0.00  0.00    -0.385 OA
HETATM   29  H   UNK N   1      34.861  15.897  10.201  0.00  0.00     0.210 HD
ENDBRANCH  13  28
BRANCH   4  30
HETATM   30  O   UNK N   1      30.506  16.988   4.616  0.00  0.00    -0.383 OA
HETATM   31  H   UNK N   1      30.679  17.468   3.791  0.00  0.00     0.210 HD
ENDBRANCH   4  30
TORSDOF 3
ENDMDL
MODEL 2
REMARK VINA RESULT:      -7.4     14.813     17.536
REMARK  3 active torsions:
REMARK  status: ('A' for Active; 'I' for Inactive)
REMARK    1  A    between atoms: C_4  and  O_20 
REMARK    2  A    between atoms: C_13  and  O_25 
REMARK    3  A    between atoms: C_17  and  C_26 
ROOT
HETATM    1  C   UNK N   1      26.446  26.775  -4.106  0.00  0.00     0.266 C 
HETATM    2  O   UNK N   1      27.100  25.639  -3.817  0.00  0.00    -0.312 OA
HETATM    3  C   UNK N   1      27.188  24.968  -4.995  0.00  0.00     0.171 C 
HETATM    4  C   UNK N   1      25.937  25.243  -5.749  0.00  0.00     0.138 C 
HETATM    5  C   UNK N   1      25.873  26.770  -5.509  0.00  0.00     0.122 C 
HETATM    6  C   UNK N   1      27.515  23.778  -6.860  0.00  0.00     0.049 C 
HETATM    7  C   UNK N   1      26.241  24.525  -7.093  0.00  0.00     0.196 C 
HETATM    8  C   UNK N   1      27.465  22.560  -7.795  0.00  0.00     0.063 C 
HETATM    9  C   UNK N   1      25.976  22.232  -7.474  0.00  0.00     0.284 C 
HETATM   10  O   UNK N   1      25.294  23.500  -7.368  0.00  0.00    -0.334 OA
HETATM   11  O   UNK N   1      25.472  21.684  -8.623  0.00  0.00    -0.287 OA
HETATM   12  C   UNK N   1      26.116  22.138  -9.693  0.00  0.00     0.291 C 
HETATM   13  C   UNK N   1      27.405  22.762  -9.373  0.00  0.00     0.232 C 
HETATM   14  O   UNK N   1      26.440  27.740  -3.360  0.00  0.00    -0.265 OA
HETATM   15  C   UNK N   1      27.605  23.571  -5.310  0.00  0.00     0.052 C 
HETATM   16  C   UNK N   1      28.690  24.596  -7.355  0.00  0.00     0.145 C 
HETATM   17  C   UNK N   1      28.897  22.176  -7.361  0.00  0.00     0.013 C 
HETATM   18  C   UNK N   1      29.683  23.471  -7.714  0.00  0.00     0.040 C 
HETATM   19  O   UNK N   1      25.664  22.057 -10.822  0.00  0.00    -0.262 OA
HETATM   20  C   UNK N   1      24.450  27.298  -5.587  0.00  0.00     0.024 C 
HETATM   21  C   UNK N   1      26.748  25.364  -8.228  0.00  0.00     0.298 C 
HETATM   22  O   UNK N   1      28.098  25.310  -8.385  0.00  0.00    -0.312 OA
HETATM   23  O   UNK N   1      26.031  26.061  -8.930  0.00  0.00    -0.262 OA
ENDROOT
BRANCH  17  24
HETATM   24  C   UNK N   1      29.671  20.849  -7.492  0.00  0.00    -0.047 C 
HETATM   25  C   UNK N   1      30.790  20.873  -8.514  0.00  0.00     0.015 C 
HETATM   26  C   UNK N   1      28.720  19.714  -7.806  0.00  0.00     0.015 C 
HETATM   27  C   UNK N   1      30.309  20.557  -6.144  0.00  0.00     0.015 C 
ENDBRANCH  17  24
BRANCH  13  28
HETATM   28  O   UNK N   1      28.371  22.029 -10.060  0.00  0.00    -0.385 OA
HETATM   29  H   UNK N   1      28.365  21.062 -10.145  0.00  0.00     0.210 HD
ENDBRANCH  13  28
BRANCH   4  30
HETATM   30  O   UNK N   1      24.885  24.594  -5.077  0.00  0.00    -0.383 OA
HETATM   31  H   UNK N   1      24.264  24.207  -4.440  0.00  0.00     0.210 HD
ENDBRANCH   4  30
TORSDOF 3
ENDMDL
MODEL 3
REMARK VINA RESULT:      -7.3     13.355     16.755
REMARK  3 active torsions:
REMARK  status: ('A' for Active; 'I' for Inactive)
REMARK    1  A    between atoms: C_4  and  O_20 
REMARK    2  A    between atoms: C_13  and  O_25 
REMARK    3  A    between atoms: C_17  and  C_26 
ROOT
HETATM    1  C   UNK N   1      31.085  22.553  -2.903  0.00  0.00     0.266 C 
HETATM    2  O   UNK N   1      31.131  23.858  -2.592  0.00  0.00    -0.312 OA
HETATM    3  C   UNK N   1      30.210  24.449  -3.396  0.00  0.00     0.171 C 
HETATM    4  C   UNK N   1      30.232  23.725  -4.693  0.00  0.00     0.138 C 
HETATM    5  C   UNK N   1      30.242  22.282  -4.133  0.00  0.00     0.122 C 
HETATM    6  C   UNK N   1      28.667  25.569  -4.564  0.00  0.00     0.049 C 
HETATM    7  C   UNK N   1      29.063  24.424  -5.440  0.00  0.00     0.196 C 
HETATM    8  C   UNK N   1      28.101  26.643  -5.507  0.00  0.00     0.063 C 
HETATM    9  C   UNK N   1      29.228  26.466  -6.569  0.00  0.00     0.284 C 
HETATM   10  O   UNK N   1      29.504  25.050  -6.638  0.00  0.00    -0.334 OA
HETATM   11  O   UNK N   1      28.637  26.743  -7.772  0.00  0.00    -0.287 OA
HETATM   12  C   UNK N   1      27.336  26.472  -7.740  0.00  0.00     0.291 C 
HETATM   13  C   UNK N   1      26.804  26.341  -6.380  0.00  0.00     0.232 C 
HETATM   14  O   UNK N   1      31.563  21.687  -2.188  0.00  0.00    -0.265 OA
HETATM   15  C   UNK N   1      29.926  25.885  -3.688  0.00  0.00     0.052 C 
HETATM   16  C   UNK N   1      27.497  25.169  -3.689  0.00  0.00     0.145 C 
HETATM   17  C   UNK N   1      27.732  27.512  -4.285  0.00  0.00     0.013 C 
HETATM   18  C   UNK N   1      26.822  26.541  -3.481  0.00  0.00     0.040 C 
HETATM   19  O   UNK N   1      26.664  26.329  -8.748  0.00  0.00    -0.262 OA
HETATM   20  C   UNK N   1      30.880  21.301  -5.103  0.00  0.00     0.024 C 
HETATM   21  C   UNK N   1      27.727  23.740  -5.430  0.00  0.00     0.298 C 
HETATM   22  O   UNK N   1      26.868  24.238  -4.501  0.00  0.00    -0.312 OA
HETATM   23  O   UNK N   1      27.440  22.803  -6.158  0.00  0.00    -0.262 OA
ENDROOT
BRANCH  17  24
HETATM   24  C   UNK N   1      27.394  29.013  -4.179  0.00  0.00    -0.047 C 
HETATM   25  C   UNK N   1      25.938  29.309  -3.881  0.00  0.00     0.015 C 
HETATM   26  C   UNK N   1      27.813  29.737  -5.440  0.00  0.00     0.015 C 
HETATM   27  C   UNK N   1      28.205  29.583  -3.028  0.00  0.00     0.015 C 
ENDBRANCH  17  24
BRANCH  13  28
HETATM   28  O   UNK N   1      25.816  27.315  -6.254  0.00  0.00    -0.385 OA
HETATM   29  H   UNK N   1      25.877  28.207  -6.633  0.00  0.00     0.210 HD
ENDBRANCH  13  28
BRANCH   4  30
HETATM   30  O   UNK N   1      31.456  24.017  -5.321  0.00  0.00    -0.383 OA
HETATM   31  H   UNK N   1      32.382  24.173  -5.566  0.00  0.00     0.210 HD
ENDBRANCH   4  30
TORSDOF 3
ENDMDL
MODEL 4
REMARK VINA RESULT:      -7.3     14.057     17.284
REMARK  3 active torsions:
REMARK  status: ('A' for Active; 'I' for Inactive)
REMARK    1  A    between atoms: C_4  and  O_20 
REMARK    2  A    between atoms: C_13  and  O_25 
REMARK    3  A    between atoms: C_17  and  C_26 
ROOT
HETATM    1  C   UNK N   1      25.936  23.472 -10.154  0.00  0.00     0.266 C 
HETATM    2  O   UNK N   1      25.624  24.687  -9.674  0.00  0.00    -0.312 OA
HETATM    3  C   UNK N   1      26.187  24.739  -8.440  0.00  0.00     0.171 C 
HETATM    4  C   UNK N   1      26.092  23.375  -7.858  0.00  0.00     0.138 C 
HETATM    5  C   UNK N   1      26.558  22.578  -9.100  0.00  0.00     0.122 C 
HETATM    6  C   UNK N   1      27.133  25.036  -6.435  0.00  0.00     0.049 C 
HETATM    7  C   UNK N   1      26.874  23.567  -6.529  0.00  0.00     0.196 C 
HETATM    8  C   UNK N   1      27.211  25.354  -4.934  0.00  0.00     0.063 C 
HETATM    9  C   UNK N   1      25.977  24.474  -4.568  0.00  0.00     0.284 C 
HETATM   10  O   UNK N   1      26.060  23.293  -5.395  0.00  0.00    -0.334 OA
HETATM   11  O   UNK N   1      26.229  24.008  -3.306  0.00  0.00    -0.287 OA
HETATM   12  C   UNK N   1      27.535  23.921  -3.078  0.00  0.00     0.291 C 
HETATM   13  C   UNK N   1      28.342  24.691  -4.031  0.00  0.00     0.232 C 
HETATM   14  O   UNK N   1      25.844  23.186 -11.336  0.00  0.00    -0.265 OA
HETATM   15  C   UNK N   1      26.036  25.716  -7.322  0.00  0.00     0.052 C 
HETATM   16  C   UNK N   1      28.516  25.351  -6.968  0.00  0.00     0.145 C 
HETATM   17  C   UNK N   1      27.583  26.815  -5.269  0.00  0.00     0.013 C 
HETATM   18  C   UNK N   1      28.850  26.615  -6.149  0.00  0.00     0.040 C 
HETATM   19  O   UNK N   1      28.007  23.250  -2.176  0.00  0.00    -0.262 OA
HETATM   20  C   UNK N   1      26.010  21.160  -9.104  0.00  0.00     0.024 C 
HETATM   21  C   UNK N   1      28.314  23.144  -6.505  0.00  0.00     0.298 C 
HETATM   22  O   UNK N   1      29.186  24.174  -6.671  0.00  0.00    -0.312 OA
HETATM   23  O   UNK N   1      28.678  21.986  -6.383  0.00  0.00    -0.262 OA
ENDROOT
BRANCH  17  24
HETATM   24  C   UNK N   1      27.545  28.091  -4.404  0.00  0.00    -0.047 C 
HETATM   25  C   UNK N   1      28.892  28.516  -3.852  0.00  0.00     0.015 C 
HETATM   26  C   UNK N   1      26.559  27.927  -3.268  0.00  0.00     0.015 C 
HETATM   27  C   UNK N   1      27.052  29.226  -5.285  0.00  0.00     0.015 C 
ENDBRANCH  17  24
BRANCH  13  28
HETATM   28  O   UNK N   1      29.056  25.617  -3.273  0.00  0.00    -0.385 OA
HETATM   29  H   UNK N   1      28.955  26.580  -3.349  0.00  0.00     0.210 HD
ENDBRANCH  13  28
BRANCH   4  30
HETATM   30  O   UNK N   1      24.734  23.121  -7.591  0.00  0.00    -0.383 OA
HETATM   31  H   UNK N   1      23.798  23.144  -7.337  0.00  0.00     0.210 HD
ENDBRANCH   4  30
TORSDOF 3
ENDMDL
MODEL 5
REMARK VINA RESULT:      -7.2      2.466      5.889
REMARK  3 active torsions:
REMARK  status: ('A' for Active; 'I' for Inactive)
REMARK    1  A    between atoms: C_4  and  O_20 
REMARK    2  A    between atoms: C_13  and  O_25 
REMARK    3  A    between atoms: C_17  and  C_26 
ROOT
HETATM    1  C   UNK N   1      34.889  11.130  10.567  0.00  0.00     0.266 C 
HETATM    2  O   UNK N   1      33.702  11.386   9.994  0.00  0.00    -0.312 OA
HETATM    3  C   UNK N   1      33.850  12.594   9.392  0.00  0.00     0.171 C 
HETATM    4  C   UNK N   1      34.744  13.407  10.257  0.00  0.00     0.138 C 
HETATM    5  C   UNK N   1      35.817  12.327  10.532  0.00  0.00     0.122 C 
HETATM    6  C   UNK N   1      33.949  14.519   8.257  0.00  0.00     0.049 C 
HETATM    7  C   UNK N   1      34.912  14.685   9.388  0.00  0.00     0.196 C 
HETATM    8  C   UNK N   1      33.549  15.941   7.834  0.00  0.00     0.063 C 
HETATM    9  C   UNK N   1      33.381  16.451   9.297  0.00  0.00     0.284 C 
HETATM   10  O   UNK N   1      34.444  15.845  10.064  0.00  0.00    -0.334 OA
HETATM   11  O   UNK N   1      33.720  17.777   9.258  0.00  0.00    -0.287 OA
HETATM   12  C   UNK N   1      34.585  18.021   8.280  0.00  0.00     0.291 C 
HETATM   13  C   UNK N   1      34.647  16.951   7.278  0.00  0.00     0.232 C 
HETATM   14  O   UNK N   1      35.211  10.016  10.945  0.00  0.00    -0.265 OA
HETATM   15  C   UNK N   1      32.858  13.522   8.774  0.00  0.00     0.052 C 
HETATM   16  C   UNK N   1      34.664  13.945   7.051  0.00  0.00     0.145 C 
HETATM   17  C   UNK N   1      32.723  15.355   6.667  0.00  0.00     0.013 C 
HETATM   18  C   UNK N   1      33.803  14.529   5.912  0.00  0.00     0.040 C 
HETATM   19  O   UNK N   1      35.270  19.029   8.238  0.00  0.00    -0.262 OA
HETATM   20  C   UNK N   1      36.545  12.571  11.844  0.00  0.00     0.024 C 
HETATM   21  C   UNK N   1      36.145  14.788   8.540  0.00  0.00     0.298 C 
HETATM   22  O   UNK N   1      35.942  14.447   7.240  0.00  0.00    -0.312 OA
HETATM   23  O   UNK N   1      37.240  15.114   8.972  0.00  0.00    -0.262 OA
ENDROOT
BRANCH  17  24
HETATM   24  C   UNK N   1      31.611  15.982   5.803  0.00  0.00    -0.047 C 
HETATM   25  C   UNK N   1      32.070  16.460   4.439  0.00  0.00     0.015 C 
HETATM   26  C   UNK N   1      30.947  17.121   6.544  0.00  0.00     0.015 C 
HETATM   27  C   UNK N   1      30.560  14.911   5.564  0.00  0.00     0.015 C 
ENDBRANCH  17  24
BRANCH  13  28
HETATM   28  O   UNK N   1      34.293  17.536   6.064  0.00  0.00    -0.385 OA
HETATM   29  H   UNK N   1      34.710  17.325   5.213  0.00  0.00     0.210 HD
ENDBRANCH  13  28
BRANCH   4  30
HETATM   30  O   UNK N   1      34.035  13.708  11.434  0.00  0.00    -0.383 OA
HETATM   31  H   UNK N   1      33.737  13.965  12.321  0.00  0.00     0.210 HD
ENDBRANCH   4  30
TORSDOF 3
ENDMDL
MODEL 6
REMARK VINA RESULT:      -7.2      7.840     10.740
REMARK  3 active torsions:
REMARK  status: ('A' for Active; 'I' for Inactive)
REMARK    1  A    between atoms: C_4  and  O_20 
REMARK    2  A    between atoms: C_13  and  O_25 
REMARK    3  A    between atoms: C_17  and  C_26 
ROOT
HETATM    1  C   UNK N   1      22.016  20.188   2.727  0.00  0.00     0.266 C 
HETATM    2  O   UNK N   1      23.077  19.977   3.521  0.00  0.00    -0.312 OA
HETATM    3  C   UNK N   1      22.911  18.722   4.013  0.00  0.00     0.171 C 
HETATM    4  C   UNK N   1      21.452  18.520   4.212  0.00  0.00     0.138 C 
HETATM    5  C   UNK N   1      20.969  19.101   2.861  0.00  0.00     0.122 C 
HETATM    6  C   UNK N   1      22.850  16.643   4.833  0.00  0.00     0.049 C 
HETATM    7  C   UNK N   1      21.417  17.030   4.649  0.00  0.00     0.196 C 
HETATM    8  C   UNK N   1      22.851  15.534   5.898  0.00  0.00     0.063 C 
HETATM    9  C   UNK N   1      21.827  16.263   6.820  0.00  0.00     0.284 C 
HETATM   10  O   UNK N   1      20.854  16.875   5.945  0.00  0.00    -0.334 OA
HETATM   11  O   UNK N   1      21.126  15.264   7.440  0.00  0.00    -0.287 OA
HETATM   12  C   UNK N   1      21.089  14.168   6.690  0.00  0.00     0.291 C 
HETATM   13  C   UNK N   1      22.097  14.159   5.625  0.00  0.00     0.232 C 
HETATM   14  O   UNK N   1      21.979  21.086   1.902  0.00  0.00    -0.265 OA
HETATM   15  C   UNK N   1      23.618  17.981   5.098  0.00  0.00     0.052 C 
HETATM   16  C   UNK N   1      23.368  15.971   3.578  0.00  0.00     0.145 C 
HETATM   17  C   UNK N   1      24.372  15.358   5.703  0.00  0.00     0.013 C 
HETATM   18  C   UNK N   1      24.454  15.055   4.180  0.00  0.00     0.040 C 
HETATM   19  O   UNK N   1      20.279  13.273   6.865  0.00  0.00    -0.262 OA
HETATM   20  C   UNK N   1      19.548  19.633   2.947  0.00  0.00     0.024 C 
HETATM   21  C   UNK N   1      21.105  16.007   3.596  0.00  0.00     0.298 C 
HETATM   22  O   UNK N   1      22.208  15.392   3.092  0.00  0.00    -0.312 OA
HETATM   23  O   UNK N   1      19.976  15.765   3.199  0.00  0.00    -0.262 OA
ENDROOT
BRANCH  17  24
HETATM   24  C   UNK N   1      25.433  14.679   6.594  0.00  0.00    -0.047 C 
HETATM   25  C   UNK N   1      24.881  14.051   7.859  0.00  0.00     0.015 C 
HETATM   26  C   UNK N   1      26.529  15.659   6.948  0.00  0.00     0.015 C 
HETATM   27  C   UNK N   1      26.060  13.558   5.783  0.00  0.00     0.015 C 
ENDBRANCH  17  24
BRANCH  13  28
HETATM   28  O   UNK N   1      22.894  13.039   5.856  0.00  0.00    -0.385 OA
HETATM   29  H   UNK N   1      23.810  13.076   6.174  0.00  0.00     0.210 HD
ENDBRANCH  13  28
BRANCH   4  30
HETATM   30  O   UNK N   1      21.050  19.350   5.275  0.00  0.00    -0.383 OA
HETATM   31  H   UNK N   1      20.940  20.036   5.951  0.00  0.00     0.210 HD
ENDBRANCH   4  30
TORSDOF 3
ENDMDL
MODEL 7
REMARK VINA RESULT:      -7.2      3.009      6.629
REMARK  3 active torsions:
REMARK  status: ('A' for Active; 'I' for Inactive)
REMARK    1  A    between atoms: C_4  and  O_20 
REMARK    2  A    between atoms: C_13  and  O_25 
REMARK    3  A    between atoms: C_17  and  C_26 
ROOT
HETATM    1  C   UNK N   1      36.601  11.823  12.821  0.00  0.00     0.266 C 
HETATM    2  O   UNK N   1      35.909  11.234  11.833  0.00  0.00    -0.312 OA
HETATM    3  C   UNK N   1      35.623  12.230  10.955  0.00  0.00     0.171 C 
HETATM    4  C   UNK N   1      35.385  13.461  11.753  0.00  0.00     0.138 C 
HETATM    5  C   UNK N   1      36.594  13.334  12.710  0.00  0.00     0.122 C 
HETATM    6  C   UNK N   1      35.156  13.721   9.355  0.00  0.00     0.049 C 
HETATM    7  C   UNK N   1      35.199  14.512  10.623  0.00  0.00     0.196 C 
HETATM    8  C   UNK N   1      34.291  14.537   8.381  0.00  0.00     0.063 C 
HETATM    9  C   UNK N   1      33.209  14.877   9.450  0.00  0.00     0.284 C 
HETATM   10  O   UNK N   1      33.919  15.127  10.683  0.00  0.00    -0.334 OA
HETATM   11  O   UNK N   1      32.727  16.109   9.095  0.00  0.00    -0.287 OA
HETATM   12  C   UNK N   1      33.645  16.813   8.441  0.00  0.00     0.291 C 
HETATM   13  C   UNK N   1      34.748  15.993   7.928  0.00  0.00     0.232 C 
HETATM   14  O   UNK N   1      37.263  11.192  13.629  0.00  0.00    -0.265 OA
HETATM   15  C   UNK N   1      34.714  12.278   9.772  0.00  0.00     0.052 C 
HETATM   16  C   UNK N   1      36.530  13.693   8.718  0.00  0.00     0.145 C 
HETATM   17  C   UNK N   1      34.592  13.512   7.266  0.00  0.00     0.013 C 
HETATM   18  C   UNK N   1      36.146  13.542   7.232  0.00  0.00     0.040 C 
HETATM   19  O   UNK N   1      33.578  18.022   8.305  0.00  0.00    -0.262 OA
HETATM   20  C   UNK N   1      36.347  14.040  14.033  0.00  0.00     0.024 C 
HETATM   21  C   UNK N   1      36.388  15.349  10.254  0.00  0.00     0.298 C 
HETATM   22  O   UNK N   1      37.045  14.905   9.150  0.00  0.00    -0.312 OA
HETATM   23  O   UNK N   1      36.760  16.319  10.896  0.00  0.00    -0.262 OA
ENDROOT
BRANCH  17  24
HETATM   24  C   UNK N   1      33.882  13.242   5.924  0.00  0.00    -0.047 C 
HETATM   25  C   UNK N   1      34.658  13.694   4.702  0.00  0.00     0.015 C 
HETATM   26  C   UNK N   1      32.509  13.878   5.917  0.00  0.00     0.015 C 
HETATM   27  C   UNK N   1      33.697  11.740   5.798  0.00  0.00     0.015 C 
ENDBRANCH  17  24
BRANCH  13  28
HETATM   28  O   UNK N   1      34.748  16.165   6.545  0.00  0.00    -0.385 OA
HETATM   29  H   UNK N   1      33.948  16.174   5.996  0.00  0.00     0.210 HD
ENDBRANCH  13  28
BRANCH   4  30
HETATM   30  O   UNK N   1      34.179  13.283  12.456  0.00  0.00    -0.383 OA
HETATM   31  H   UNK N   1      33.346  12.974  12.845  0.00  0.00     0.210 HD
ENDBRANCH   4  30
TORSDOF 3
ENDMDL
MODEL 8
REMARK VINA RESULT:      -7.1     15.681     17.839
REMARK  3 active torsions:
REMARK  status: ('A' for Active; 'I' for Inactive)
REMARK    1  A    between atoms: C_4  and  O_20 
REMARK    2  A    between atoms: C_13  and  O_25 
REMARK    3  A    between atoms: C_17  and  C_26 
ROOT
HETATM    1  C   UNK N   1      26.755  22.146  -8.800  0.00  0.00     0.266 C 
HETATM    2  O   UNK N   1      27.226  23.302  -9.294  0.00  0.00    -0.312 OA
HETATM    3  C   UNK N   1      27.235  24.162  -8.244  0.00  0.00     0.171 C 
HETATM    4  C   UNK N   1      26.054  23.837  -7.402  0.00  0.00     0.138 C 
HETATM    5  C   UNK N   1      26.215  22.298  -7.392  0.00  0.00     0.122 C 
HETATM    6  C   UNK N   1      27.416  25.677  -6.608  0.00  0.00     0.049 C 
HETATM    7  C   UNK N   1      26.272  24.802  -6.204  0.00  0.00     0.196 C 
HETATM    8  C   UNK N   1      27.202  27.012  -5.878  0.00  0.00     0.063 C 
HETATM    9  C   UNK N   1      25.674  27.063  -6.183  0.00  0.00     0.284 C 
HETATM   10  O   UNK N   1      25.188  25.710  -6.056  0.00  0.00    -0.334 OA
HETATM   11  O   UNK N   1      25.115  27.713  -5.115  0.00  0.00    -0.287 OA
HETATM   12  C   UNK N   1      25.841  27.539  -4.015  0.00  0.00     0.291 C 
HETATM   13  C   UNK N   1      27.202  27.065  -4.287  0.00  0.00     0.232 C 
HETATM   14  O   UNK N   1      26.880  21.081  -9.381  0.00  0.00    -0.265 OA
HETATM   15  C   UNK N   1      27.444  25.638  -8.173  0.00  0.00     0.052 C 
HETATM   16  C   UNK N   1      28.709  25.129  -6.040  0.00  0.00     0.145 C 
HETATM   17  C   UNK N   1      28.551  27.522  -6.429  0.00  0.00     0.013 C 
HETATM   18  C   UNK N   1      29.528  26.430  -5.908  0.00  0.00     0.040 C 
HETATM   19  O   UNK N   1      25.402  27.738  -2.895  0.00  0.00    -0.262 OA
HETATM   20  C   UNK N   1      24.889  21.589  -7.170  0.00  0.00     0.024 C 
HETATM   21  C   UNK N   1      26.921  24.242  -4.972  0.00  0.00     0.298 C 
HETATM   22  O   UNK N   1      28.250  24.516  -4.885  0.00  0.00    -0.312 OA
HETATM   23  O   UNK N   1      26.330  23.574  -4.139  0.00  0.00    -0.262 OA
ENDROOT
BRANCH  17  24
HETATM   24  C   UNK N   1      29.120  28.951  -6.544  0.00  0.00    -0.047 C 
HETATM   25  C   UNK N   1      30.431  29.166  -5.814  0.00  0.00     0.015 C 
HETATM   26  C   UNK N   1      28.101  29.963  -6.068  0.00  0.00     0.015 C 
HETATM   27  C   UNK N   1      29.385  29.219  -8.016  0.00  0.00     0.015 C 
ENDBRANCH  17  24
BRANCH  13  28
HETATM   28  O   UNK N   1      28.060  28.032  -3.767  0.00  0.00    -0.385 OA
HETATM   29  H   UNK N   1      28.455  27.994  -2.882  0.00  0.00     0.210 HD
ENDBRANCH  13  28
BRANCH   4  30
HETATM   30  O   UNK N   1      24.904  24.207  -8.123  0.00  0.00    -0.383 OA
HETATM   31  H   UNK N   1      24.225  24.402  -8.787  0.00  0.00     0.210 HD
ENDBRANCH   4  30
TORSDOF 3
ENDMDL
MODEL 9
REMARK VINA RESULT:      -7.1      9.053     11.850
REMARK  3 active torsions:
REMARK  status: ('A' for Active; 'I' for Inactive)
REMARK    1  A    between atoms: C_4  and  O_20 
REMARK    2  A    between atoms: C_13  and  O_25 
REMARK    3  A    between atoms: C_17  and  C_26 
ROOT
HETATM    1  C   UNK N   1      23.085  20.148   3.101  0.00  0.00     0.266 C 
HETATM    2  O   UNK N   1      23.666  19.494   4.120  0.00  0.00    -0.312 OA
HETATM    3  C   UNK N   1      22.990  18.321   4.223  0.00  0.00     0.171 C 
HETATM    4  C   UNK N   1      21.569  18.604   3.892  0.00  0.00     0.138 C 
HETATM    5  C   UNK N   1      21.811  19.474   2.635  0.00  0.00     0.122 C 
HETATM    6  C   UNK N   1      22.058  16.303   4.467  0.00  0.00     0.049 C 
HETATM    7  C   UNK N   1      20.966  17.173   3.932  0.00  0.00     0.196 C 
HETATM    8  C   UNK N   1      21.354  15.140   5.184  0.00  0.00     0.063 C 
HETATM    9  C   UNK N   1      20.299  16.056   5.876  0.00  0.00     0.284 C 
HETATM   10  O   UNK N   1      19.937  17.063   4.906  0.00  0.00    -0.334 OA
HETATM   11  O   UNK N   1      19.172  15.287   5.986  0.00  0.00    -0.287 OA
HETATM   12  C   UNK N   1      19.123  14.368   5.027  0.00  0.00     0.291 C 
HETATM   13  C   UNK N   1      20.415  14.146   4.369  0.00  0.00     0.232 C 
HETATM   14  O   UNK N   1      23.609  21.098   2.544  0.00  0.00    -0.265 OA
HETATM   15  C   UNK N   1      23.004  17.258   5.270  0.00  0.00     0.052 C 
HETATM   16  C   UNK N   1      22.807  15.652   3.322  0.00  0.00     0.145 C 
HETATM   17  C   UNK N   1      22.726  14.481   5.449  0.00  0.00     0.013 C 
HETATM   18  C   UNK N   1      23.290  14.356   4.005  0.00  0.00     0.040 C 
HETATM   19  O   UNK N   1      18.096  13.787   4.719  0.00  0.00    -0.262 OA
HETATM   20  C   UNK N   1      20.666  20.442   2.385  0.00  0.00     0.024 C 
HETATM   21  C   UNK N   1      20.808  16.452   2.625  0.00  0.00     0.298 C 
HETATM   22  O   UNK N   1      21.805  15.565   2.368  0.00  0.00    -0.312 OA
HETATM   23  O   UNK N   1      19.893  16.659   1.844  0.00  0.00    -0.262 OA
ENDROOT
BRANCH  17  24
HETATM   24  C   UNK N   1      23.142  13.380   6.444  0.00  0.00    -0.047 C 
HETATM   25  C   UNK N   1      23.505  12.056   5.801  0.00  0.00     0.015 C 
HETATM   26  C   UNK N   1      22.055  13.163   7.474  0.00  0.00     0.015 C 
HETATM   27  C   UNK N   1      24.380  13.870   7.176  0.00  0.00     0.015 C 
ENDBRANCH  17  24
BRANCH  13  28
HETATM   28  O   UNK N   1      20.726  12.803   4.571  0.00  0.00    -0.385 OA
HETATM   29  H   UNK N   1      21.591  12.482   4.874  0.00  0.00     0.210 HD
ENDBRANCH  13  28
BRANCH   4  30
HETATM   30  O   UNK N   1      21.039  19.385   4.936  0.00  0.00    -0.383 OA
HETATM   31  H   UNK N   1      20.665  20.073   5.508  0.00  0.00     0.210 HD
ENDBRANCH   4  30
TORSDOF 3
ENDMDL
