MODEL 1
REMARK VINA RESULT:      -1.3      0.000      0.000
REMARK  1 active torsions:
REMARK  status: ('A' for Active; 'I' for Inactive)
REMARK    1  A    between atoms: Mn_1  and  Mn_1 
ROOT
HETATM    1 Mn   UNK N   1      38.595  29.706  19.364  0.00  0.00     0.000 Mn
ENDROOT
TORSDOF 1
ENDMDL
MODEL 2
REMARK VINA RESULT:      -1.2     10.768     10.768
REMARK  1 active torsions:
REMARK  status: ('A' for Active; 'I' for Inactive)
REMARK    1  A    between atoms: Mn_1  and  Mn_1 
ROOT
HETATM    1 Mn   UNK N   1      39.964  21.073  13.075  0.00  0.00     0.000 Mn
ENDROOT
TORSDOF 1
ENDMDL
MODEL 3
REMARK VINA RESULT:      -1.2     11.043     11.043
REMARK  1 active torsions:
REMARK  status: ('A' for Active; 'I' for Inactive)
REMARK    1  A    between atoms: Mn_1  and  Mn_1 
ROOT
HETATM    1 Mn   UNK N   1      35.636  21.382  12.738  0.00  0.00     0.000 Mn
ENDROOT
TORSDOF 1
ENDMDL
MODEL 4
REMARK VINA RESULT:      -1.2     31.890     31.890
REMARK  1 active torsions:
REMARK  status: ('A' for Active; 'I' for Inactive)
REMARK    1  A    between atoms: Mn_1  and  Mn_1 
ROOT
HETATM    1 Mn   UNK N   1      21.453  21.778  -6.332  0.00  0.00     0.000 Mn
ENDROOT
TORSDOF 1
ENDMDL
MODEL 5
REMARK VINA RESULT:      -1.1     15.615     15.615
REMARK  1 active torsions:
REMARK  status: ('A' for Active; 'I' for Inactive)
REMARK    1  A    between atoms: Mn_1  and  Mn_1 
ROOT
HETATM    1 Mn   UNK N   1      43.320  25.304   5.147  0.00  0.00     0.000 Mn
ENDROOT
TORSDOF 1
ENDMDL
MODEL 6
REMARK VINA RESULT:      -1.1     17.126     17.126
REMARK  1 active torsions:
REMARK  status: ('A' for Active; 'I' for Inactive)
REMARK    1  A    between atoms: Mn_1  and  Mn_1 
ROOT
HETATM    1 Mn   UNK N   1      21.518  30.951  19.688  0.00  0.00     0.000 Mn
ENDROOT
TORSDOF 1
ENDMDL
MODEL 7
REMARK VINA RESULT:      -1.0      9.039      9.039
REMARK  1 active torsions:
REMARK  status: ('A' for Active; 'I' for Inactive)
REMARK    1  A    between atoms: Mn_1  and  Mn_1 
ROOT
HETATM    1 Mn   UNK N   1      41.691  21.639  22.017  0.00  0.00     0.000 Mn
ENDROOT
TORSDOF 1
ENDMDL
MODEL 8
REMARK VINA RESULT:      -1.0     16.909     16.909
REMARK  1 active torsions:
REMARK  status: ('A' for Active; 'I' for Inactive)
REMARK    1  A    between atoms: Mn_1  and  Mn_1 
ROOT
HETATM    1 Mn   UNK N   1      21.740  29.113  18.160  0.00  0.00     0.000 Mn
ENDROOT
TORSDOF 1
ENDMDL
MODEL 9
REMARK VINA RESULT:      -0.9     24.692     24.692
REMARK  1 active torsions:
REMARK  status: ('A' for Active; 'I' for Inactive)
REMARK    1  A    between atoms: Mn_1  and  Mn_1 
ROOT
HETATM    1 Mn   UNK N   1      17.468  20.394  10.612  0.00  0.00     0.000 Mn
ENDROOT
TORSDOF 1
ENDMDL
