MODEL 1
REMARK VINA RESULT:      -7.7      0.000      0.000
REMARK  4 active torsions:
REMARK  status: ('A' for Active; 'I' for Inactive)
REMARK    1  A    between atoms: C_13  and  O_25 
REMARK    2  A    between atoms: C_15  and  O_20 
REMARK    3  A    between atoms: C_17  and  C_26 
REMARK    4  A    between atoms: C_18  and  O_30 
ROOT
HETATM    1  C   UNK N   1      29.280  17.688   7.933  0.00  0.00     0.263 C 
HETATM    2  O   UNK N   1      29.783  17.008   8.989  0.00  0.00    -0.312 OA
HETATM    3  C   UNK N   1      31.140  16.871   8.867  0.00  0.00     0.169 C 
HETATM    4  C   UNK N   1      31.370  17.083   7.407  0.00  0.00     0.077 C 
HETATM    5  C   UNK N   1      30.246  17.899   6.808  0.00  0.00     0.091 C 
HETATM    6  C   UNK N   1      33.155  15.840   8.230  0.00  0.00     0.074 C 
HETATM    7  C   UNK N   1      32.622  16.345   6.953  0.00  0.00     0.172 C 
HETATM    8  C   UNK N   1      34.151  14.710   7.841  0.00  0.00     0.068 C 
HETATM    9  C   UNK N   1      33.111  14.060   6.854  0.00  0.00     0.284 C 
HETATM   10  O   UNK N   1      32.387  15.149   6.224  0.00  0.00    -0.337 OA
HETATM   11  O   UNK N   1      33.843  13.531   5.831  0.00  0.00    -0.287 OA
HETATM   12  C   UNK N   1      34.976  14.197   5.665  0.00  0.00     0.291 C 
HETATM   13  C   UNK N   1      35.366  14.990   6.839  0.00  0.00     0.232 C 
HETATM   14  O   UNK N   1      28.151  18.151   7.938  0.00  0.00    -0.265 OA
HETATM   15  C   UNK N   1      31.832  15.531   9.033  0.00  0.00     0.164 C 
HETATM   16  C   UNK N   1      34.000  16.926   8.848  0.00  0.00     0.176 C 
HETATM   17  C   UNK N   1      34.686  14.598   9.314  0.00  0.00     0.042 C 
HETATM   18  C   UNK N   1      34.940  16.087   9.707  0.00  0.00     0.154 C 
HETATM   19  O   UNK N   1      35.634  14.132   4.642  0.00  0.00    -0.262 OA
HETATM   20  C   UNK N   1      29.728  17.267   5.532  0.00  0.00     0.021 C 
HETATM   21  C   UNK N   1      33.748  17.264   6.637  0.00  0.00     0.296 C 
HETATM   22  O   UNK N   1      34.531  17.525   7.710  0.00  0.00    -0.310 OA
HETATM   23  O   UNK N   1      33.934  17.780   5.538  0.00  0.00    -0.262 OA
ENDROOT
BRANCH  17  24
HETATM   24  C   UNK N   1      35.826  13.690   9.888  0.00  0.00    -0.044 C 
HETATM   25  C   UNK N   1      37.175  14.398  10.018  0.00  0.00     0.015 C 
HETATM   26  C   UNK N   1      35.994  12.422   9.081  0.00  0.00     0.015 C 
HETATM   27  C   UNK N   1      35.464  13.287  11.306  0.00  0.00     0.015 C 
ENDBRANCH  17  24
BRANCH  18  28
HETATM   28  O   UNK N   1      34.599  16.267  11.050  0.00  0.00    -0.393 OA
HETATM   29  H   UNK N   1      34.808  15.584  11.707  0.00  0.00     0.210 HD
ENDBRANCH  18  28
BRANCH  13  30
HETATM   30  O   UNK N   1      36.571  14.423   7.232  0.00  0.00    -0.385 OA
HETATM   31  H   UNK N   1      37.058  13.819   6.650  0.00  0.00     0.210 HD
ENDBRANCH  13  30
BRANCH  15  32
HETATM   32  O   UNK N   1      32.031  15.215  10.377  0.00  0.00    -0.392 OA
HETATM   33  H   UNK N   1      31.648  15.764  11.079  0.00  0.00     0.210 HD
ENDBRANCH  15  32
TORSDOF 4
ENDMDL
MODEL 2
REMARK VINA RESULT:      -7.5     15.464     18.107
REMARK  4 active torsions:
REMARK  status: ('A' for Active; 'I' for Inactive)
REMARK    1  A    between atoms: C_13  and  O_25 
REMARK    2  A    between atoms: C_15  and  O_20 
REMARK    3  A    between atoms: C_17  and  C_26 
REMARK    4  A    between atoms: C_18  and  O_30 
ROOT
HETATM    1  C   UNK N   1      26.004  27.283  -3.767  0.00  0.00     0.263 C 
HETATM    2  O   UNK N   1      26.813  26.255  -3.427  0.00  0.00    -0.312 OA
HETATM    3  C   UNK N   1      27.414  25.731  -4.540  0.00  0.00     0.169 C 
HETATM    4  C   UNK N   1      26.528  26.193  -5.650  0.00  0.00     0.077 C 
HETATM    5  C   UNK N   1      25.770  27.436  -5.238  0.00  0.00     0.091 C 
HETATM    6  C   UNK N   1      27.654  24.297  -6.389  0.00  0.00     0.074 C 
HETATM    7  C   UNK N   1      26.597  25.225  -6.824  0.00  0.00     0.172 C 
HETATM    8  C   UNK N   1      27.485  23.034  -7.282  0.00  0.00     0.068 C 
HETATM    9  C   UNK N   1      25.933  22.992  -7.019  0.00  0.00     0.284 C 
HETATM   10  O   UNK N   1      25.475  24.367  -6.966  0.00  0.00    -0.337 OA
HETATM   11  O   UNK N   1      25.371  22.511  -8.165  0.00  0.00    -0.287 OA
HETATM   12  C   UNK N   1      26.117  22.808  -9.219  0.00  0.00     0.291 C 
HETATM   13  C   UNK N   1      27.506  23.144  -8.877  0.00  0.00     0.232 C 
HETATM   14  O   UNK N   1      25.562  28.062  -2.938  0.00  0.00    -0.265 OA
HETATM   15  C   UNK N   1      27.414  24.242  -4.830  0.00  0.00     0.164 C 
HETATM   16  C   UNK N   1      28.987  24.888  -6.777  0.00  0.00     0.176 C 
HETATM   17  C   UNK N   1      28.838  22.421  -6.768  0.00  0.00     0.042 C 
HETATM   18  C   UNK N   1      29.829  23.622  -6.880  0.00  0.00     0.154 C 
HETATM   19  O   UNK N   1      25.688  22.779 -10.359  0.00  0.00    -0.262 OA
HETATM   20  C   UNK N   1      24.296  27.312  -5.562  0.00  0.00     0.021 C 
HETATM   21  C   UNK N   1      27.322  25.792  -7.992  0.00  0.00     0.296 C 
HETATM   22  O   UNK N   1      28.651  25.537  -7.960  0.00  0.00    -0.310 OA
HETATM   23  O   UNK N   1      26.796  26.463  -8.876  0.00  0.00    -0.262 OA
ENDROOT
BRANCH  17  24
HETATM   24  C   UNK N   1      29.550  21.095  -7.197  0.00  0.00    -0.044 C 
HETATM   25  C   UNK N   1      30.645  21.292  -8.247  0.00  0.00     0.015 C 
HETATM   26  C   UNK N   1      28.563  20.058  -7.682  0.00  0.00     0.015 C 
HETATM   27  C   UNK N   1      30.271  20.514  -5.994  0.00  0.00     0.015 C 
ENDBRANCH  17  24
BRANCH  18  28
HETATM   28  O   UNK N   1      30.715  23.583  -5.800  0.00  0.00    -0.393 OA
HETATM   29  H   UNK N   1      31.446  24.218  -5.740  0.00  0.00     0.210 HD
ENDBRANCH  18  28
BRANCH  13  30
HETATM   30  O   UNK N   1      28.247  22.152  -9.506  0.00  0.00    -0.385 OA
HETATM   31  H   UNK N   1      28.454  21.316  -9.060  0.00  0.00     0.210 HD
ENDBRANCH  13  30
BRANCH  15  32
HETATM   32  O   UNK N   1      28.410  23.576  -4.114  0.00  0.00    -0.392 OA
HETATM   33  H   UNK N   1      29.177  23.192  -4.569  0.00  0.00     0.210 HD
ENDBRANCH  15  32
TORSDOF 4
ENDMDL
MODEL 3
REMARK VINA RESULT:      -7.4      1.791      5.928
REMARK  4 active torsions:
REMARK  status: ('A' for Active; 'I' for Inactive)
REMARK    1  A    between atoms: C_13  and  O_25 
REMARK    2  A    between atoms: C_15  and  O_20 
REMARK    3  A    between atoms: C_17  and  C_26 
REMARK    4  A    between atoms: C_18  and  O_30 
ROOT
HETATM    1  C   UNK N   1      36.996  13.930  10.095  0.00  0.00     0.263 C 
HETATM    2  O   UNK N   1      36.450  13.277   9.044  0.00  0.00    -0.312 OA
HETATM    3  C   UNK N   1      35.760  14.149   8.245  0.00  0.00     0.169 C 
HETATM    4  C   UNK N   1      35.502  15.306   9.154  0.00  0.00     0.077 C 
HETATM    5  C   UNK N   1      36.527  15.342  10.267  0.00  0.00     0.091 C 
HETATM    6  C   UNK N   1      33.892  15.353   7.477  0.00  0.00     0.074 C 
HETATM    7  C   UNK N   1      34.241  16.045   8.729  0.00  0.00     0.172 C 
HETATM    8  C   UNK N   1      32.401  15.712   7.212  0.00  0.00     0.068 C 
HETATM    9  C   UNK N   1      32.001  15.376   8.697  0.00  0.00     0.284 C 
HETATM   10  O   UNK N   1      33.100  15.808   9.540  0.00  0.00    -0.337 OA
HETATM   11  O   UNK N   1      30.993  16.238   9.019  0.00  0.00    -0.287 OA
HETATM   12  C   UNK N   1      31.092  17.363   8.325  0.00  0.00     0.291 C 
HETATM   13  C   UNK N   1      31.924  17.235   7.120  0.00  0.00     0.232 C 
HETATM   14  O   UNK N   1      37.856  13.423  10.797  0.00  0.00    -0.265 OA
HETATM   15  C   UNK N   1      34.339  13.873   7.791  0.00  0.00     0.164 C 
HETATM   16  C   UNK N   1      34.666  15.996   6.354  0.00  0.00     0.176 C 
HETATM   17  C   UNK N   1      32.446  15.076   5.775  0.00  0.00     0.042 C 
HETATM   18  C   UNK N   1      33.758  15.669   5.173  0.00  0.00     0.154 C 
HETATM   19  O   UNK N   1      30.525  18.390   8.652  0.00  0.00    -0.262 OA
HETATM   20  C   UNK N   1      35.864  15.525  11.617  0.00  0.00     0.021 C 
HETATM   21  C   UNK N   1      34.531  17.375   8.127  0.00  0.00     0.296 C 
HETATM   22  O   UNK N   1      34.710  17.316   6.786  0.00  0.00    -0.310 OA
HETATM   23  O   UNK N   1      34.647  18.416   8.769  0.00  0.00    -0.262 OA
ENDROOT
BRANCH  17  24
HETATM   24  C   UNK N   1      31.328  15.024   4.680  0.00  0.00    -0.044 C 
HETATM   25  C   UNK N   1      31.436  16.134   3.633  0.00  0.00     0.015 C 
HETATM   26  C   UNK N   1      29.944  15.033   5.288  0.00  0.00     0.015 C 
HETATM   27  C   UNK N   1      31.475  13.736   3.891  0.00  0.00     0.015 C 
ENDBRANCH  17  24
BRANCH  18  28
HETATM   28  O   UNK N   1      34.379  14.695   4.387  0.00  0.00    -0.393 OA
HETATM   29  H   UNK N   1      35.335  14.730   4.223  0.00  0.00     0.210 HD
ENDBRANCH  18  28
BRANCH  13  30
HETATM   30  O   UNK N   1      31.037  17.493   6.083  0.00  0.00    -0.385 OA
HETATM   31  H   UNK N   1      31.041  16.962   5.271  0.00  0.00     0.210 HD
ENDBRANCH  13  30
BRANCH  15  32
HETATM   32  O   UNK N   1      34.305  13.013   6.693  0.00  0.00    -0.392 OA
HETATM   33  H   UNK N   1      34.071  12.077   6.801  0.00  0.00     0.210 HD
ENDBRANCH  15  32
TORSDOF 4
ENDMDL
MODEL 4
REMARK VINA RESULT:      -7.1     10.104     12.852
REMARK  4 active torsions:
REMARK  status: ('A' for Active; 'I' for Inactive)
REMARK    1  A    between atoms: C_13  and  O_25 
REMARK    2  A    between atoms: C_15  and  O_20 
REMARK    3  A    between atoms: C_17  and  C_26 
REMARK    4  A    between atoms: C_18  and  O_30 
ROOT
HETATM    1  C   UNK N   1      22.235  19.980   3.088  0.00  0.00     0.263 C 
HETATM    2  O   UNK N   1      22.998  19.357   4.016  0.00  0.00    -0.312 OA
HETATM    3  C   UNK N   1      22.824  18.001   3.944  0.00  0.00     0.169 C 
HETATM    4  C   UNK N   1      21.517  17.866   3.235  0.00  0.00     0.077 C 
HETATM    5  C   UNK N   1      21.237  19.099   2.404  0.00  0.00     0.091 C 
HETATM    6  C   UNK N   1      21.857  15.920   4.462  0.00  0.00     0.074 C 
HETATM    7  C   UNK N   1      20.829  16.566   3.629  0.00  0.00     0.172 C 
HETATM    8  C   UNK N   1      21.102  14.828   5.274  0.00  0.00     0.068 C 
HETATM    9  C   UNK N   1      19.965  15.840   5.677  0.00  0.00     0.284 C 
HETATM   10  O   UNK N   1      19.744  16.706   4.534  0.00  0.00    -0.337 OA
HETATM   11  O   UNK N   1      18.817  15.106   5.748  0.00  0.00    -0.287 OA
HETATM   12  C   UNK N   1      18.872  14.060   4.936  0.00  0.00     0.291 C 
HETATM   13  C   UNK N   1      20.240  13.701   4.537  0.00  0.00     0.232 C 
HETATM   14  O   UNK N   1      22.407  21.151   2.789  0.00  0.00    -0.265 OA
HETATM   15  C   UNK N   1      22.523  17.162   5.172  0.00  0.00     0.164 C 
HETATM   16  C   UNK N   1      22.795  15.167   3.551  0.00  0.00     0.176 C 
HETATM   17  C   UNK N   1      22.448  14.214   5.804  0.00  0.00     0.042 C 
HETATM   18  C   UNK N   1      23.314  14.102   4.511  0.00  0.00     0.154 C 
HETATM   19  O   UNK N   1      17.880  13.450   4.580  0.00  0.00    -0.262 OA
HETATM   20  C   UNK N   1      19.828  19.607   2.633  0.00  0.00     0.021 C 
HETATM   21  C   UNK N   1      20.828  15.562   2.531  0.00  0.00     0.296 C 
HETATM   22  O   UNK N   1      21.918  14.760   2.551  0.00  0.00    -0.310 OA
HETATM   23  O   UNK N   1      19.963  15.486   1.662  0.00  0.00    -0.262 OA
ENDROOT
BRANCH  17  24
HETATM   24  C   UNK N   1      22.672  12.957   6.711  0.00  0.00    -0.044 C 
HETATM   25  C   UNK N   1      23.020  11.687   5.932  0.00  0.00     0.015 C 
HETATM   26  C   UNK N   1      21.486  12.692   7.610  0.00  0.00     0.015 C 
HETATM   27  C   UNK N   1      23.876  13.204   7.601  0.00  0.00     0.015 C 
ENDBRANCH  17  24
BRANCH  18  28
HETATM   28  O   UNK N   1      24.643  14.395   4.827  0.00  0.00    -0.393 OA
HETATM   29  H   UNK N   1      25.061  15.205   4.496  0.00  0.00     0.210 HD
ENDBRANCH  18  28
BRANCH  13  30
HETATM   30  O   UNK N   1      20.408  12.425   5.057  0.00  0.00    -0.385 OA
HETATM   31  H   UNK N   1      20.688  12.286   5.975  0.00  0.00     0.210 HD
ENDBRANCH  13  30
BRANCH  15  32
HETATM   32  O   UNK N   1      23.682  16.864   5.891  0.00  0.00    -0.392 OA
HETATM   33  H   UNK N   1      23.666  16.811   6.859  0.00  0.00     0.210 HD
ENDBRANCH  15  32
TORSDOF 4
ENDMDL
MODEL 5
REMARK VINA RESULT:      -7.1      9.875     13.058
REMARK  4 active torsions:
REMARK  status: ('A' for Active; 'I' for Inactive)
REMARK    1  A    between atoms: C_13  and  O_25 
REMARK    2  A    between atoms: C_15  and  O_20 
REMARK    3  A    between atoms: C_17  and  C_26 
REMARK    4  A    between atoms: C_18  and  O_30 
ROOT
HETATM    1  C   UNK N   1      20.907  20.045   1.551  0.00  0.00     0.263 C 
HETATM    2  O   UNK N   1      20.457  18.820   1.197  0.00  0.00    -0.312 OA
HETATM    3  C   UNK N   1      20.436  17.986   2.282  0.00  0.00     0.169 C 
HETATM    4  C   UNK N   1      21.381  18.645   3.231  0.00  0.00     0.077 C 
HETATM    5  C   UNK N   1      21.490  20.123   2.929  0.00  0.00     0.091 C 
HETATM    6  C   UNK N   1      21.275  16.390   3.792  0.00  0.00     0.074 C 
HETATM    7  C   UNK N   1      22.008  17.613   4.160  0.00  0.00     0.172 C 
HETATM    8  C   UNK N   1      22.137  15.215   4.337  0.00  0.00     0.068 C 
HETATM    9  C   UNK N   1      23.452  15.826   3.724  0.00  0.00     0.284 C 
HETATM   10  O   UNK N   1      23.352  17.267   3.858  0.00  0.00    -0.337 OA
HETATM   11  O   UNK N   1      24.457  15.494   4.585  0.00  0.00    -0.287 OA
HETATM   12  C   UNK N   1      23.997  15.354   5.819  0.00  0.00     0.291 C 
HETATM   13  C   UNK N   1      22.545  15.138   5.881  0.00  0.00     0.232 C 
HETATM   14  O   UNK N   1      20.778  21.019   0.826  0.00  0.00    -0.265 OA
HETATM   15  C   UNK N   1      21.052  16.600   2.244  0.00  0.00     0.164 C 
HETATM   16  C   UNK N   1      19.995  16.353   4.590  0.00  0.00     0.176 C 
HETATM   17  C   UNK N   1      21.005  14.169   4.028  0.00  0.00     0.042 C 
HETATM   18  C   UNK N   1      19.730  14.852   4.614  0.00  0.00     0.154 C 
HETATM   19  O   UNK N   1      24.721  15.379   6.799  0.00  0.00    -0.262 OA
HETATM   20  C   UNK N   1      22.937  20.568   2.875  0.00  0.00     0.021 C 
HETATM   21  C   UNK N   1      21.504  17.716   5.555  0.00  0.00     0.296 C 
HETATM   22  O   UNK N   1      20.406  16.954   5.774  0.00  0.00    -0.310 OA
HETATM   23  O   UNK N   1      21.989  18.445   6.416  0.00  0.00    -0.262 OA
ENDROOT
BRANCH  17  24
HETATM   24  C   UNK N   1      20.972  12.631   4.320  0.00  0.00    -0.044 C 
HETATM   25  C   UNK N   1      20.251  12.262   5.617  0.00  0.00     0.015 C 
HETATM   26  C   UNK N   1      22.359  12.029   4.322  0.00  0.00     0.015 C 
HETATM   27  C   UNK N   1      20.175  11.942   3.227  0.00  0.00     0.015 C 
ENDBRANCH  17  24
BRANCH  18  28
HETATM   28  O   UNK N   1      18.643  14.575   3.781  0.00  0.00    -0.393 OA
HETATM   29  H   UNK N   1      17.804  15.050   3.893  0.00  0.00     0.210 HD
ENDBRANCH  18  28
BRANCH  13  30
HETATM   30  O   UNK N   1      22.425  13.873   6.440  0.00  0.00    -0.385 OA
HETATM   31  H   UNK N   1      21.642  13.323   6.282  0.00  0.00     0.210 HD
ENDBRANCH  13  30
BRANCH  15  32
HETATM   32  O   UNK N   1      20.198  15.670   1.651  0.00  0.00    -0.392 OA
HETATM   33  H   UNK N   1      20.304  15.421   0.719  0.00  0.00     0.210 HD
ENDBRANCH  15  32
TORSDOF 4
ENDMDL
MODEL 6
REMARK VINA RESULT:      -6.9      1.621      2.293
REMARK  4 active torsions:
REMARK  status: ('A' for Active; 'I' for Inactive)
REMARK    1  A    between atoms: C_13  and  O_25 
REMARK    2  A    between atoms: C_15  and  O_20 
REMARK    3  A    between atoms: C_17  and  C_26 
REMARK    4  A    between atoms: C_18  and  O_30 
ROOT
HETATM    1  C   UNK N   1      28.794  17.739   8.832  0.00  0.00     0.263 C 
HETATM    2  O   UNK N   1      29.812  17.113   9.466  0.00  0.00    -0.312 OA
HETATM    3  C   UNK N   1      30.889  16.986   8.630  0.00  0.00     0.169 C 
HETATM    4  C   UNK N   1      30.282  17.135   7.274  0.00  0.00     0.077 C 
HETATM    5  C   UNK N   1      28.986  17.910   7.357  0.00  0.00     0.091 C 
HETATM    6  C   UNK N   1      32.269  15.950   7.032  0.00  0.00     0.074 C 
HETATM    7  C   UNK N   1      31.111  16.391   6.236  0.00  0.00     0.172 C 
HETATM    8  C   UNK N   1      32.932  14.815   6.199  0.00  0.00     0.068 C 
HETATM    9  C   UNK N   1      31.544  14.110   5.958  0.00  0.00     0.284 C 
HETATM   10  O   UNK N   1      30.558  15.161   5.790  0.00  0.00    -0.337 OA
HETATM   11  O   UNK N   1      31.621  13.543   4.720  0.00  0.00    -0.287 OA
HETATM   12  C   UNK N   1      32.459  14.214   3.943  0.00  0.00     0.291 C 
HETATM   13  C   UNK N   1      33.397  15.063   4.690  0.00  0.00     0.232 C 
HETATM   14  O   UNK N   1      27.833  18.189   9.436  0.00  0.00    -0.265 OA
HETATM   15  C   UNK N   1      31.605  15.663   8.435  0.00  0.00     0.164 C 
HETATM   16  C   UNK N   1      33.276  17.072   7.056  0.00  0.00     0.176 C 
HETATM   17  C   UNK N   1      34.184  14.775   7.148  0.00  0.00     0.042 C 
HETATM   18  C   UNK N   1      34.560  16.283   7.292  0.00  0.00     0.154 C 
HETATM   19  O   UNK N   1      32.458  14.111   2.729  0.00  0.00    -0.262 OA
HETATM   20  C   UNK N   1      27.880  17.216   6.589  0.00  0.00     0.021 C 
HETATM   21  C   UNK N   1      31.853  17.308   5.329  0.00  0.00     0.296 C 
HETATM   22  O   UNK N   1      33.084  17.625   5.795  0.00  0.00    -0.310 OA
HETATM   23  O   UNK N   1      31.395  17.776   4.290  0.00  0.00    -0.262 OA
ENDROOT
BRANCH  17  24
HETATM   24  C   UNK N   1      35.483  13.907   7.038  0.00  0.00    -0.044 C 
HETATM   25  C   UNK N   1      36.618  14.586   6.269  0.00  0.00     0.015 C 
HETATM   26  C   UNK N   1      35.201  12.549   6.434  0.00  0.00     0.015 C 
HETATM   27  C   UNK N   1      36.041  13.682   8.431  0.00  0.00     0.015 C 
ENDBRANCH  17  24
BRANCH  18  28
HETATM   28  O   UNK N   1      34.997  16.520   8.598  0.00  0.00    -0.393 OA
HETATM   29  H   UNK N   1      34.408  16.937   9.246  0.00  0.00     0.210 HD
ENDBRANCH  18  28
BRANCH  13  30
HETATM   30  O   UNK N   1      34.641  14.528   4.382  0.00  0.00    -0.385 OA
HETATM   31  H   UNK N   1      35.461  14.990   4.615  0.00  0.00     0.210 HD
ENDBRANCH  13  30
BRANCH  15  32
HETATM   32  O   UNK N   1      32.512  15.409   9.463  0.00  0.00    -0.392 OA
HETATM   33  H   UNK N   1      32.249  15.502  10.393  0.00  0.00     0.210 HD
ENDBRANCH  15  32
TORSDOF 4
ENDMDL
MODEL 7
REMARK VINA RESULT:      -6.9      9.837     12.397
REMARK  4 active torsions:
REMARK  status: ('A' for Active; 'I' for Inactive)
REMARK    1  A    between atoms: C_13  and  O_25 
REMARK    2  A    between atoms: C_15  and  O_20 
REMARK    3  A    between atoms: C_17  and  C_26 
REMARK    4  A    between atoms: C_18  and  O_30 
ROOT
HETATM    1  C   UNK N   1      23.357  12.252  10.857  0.00  0.00     0.263 C 
HETATM    2  O   UNK N   1      24.157  12.037   9.787  0.00  0.00    -0.312 OA
HETATM    3  C   UNK N   1      23.795  12.850   8.747  0.00  0.00     0.169 C 
HETATM    4  C   UNK N   1      22.391  13.229   9.090  0.00  0.00     0.077 C 
HETATM    5  C   UNK N   1      22.160  13.108  10.580  0.00  0.00     0.091 C 
HETATM    6  C   UNK N   1      22.645  13.467   6.790  0.00  0.00     0.074 C 
HETATM    7  C   UNK N   1      21.601  13.543   7.826  0.00  0.00     0.172 C 
HETATM    8  C   UNK N   1      21.879  13.315   5.444  0.00  0.00     0.068 C 
HETATM    9  C   UNK N   1      20.959  12.183   6.036  0.00  0.00     0.284 C 
HETATM   10  O   UNK N   1      20.690  12.533   7.418  0.00  0.00    -0.337 OA
HETATM   11  O   UNK N   1      19.746  12.328   5.428  0.00  0.00    -0.287 OA
HETATM   12  C   UNK N   1      19.541  13.590   5.076  0.00  0.00     0.291 C 
HETATM   13  C   UNK N   1      20.775  14.383   5.000  0.00  0.00     0.232 C 
HETATM   14  O   UNK N   1      23.638  11.838  11.970  0.00  0.00    -0.265 OA
HETATM   15  C   UNK N   1      23.569  12.314   7.346  0.00  0.00     0.164 C 
HETATM   16  C   UNK N   1      23.330  14.809   6.714  0.00  0.00     0.176 C 
HETATM   17  C   UNK N   1      23.193  13.522   4.609  0.00  0.00     0.042 C 
HETATM   18  C   UNK N   1      23.837  14.777   5.277  0.00  0.00     0.154 C 
HETATM   19  O   UNK N   1      18.434  14.030   4.819  0.00  0.00    -0.262 OA
HETATM   20  C   UNK N   1      20.881  12.353  10.877  0.00  0.00     0.021 C 
HETATM   21  C   UNK N   1      21.305  14.993   7.680  0.00  0.00     0.296 C 
HETATM   22  O   UNK N   1      22.270  15.661   7.004  0.00  0.00    -0.310 OA
HETATM   23  O   UNK N   1      20.320  15.551   8.156  0.00  0.00    -0.262 OA
ENDROOT
BRANCH  17  24
HETATM   24  C   UNK N   1      23.379  13.587   3.055  0.00  0.00    -0.044 C 
HETATM   25  C   UNK N   1      23.416  15.010   2.495  0.00  0.00     0.015 C 
HETATM   26  C   UNK N   1      22.324  12.783   2.329  0.00  0.00     0.015 C 
HETATM   27  C   UNK N   1      24.731  12.997   2.698  0.00  0.00     0.015 C 
ENDBRANCH  17  24
BRANCH  18  28
HETATM   28  O   UNK N   1      25.226  14.620   5.296  0.00  0.00    -0.393 OA
HETATM   29  H   UNK N   1      25.707  14.593   6.138  0.00  0.00     0.210 HD
ENDBRANCH  18  28
BRANCH  13  30
HETATM   30  O   UNK N   1      20.845  14.753   3.663  0.00  0.00    -0.385 OA
HETATM   31  H   UNK N   1      21.696  14.921   3.230  0.00  0.00     0.210 HD
ENDBRANCH  13  30
BRANCH  15  32
HETATM   32  O   UNK N   1      24.770  12.151   6.656  0.00  0.00    -0.392 OA
HETATM   33  H   UNK N   1      25.454  11.547   6.985  0.00  0.00     0.210 HD
ENDBRANCH  15  32
TORSDOF 4
ENDMDL
MODEL 8
REMARK VINA RESULT:      -6.8      1.821      4.787
REMARK  4 active torsions:
REMARK  status: ('A' for Active; 'I' for Inactive)
REMARK    1  A    between atoms: C_13  and  O_25 
REMARK    2  A    between atoms: C_15  and  O_20 
REMARK    3  A    between atoms: C_17  and  C_26 
REMARK    4  A    between atoms: C_18  and  O_30 
ROOT
HETATM    1  C   UNK N   1      34.353  14.460   2.451  0.00  0.00     0.263 C 
HETATM    2  O   UNK N   1      35.331  14.187   3.345  0.00  0.00    -0.312 OA
HETATM    3  C   UNK N   1      34.817  14.132   4.613  0.00  0.00     0.169 C 
HETATM    4  C   UNK N   1      33.534  14.886   4.490  0.00  0.00     0.077 C 
HETATM    5  C   UNK N   1      33.046  14.868   3.058  0.00  0.00     0.091 C 
HETATM    6  C   UNK N   1      34.183  14.959   6.722  0.00  0.00     0.074 C 
HETATM    7  C   UNK N   1      33.153  15.509   5.826  0.00  0.00     0.172 C 
HETATM    8  C   UNK N   1      34.165  15.875   7.980  0.00  0.00     0.068 C 
HETATM    9  C   UNK N   1      34.187  17.178   7.097  0.00  0.00     0.284 C 
HETATM   10  O   UNK N   1      33.375  16.908   5.924  0.00  0.00    -0.337 OA
HETATM   11  O   UNK N   1      33.459  18.108   7.781  0.00  0.00    -0.287 OA
HETATM   12  C   UNK N   1      32.542  17.526   8.541  0.00  0.00     0.291 C 
HETATM   13  C   UNK N   1      32.819  16.108   8.810  0.00  0.00     0.232 C 
HETATM   14  O   UNK N   1      34.513  14.310   1.251  0.00  0.00    -0.265 OA
HETATM   15  C   UNK N   1      35.439  14.895   5.768  0.00  0.00     0.164 C 
HETATM   16  C   UNK N   1      33.716  13.608   7.201  0.00  0.00     0.176 C 
HETATM   17  C   UNK N   1      35.120  14.905   8.767  0.00  0.00     0.042 C 
HETATM   18  C   UNK N   1      34.477  13.505   8.518  0.00  0.00     0.154 C 
HETATM   19  O   UNK N   1      31.580  18.126   8.987  0.00  0.00    -0.262 OA
HETATM   20  C   UNK N   1      32.651  16.255   2.595  0.00  0.00     0.021 C 
HETATM   21  C   UNK N   1      31.985  14.840   6.459  0.00  0.00     0.296 C 
HETATM   22  O   UNK N   1      32.342  13.813   7.266  0.00  0.00    -0.310 OA
HETATM   23  O   UNK N   1      30.813  15.142   6.247  0.00  0.00    -0.262 OA
ENDROOT
BRANCH  17  24
HETATM   24  C   UNK N   1      35.634  15.005  10.243  0.00  0.00    -0.044 C 
HETATM   25  C   UNK N   1      34.835  14.159  11.235  0.00  0.00     0.015 C 
HETATM   26  C   UNK N   1      35.687  16.438  10.724  0.00  0.00     0.015 C 
HETATM   27  C   UNK N   1      37.044  14.447  10.308  0.00  0.00     0.015 C 
ENDBRANCH  17  24
BRANCH  18  28
HETATM   28  O   UNK N   1      35.493  12.557   8.376  0.00  0.00    -0.393 OA
HETATM   29  H   UNK N   1      35.337  11.629   8.612  0.00  0.00     0.210 HD
ENDBRANCH  18  28
BRANCH  13  30
HETATM   30  O   UNK N   1      32.984  16.062  10.188  0.00  0.00    -0.385 OA
HETATM   31  H   UNK N   1      33.771  15.664  10.589  0.00  0.00     0.210 HD
ENDBRANCH  13  30
BRANCH  15  32
HETATM   32  O   UNK N   1      36.537  14.219   6.302  0.00  0.00    -0.392 OA
HETATM   33  H   UNK N   1      37.313  14.021   5.754  0.00  0.00     0.210 HD
ENDBRANCH  15  32
TORSDOF 4
ENDMDL
MODEL 9
REMARK VINA RESULT:      -6.8      2.839      5.018
REMARK  4 active torsions:
REMARK  status: ('A' for Active; 'I' for Inactive)
REMARK    1  A    between atoms: C_13  and  O_25 
REMARK    2  A    between atoms: C_15  and  O_20 
REMARK    3  A    between atoms: C_17  and  C_26 
REMARK    4  A    between atoms: C_18  and  O_30 
ROOT
HETATM    1  C   UNK N   1      34.516  16.507   7.431  0.00  0.00     0.263 C 
HETATM    2  O   UNK N   1      34.256  16.577   8.756  0.00  0.00    -0.312 OA
HETATM    3  C   UNK N   1      34.990  15.644   9.438  0.00  0.00     0.169 C 
HETATM    4  C   UNK N   1      35.349  14.657   8.376  0.00  0.00     0.077 C 
HETATM    5  C   UNK N   1      35.317  15.313   7.013  0.00  0.00     0.091 C 
HETATM    6  C   UNK N   1      35.447  13.558  10.423  0.00  0.00     0.074 C 
HETATM    7  C   UNK N   1      35.558  13.276   8.982  0.00  0.00     0.172 C 
HETATM    8  C   UNK N   1      35.188  12.177  11.093  0.00  0.00     0.068 C 
HETATM    9  C   UNK N   1      34.069  11.820  10.045  0.00  0.00     0.284 C 
HETATM   10  O   UNK N   1      34.499  12.355   8.766  0.00  0.00    -0.337 OA
HETATM   11  O   UNK N   1      34.140  10.469   9.865  0.00  0.00    -0.287 OA
HETATM   12  C   UNK N   1      35.370  10.026  10.085  0.00  0.00     0.291 C 
HETATM   13  C   UNK N   1      36.193  10.953  10.874  0.00  0.00     0.232 C 
HETATM   14  O   UNK N   1      34.181  17.389   6.657  0.00  0.00    -0.265 OA
HETATM   15  C   UNK N   1      34.359  14.701  10.445  0.00  0.00     0.164 C 
HETATM   16  C   UNK N   1      36.801  13.999  10.921  0.00  0.00     0.176 C 
HETATM   17  C   UNK N   1      35.379  12.778  12.532  0.00  0.00     0.042 C 
HETATM   18  C   UNK N   1      36.692  13.610  12.391  0.00  0.00     0.154 C 
HETATM   19  O   UNK N   1      35.760   8.943   9.687  0.00  0.00    -0.262 OA
HETATM   20  C   UNK N   1      34.545  14.471   6.017  0.00  0.00     0.021 C 
HETATM   21  C   UNK N   1      36.987  12.862   8.987  0.00  0.00     0.296 C 
HETATM   22  O   UNK N   1      37.638  13.237  10.114  0.00  0.00    -0.310 OA
HETATM   23  O   UNK N   1      37.545  12.284   8.058  0.00  0.00    -0.262 OA
ENDROOT
BRANCH  17  24
HETATM   24  C   UNK N   1      35.350  12.053  13.920  0.00  0.00    -0.044 C 
HETATM   25  C   UNK N   1      36.720  11.562  14.391  0.00  0.00     0.015 C 
HETATM   26  C   UNK N   1      34.368  10.903  13.933  0.00  0.00     0.015 C 
HETATM   27  C   UNK N   1      34.910  13.044  14.982  0.00  0.00     0.015 C 
ENDBRANCH  17  24
BRANCH  18  28
HETATM   28  O   UNK N   1      36.577  14.774  13.155  0.00  0.00    -0.393 OA
HETATM   29  H   UNK N   1      35.723  15.031  13.536  0.00  0.00     0.210 HD
ENDBRANCH  18  28
BRANCH  13  30
HETATM   30  O   UNK N   1      36.478  10.237  12.028  0.00  0.00    -0.385 OA
HETATM   31  H   UNK N   1      36.229  10.570  12.904  0.00  0.00     0.210 HD
ENDBRANCH  13  30
BRANCH  15  32
HETATM   32  O   UNK N   1      34.187  15.313  11.687  0.00  0.00    -0.392 OA
HETATM   33  H   UNK N   1      34.953  15.545  12.238  0.00  0.00     0.210 HD
ENDBRANCH  15  32
TORSDOF 4
ENDMDL
