MODEL 1
REMARK VINA RESULT:      -4.5      0.000      0.000
REMARK  4 active torsions:
REMARK  status: ('A' for Active; 'I' for Inactive)
REMARK    1  A    between atoms: N_1  and  C_2 
REMARK    2  A    between atoms: C_2  and  C_3 
REMARK    3  A    between atoms: C_3  and  C_4 
REMARK    4  A    between atoms: C_7  and  O_8 
ROOT
HETATM    1  C   UNK N   1      35.729  12.473  16.380  0.00  0.00    -0.057 A 
HETATM    2  C   UNK N   1      35.521  13.759  16.889  0.00  0.00     0.010 A 
HETATM    3  C   UNK N   1      35.249  13.942  18.250  0.00  0.00     0.037 A 
HETATM    4  C   UNK N   1      35.185  12.838  19.104  0.00  0.00     0.065 A 
HETATM    5  C   UNK N   1      35.391  11.552  18.603  0.00  0.00     0.037 A 
HETATM    6  C   UNK N   1      35.662  11.369  17.246  0.00  0.00     0.010 A 
ENDROOT
BRANCH   1   7
HETATM    7  C   UNK N   1      36.019  12.305  14.915  0.00  0.00     0.057 C 
BRANCH   7   8
HETATM    8  C   UNK N   1      35.680  13.542  14.093  0.00  0.00     0.115 C 
BRANCH   8   9
HETATM    9  N   UNK N   1      36.842  13.965  13.337  0.00  0.00    -0.430 N 
HETATM   10  H   UNK N   1      37.693  13.402  13.351  0.00  0.00     0.149 HD
HETATM   11  H   UNK N   1      36.810  14.826  12.791  0.00  0.00     0.149 HD
ENDBRANCH   8   9
ENDBRANCH   7   8
ENDBRANCH   1   7
BRANCH   4  12
HETATM   12  O   UNK N   1      34.924  13.012  20.410  0.00  0.00    -0.361 OA
HETATM   13  H   UNK N   1      34.040  13.126  20.701  0.00  0.00     0.217 HD
ENDBRANCH   4  12
TORSDOF 4
ENDMDL
MODEL 2
REMARK VINA RESULT:      -4.5     11.202     12.093
REMARK  4 active torsions:
REMARK  status: ('A' for Active; 'I' for Inactive)
REMARK    1  A    between atoms: N_1  and  C_2 
REMARK    2  A    between atoms: C_2  and  C_3 
REMARK    3  A    between atoms: C_3  and  C_4 
REMARK    4  A    between atoms: C_7  and  O_8 
ROOT
HETATM    1  C   UNK N   1      30.514  17.354   7.399  0.00  0.00    -0.057 A 
HETATM    2  C   UNK N   1      31.331  17.806   8.441  0.00  0.00     0.010 A 
HETATM    3  C   UNK N   1      32.705  17.981   8.233  0.00  0.00     0.037 A 
HETATM    4  C   UNK N   1      33.264  17.703   6.983  0.00  0.00     0.065 A 
HETATM    5  C   UNK N   1      32.454  17.251   5.939  0.00  0.00     0.037 A 
HETATM    6  C   UNK N   1      31.085  17.077   6.146  0.00  0.00     0.010 A 
ENDROOT
BRANCH   1   7
HETATM    7  C   UNK N   1      29.044  17.175   7.650  0.00  0.00     0.057 C 
BRANCH   7   8
HETATM    8  C   UNK N   1      28.632  17.528   9.073  0.00  0.00     0.115 C 
BRANCH   8   9
HETATM    9  N   UNK N   1      27.633  18.578   9.052  0.00  0.00    -0.430 N 
HETATM   10  H   UNK N   1      27.472  19.146   9.884  0.00  0.00     0.149 HD
HETATM   11  H   UNK N   1      27.091  18.750   8.205  0.00  0.00     0.149 HD
ENDBRANCH   8   9
ENDBRANCH   7   8
ENDBRANCH   1   7
BRANCH   4  12
HETATM   12  O   UNK N   1      34.581  17.870   6.782  0.00  0.00    -0.361 OA
HETATM   13  H   UNK N   1      34.887  18.279   5.997  0.00  0.00     0.217 HD
ENDBRANCH   4  12
TORSDOF 4
ENDMDL
MODEL 3
REMARK VINA RESULT:      -4.5     26.538     27.607
REMARK  4 active torsions:
REMARK  status: ('A' for Active; 'I' for Inactive)
REMARK    1  A    between atoms: N_1  and  C_2 
REMARK    2  A    between atoms: C_2  and  C_3 
REMARK    3  A    between atoms: C_3  and  C_4 
REMARK    4  A    between atoms: C_7  and  O_8 
ROOT
HETATM    1  C   UNK N   1      25.850  25.122  -5.244  0.00  0.00    -0.057 A 
HETATM    2  C   UNK N   1      26.429  25.298  -3.983  0.00  0.00     0.010 A 
HETATM    3  C   UNK N   1      26.331  26.532  -3.330  0.00  0.00     0.037 A 
HETATM    4  C   UNK N   1      25.653  27.593  -3.937  0.00  0.00     0.065 A 
HETATM    5  C   UNK N   1      25.073  27.424  -5.195  0.00  0.00     0.037 A 
HETATM    6  C   UNK N   1      25.170  26.194  -5.847  0.00  0.00     0.010 A 
ENDROOT
BRANCH   1   7
HETATM    7  C   UNK N   1      25.970  23.787  -5.923  0.00  0.00     0.057 C 
BRANCH   7   8
HETATM    8  C   UNK N   1      25.988  23.888  -7.443  0.00  0.00     0.115 C 
BRANCH   8   9
HETATM    9  N   UNK N   1      24.875  23.145  -7.999  0.00  0.00    -0.430 N 
HETATM   10  H   UNK N   1      24.760  22.156  -7.776  0.00  0.00     0.149 HD
HETATM   11  H   UNK N   1      24.206  23.610  -8.613  0.00  0.00     0.149 HD
ENDBRANCH   8   9
ENDBRANCH   7   8
ENDBRANCH   1   7
BRANCH   4  12
HETATM   12  O   UNK N   1      25.558  28.778  -3.311  0.00  0.00    -0.361 OA
HETATM   13  H   UNK N   1      25.495  28.811  -2.377  0.00  0.00     0.217 HD
ENDBRANCH   4  12
TORSDOF 4
ENDMDL
MODEL 4
REMARK VINA RESULT:      -4.4      0.986      1.830
REMARK  4 active torsions:
REMARK  status: ('A' for Active; 'I' for Inactive)
REMARK    1  A    between atoms: N_1  and  C_2 
REMARK    2  A    between atoms: C_2  and  C_3 
REMARK    3  A    between atoms: C_3  and  C_4 
REMARK    4  A    between atoms: C_7  and  O_8 
ROOT
HETATM    1  C   UNK N   1      35.428  12.696  16.883  0.00  0.00    -0.057 A 
HETATM    2  C   UNK N   1      35.678  11.341  17.125  0.00  0.00     0.010 A 
HETATM    3  C   UNK N   1      35.660  10.844  18.433  0.00  0.00     0.037 A 
HETATM    4  C   UNK N   1      35.392  11.703  19.503  0.00  0.00     0.065 A 
HETATM    5  C   UNK N   1      35.142  13.056  19.269  0.00  0.00     0.037 A 
HETATM    6  C   UNK N   1      35.159  13.551  17.964  0.00  0.00     0.010 A 
ENDROOT
BRANCH   1   7
HETATM    7  C   UNK N   1      35.453  13.202  15.468  0.00  0.00     0.057 C 
BRANCH   7   8
HETATM    8  C   UNK N   1      36.694  14.027  15.150  0.00  0.00     0.115 C 
BRANCH   8   9
HETATM    9  N   UNK N   1      36.775  14.264  13.723  0.00  0.00    -0.430 N 
HETATM   10  H   UNK N   1      36.778  13.476  13.074  0.00  0.00     0.149 HD
HETATM   11  H   UNK N   1      36.829  15.218  13.365  0.00  0.00     0.149 HD
ENDBRANCH   8   9
ENDBRANCH   7   8
ENDBRANCH   1   7
BRANCH   4  12
HETATM   12  O   UNK N   1      35.375  11.228  20.759  0.00  0.00    -0.361 OA
HETATM   13  H   UNK N   1      35.240  10.314  20.913  0.00  0.00     0.217 HD
ENDBRANCH   4  12
TORSDOF 4
ENDMDL
MODEL 5
REMARK VINA RESULT:      -4.1     10.709     12.735
REMARK  4 active torsions:
REMARK  status: ('A' for Active; 'I' for Inactive)
REMARK    1  A    between atoms: N_1  and  C_2 
REMARK    2  A    between atoms: C_2  and  C_3 
REMARK    3  A    between atoms: C_3  and  C_4 
REMARK    4  A    between atoms: C_7  and  O_8 
ROOT
HETATM    1  C   UNK N   1      32.436  17.362   6.891  0.00  0.00    -0.057 A 
HETATM    2  C   UNK N   1      33.472  17.520   5.965  0.00  0.00     0.010 A 
HETATM    3  C   UNK N   1      33.196  17.521   4.592  0.00  0.00     0.037 A 
HETATM    4  C   UNK N   1      31.882  17.363   4.144  0.00  0.00     0.065 A 
HETATM    5  C   UNK N   1      30.842  17.205   5.063  0.00  0.00     0.037 A 
HETATM    6  C   UNK N   1      31.118  17.204   6.431  0.00  0.00     0.010 A 
ENDROOT
BRANCH   1   7
HETATM    7  C   UNK N   1      32.761  17.365   8.358  0.00  0.00     0.057 C 
BRANCH   7   8
HETATM    8  C   UNK N   1      34.243  17.575   8.642  0.00  0.00     0.115 C 
BRANCH   8   9
HETATM    9  N   UNK N   1      34.552  17.141   9.989  0.00  0.00    -0.430 N 
HETATM   10  H   UNK N   1      34.523  16.148  10.225  0.00  0.00     0.149 HD
HETATM   11  H   UNK N   1      34.799  17.827  10.703  0.00  0.00     0.149 HD
ENDBRANCH   8   9
ENDBRANCH   7   8
ENDBRANCH   1   7
BRANCH   4  12
HETATM   12  O   UNK N   1      31.615  17.364   2.828  0.00  0.00    -0.361 OA
HETATM   13  H   UNK N   1      32.311  17.270   2.208  0.00  0.00     0.217 HD
ENDBRANCH   4  12
TORSDOF 4
ENDMDL
MODEL 6
REMARK VINA RESULT:      -4.1     28.313     28.725
REMARK  4 active torsions:
REMARK  status: ('A' for Active; 'I' for Inactive)
REMARK    1  A    between atoms: N_1  and  C_2 
REMARK    2  A    between atoms: C_2  and  C_3 
REMARK    3  A    between atoms: C_3  and  C_4 
REMARK    4  A    between atoms: C_7  and  O_8 
ROOT
HETATM    1  C   UNK N   1      26.126  26.956  -6.536  0.00  0.00    -0.057 A 
HETATM    2  C   UNK N   1      27.104  27.955  -6.492  0.00  0.00     0.010 A 
HETATM    3  C   UNK N   1      27.109  28.890  -5.449  0.00  0.00     0.037 A 
HETATM    4  C   UNK N   1      26.135  28.827  -4.449  0.00  0.00     0.065 A 
HETATM    5  C   UNK N   1      25.155  27.833  -4.488  0.00  0.00     0.037 A 
HETATM    6  C   UNK N   1      25.150  26.901  -5.527  0.00  0.00     0.010 A 
ENDROOT
BRANCH   1   7
HETATM    7  C   UNK N   1      26.144  25.966  -7.666  0.00  0.00     0.057 C 
BRANCH   7   8
HETATM    8  C   UNK N   1      25.906  24.533  -7.209  0.00  0.00     0.115 C 
BRANCH   8   9
HETATM    9  N   UNK N   1      25.122  23.823  -8.201  0.00  0.00    -0.430 N 
HETATM   10  H   UNK N   1      25.581  23.194  -8.859  0.00  0.00     0.149 HD
HETATM   11  H   UNK N   1      24.111  23.953  -8.242  0.00  0.00     0.149 HD
ENDBRANCH   8   9
ENDBRANCH   7   8
ENDBRANCH   1   7
BRANCH   4  12
HETATM   12  O   UNK N   1      26.139  29.723  -3.449  0.00  0.00    -0.361 OA
HETATM   13  H   UNK N   1      26.046  29.436  -2.562  0.00  0.00     0.217 HD
ENDBRANCH   4  12
TORSDOF 4
ENDMDL
MODEL 7
REMARK VINA RESULT:      -3.9      3.624      4.746
REMARK  4 active torsions:
REMARK  status: ('A' for Active; 'I' for Inactive)
REMARK    1  A    between atoms: N_1  and  C_2 
REMARK    2  A    between atoms: C_2  and  C_3 
REMARK    3  A    between atoms: C_3  and  C_4 
REMARK    4  A    between atoms: C_7  and  O_8 
ROOT
HETATM    1  C   UNK N   1      35.456  11.603  18.493  0.00  0.00    -0.057 A 
HETATM    2  C   UNK N   1      35.212  12.942  18.171  0.00  0.00     0.010 A 
HETATM    3  C   UNK N   1      34.833  13.296  16.870  0.00  0.00     0.037 A 
HETATM    4  C   UNK N   1      34.698  12.310  15.889  0.00  0.00     0.065 A 
HETATM    5  C   UNK N   1      34.940  10.971  16.204  0.00  0.00     0.037 A 
HETATM    6  C   UNK N   1      35.317  10.619  17.500  0.00  0.00     0.010 A 
ENDROOT
BRANCH   1   7
HETATM    7  C   UNK N   1      35.861  11.252  19.896  0.00  0.00     0.057 C 
BRANCH   7   8
HETATM    8  C   UNK N   1      35.014  10.141  20.504  0.00  0.00     0.115 C 
BRANCH   8   9
HETATM    9  N   UNK N   1      34.087  10.698  21.468  0.00  0.00    -0.430 N 
HETATM   10  H   UNK N   1      33.876  11.696  21.454  0.00  0.00     0.149 HD
HETATM   11  H   UNK N   1      33.646  10.094  22.162  0.00  0.00     0.149 HD
ENDBRANCH   8   9
ENDBRANCH   7   8
ENDBRANCH   1   7
BRANCH   4  12
HETATM   12  O   UNK N   1      34.334  12.647  14.641  0.00  0.00    -0.361 OA
HETATM   13  H   UNK N   1      34.287  11.992  13.973  0.00  0.00     0.217 HD
ENDBRANCH   4  12
TORSDOF 4
ENDMDL
MODEL 8
REMARK VINA RESULT:      -3.9     11.174     11.910
REMARK  4 active torsions:
REMARK  status: ('A' for Active; 'I' for Inactive)
REMARK    1  A    between atoms: N_1  and  C_2 
REMARK    2  A    between atoms: C_2  and  C_3 
REMARK    3  A    between atoms: C_3  and  C_4 
REMARK    4  A    between atoms: C_7  and  O_8 
ROOT
HETATM    1  C   UNK N   1      31.167  17.329   7.676  0.00  0.00    -0.057 A 
HETATM    2  C   UNK N   1      30.042  17.145   6.865  0.00  0.00     0.010 A 
HETATM    3  C   UNK N   1      28.813  17.710   7.226  0.00  0.00     0.037 A 
HETATM    4  C   UNK N   1      28.707  18.460   8.400  0.00  0.00     0.065 A 
HETATM    5  C   UNK N   1      29.825  18.648   9.214  0.00  0.00     0.037 A 
HETATM    6  C   UNK N   1      31.050  18.085   8.854  0.00  0.00     0.010 A 
ENDROOT
BRANCH   1   7
HETATM    7  C   UNK N   1      32.473  16.712   7.264  0.00  0.00     0.057 C 
BRANCH   7   8
HETATM    8  C   UNK N   1      33.287  17.600   6.332  0.00  0.00     0.115 C 
BRANCH   8   9
HETATM    9  N   UNK N   1      33.684  16.849   5.158  0.00  0.00    -0.430 N 
HETATM   10  H   UNK N   1      33.371  17.145   4.233  0.00  0.00     0.149 HD
HETATM   11  H   UNK N   1      34.276  16.024   5.255  0.00  0.00     0.149 HD
ENDBRANCH   8   9
ENDBRANCH   7   8
ENDBRANCH   1   7
BRANCH   4  12
HETATM   12  O   UNK N   1      27.529  19.003   8.748  0.00  0.00    -0.361 OA
HETATM   13  H   UNK N   1      27.293  19.072   9.653  0.00  0.00     0.217 HD
ENDBRANCH   4  12
TORSDOF 4
ENDMDL
MODEL 9
REMARK VINA RESULT:      -3.8     22.606     24.034
REMARK  4 active torsions:
REMARK  status: ('A' for Active; 'I' for Inactive)
REMARK    1  A    between atoms: N_1  and  C_2 
REMARK    2  A    between atoms: C_2  and  C_3 
REMARK    3  A    between atoms: C_3  and  C_4 
REMARK    4  A    between atoms: C_7  and  O_8 
ROOT
HETATM    1  C   UNK N   1      29.397  22.882  -4.516  0.00  0.00    -0.057 A 
HETATM    2  C   UNK N   1      30.061  21.707  -4.883  0.00  0.00     0.010 A 
HETATM    3  C   UNK N   1      31.067  21.181  -4.064  0.00  0.00     0.037 A 
HETATM    4  C   UNK N   1      31.410  21.831  -2.875  0.00  0.00     0.065 A 
HETATM    5  C   UNK N   1      30.751  23.004  -2.502  0.00  0.00     0.037 A 
HETATM    6  C   UNK N   1      29.748  23.528  -3.319  0.00  0.00     0.010 A 
ENDROOT
BRANCH   1   7
HETATM    7  C   UNK N   1      28.321  23.423  -5.415  0.00  0.00     0.057 C 
BRANCH   7   8
HETATM    8  C   UNK N   1      27.280  24.249  -4.671  0.00  0.00     0.115 C 
BRANCH   8   9
HETATM    9  N   UNK N   1      25.953  23.914  -5.147  0.00  0.00    -0.430 N 
HETATM   10  H   UNK N   1      25.647  22.941  -5.162  0.00  0.00     0.149 HD
HETATM   11  H   UNK N   1      25.324  24.650  -5.468  0.00  0.00     0.149 HD
ENDBRANCH   8   9
ENDBRANCH   7   8
ENDBRANCH   1   7
BRANCH   4  12
HETATM   12  O   UNK N   1      32.375  21.328  -2.087  0.00  0.00    -0.361 OA
HETATM   13  H   UNK N   1      32.903  20.616  -2.389  0.00  0.00     0.217 HD
ENDBRANCH   4  12
TORSDOF 4
ENDMDL
