REMARK  2 active torsions:
REMARK  status: ('A' for Active; 'I' for Inactive)
REMARK    1  A    between atoms: O_1  and  C_4 
REMARK    2  A    between atoms: O_1  and  C_11 
REMARK       I    between atoms: N_3  and  C_11 
ROOT
HETATM    1  C   UNK N   1       2.674  -0.039   0.328  0.00  0.00     0.134 C 
HETATM    2  C   UNK N   1       1.680  -0.592   1.357  0.00  0.00     0.052 C 
HETATM    3  C   UNK N   1       3.457  -1.223  -0.284  0.00  0.00     0.052 C 
HETATM    4  C   UNK N   1       0.756  -1.644   0.731  0.00  0.00     0.004 C 
HETATM    5  C   UNK N   1       2.553  -2.303  -0.872  0.00  0.00     0.004 C 
HETATM    6  C   UNK N   1       1.581  -2.806   0.186  0.00  0.00     0.000 C 
HETATM    7  C   UNK N   1       1.912   0.736  -0.673  0.00  0.00    -0.078 C 
HETATM    8  C   UNK N   1       1.261   1.413  -1.430  0.00  0.00     0.015 C 
ENDROOT
BRANCH   1   9
HETATM    9  O   UNK N   1       3.549   0.834   0.961  0.00  0.00    -0.280 OA
BRANCH   9  10
HETATM   10  C   UNK N   1       4.625   1.422   0.359  0.00  0.00     0.359 C 
HETATM   11  O   UNK N   1       5.086   0.975  -0.682  0.00  0.00    -0.239 OA
HETATM   12  N   UNK N   1       5.188   2.510   0.916  0.00  0.00    -0.346 N 
HETATM   13  H   UNK N   1       6.083   2.551   1.323  0.00  0.00     0.161 HD
HETATM   14  H   UNK N   1       4.657   3.338   0.916  0.00  0.00     0.161 HD
ENDBRANCH   9  10
ENDBRANCH   1   9
TORSDOF 2
