MODEL 1
REMARK VINA RESULT:      -5.1      0.000      0.000
REMARK  2 active torsions:
REMARK  status: ('A' for Active; 'I' for Inactive)
REMARK    1  A    between atoms: O_1  and  C_4 
REMARK    2  A    between atoms: O_1  and  C_11 
REMARK       I    between atoms: N_3  and  C_11 
ROOT
HETATM    1  C   UNK N   1      35.254  12.555  15.143  0.00  0.00     0.134 C 
HETATM    2  C   UNK N   1      36.622  11.870  15.044  0.00  0.00     0.052 C 
HETATM    3  C   UNK N   1      34.162  11.530  14.762  0.00  0.00     0.052 C 
HETATM    4  C   UNK N   1      36.678  10.606  15.910  0.00  0.00     0.004 C 
HETATM    5  C   UNK N   1      34.229  10.245  15.583  0.00  0.00     0.004 C 
HETATM    6  C   UNK N   1      35.609   9.615  15.458  0.00  0.00     0.000 C 
HETATM    7  C   UNK N   1      35.105  13.082  16.516  0.00  0.00    -0.078 C 
HETATM    8  C   UNK N   1      35.052  13.553  17.625  0.00  0.00     0.015 C 
ENDROOT
BRANCH   1   9
HETATM    9  O   UNK N   1      35.219  13.635  14.271  0.00  0.00    -0.280 OA
BRANCH   9  10
HETATM   10  C   UNK N   1      36.320  14.326  13.851  0.00  0.00     0.359 C 
HETATM   11  O   UNK N   1      36.855  15.156  14.573  0.00  0.00    -0.239 OA
HETATM   12  N   UNK N   1      36.827  14.093  12.627  0.00  0.00    -0.346 N 
HETATM   13  H   UNK N   1      36.818  14.721  11.870  0.00  0.00     0.161 HD
HETATM   14  H   UNK N   1      37.244  13.215  12.476  0.00  0.00     0.161 HD
ENDBRANCH   9  10
ENDBRANCH   1   9
TORSDOF 2
ENDMDL
MODEL 2
REMARK VINA RESULT:      -5.0      8.945     10.346
REMARK  2 active torsions:
REMARK  status: ('A' for Active; 'I' for Inactive)
REMARK    1  A    between atoms: O_1  and  C_4 
REMARK    2  A    between atoms: O_1  and  C_11 
REMARK       I    between atoms: N_3  and  C_11 
ROOT
HETATM    1  C   UNK N   1      33.501  17.153   6.522  0.00  0.00     0.134 C 
HETATM    2  C   UNK N   1      33.269  17.529   5.053  0.00  0.00     0.052 C 
HETATM    3  C   UNK N   1      32.250  17.558   7.336  0.00  0.00     0.052 C 
HETATM    4  C   UNK N   1      31.985  16.892   4.510  0.00  0.00     0.004 C 
HETATM    5  C   UNK N   1      30.955  16.970   6.783  0.00  0.00     0.004 C 
HETATM    6  C   UNK N   1      30.783  17.363   5.323  0.00  0.00     0.000 C 
HETATM    7  C   UNK N   1      33.792  15.706   6.583  0.00  0.00    -0.078 C 
HETATM    8  C   UNK N   1      34.091  14.537   6.581  0.00  0.00     0.015 C 
ENDROOT
BRANCH   1   9
HETATM    9  O   UNK N   1      34.617  17.829   6.997  0.00  0.00    -0.280 OA
BRANCH   9  10
HETATM   10  C   UNK N   1      34.762  18.278   8.279  0.00  0.00     0.359 C 
HETATM   11  O   UNK N   1      35.066  19.441   8.508  0.00  0.00    -0.239 OA
HETATM   12  N   UNK N   1      34.567  17.433   9.307  0.00  0.00    -0.346 N 
HETATM   13  H   UNK N   1      35.262  17.105   9.923  0.00  0.00     0.161 HD
HETATM   14  H   UNK N   1      33.649  17.115   9.457  0.00  0.00     0.161 HD
ENDBRANCH   9  10
ENDBRANCH   1   9
TORSDOF 2
ENDMDL
MODEL 3
REMARK VINA RESULT:      -4.7      2.619      3.369
REMARK  2 active torsions:
REMARK  status: ('A' for Active; 'I' for Inactive)
REMARK    1  A    between atoms: O_1  and  C_4 
REMARK    2  A    between atoms: O_1  and  C_11 
REMARK       I    between atoms: N_3  and  C_11 
ROOT
HETATM    1  C   UNK N   1      35.123  12.446  16.334  0.00  0.00     0.134 C 
HETATM    2  C   UNK N   1      34.022  11.890  15.423  0.00  0.00     0.052 C 
HETATM    3  C   UNK N   1      35.762  11.269  17.106  0.00  0.00     0.052 C 
HETATM    4  C   UNK N   1      34.566  10.803  14.488  0.00  0.00     0.004 C 
HETATM    5  C   UNK N   1      36.270  10.155  16.195  0.00  0.00     0.004 C 
HETATM    6  C   UNK N   1      35.141   9.650  15.306  0.00  0.00     0.000 C 
HETATM    7  C   UNK N   1      36.087  13.181  15.489  0.00  0.00    -0.078 C 
HETATM    8  C   UNK N   1      36.813  13.826  14.773  0.00  0.00     0.015 C 
ENDROOT
BRANCH   1   9
HETATM    9  O   UNK N   1      34.565  13.353  17.225  0.00  0.00    -0.280 OA
BRANCH   9  10
HETATM   10  C   UNK N   1      35.223  13.891  18.294  0.00  0.00     0.359 C 
HETATM   11  O   UNK N   1      35.918  14.890  18.168  0.00  0.00    -0.239 OA
HETATM   12  N   UNK N   1      35.107  13.317  19.506  0.00  0.00    -0.346 N 
HETATM   13  H   UNK N   1      35.823  12.851  19.993  0.00  0.00     0.161 HD
HETATM   14  H   UNK N   1      34.227  13.368  19.942  0.00  0.00     0.161 HD
ENDBRANCH   9  10
ENDBRANCH   1   9
TORSDOF 2
ENDMDL
MODEL 4
REMARK VINA RESULT:      -4.5     25.003     26.593
REMARK  2 active torsions:
REMARK  status: ('A' for Active; 'I' for Inactive)
REMARK    1  A    between atoms: O_1  and  C_4 
REMARK    2  A    between atoms: O_1  and  C_11 
REMARK       I    between atoms: N_3  and  C_11 
ROOT
HETATM    1  C   UNK N   1      26.043  25.153  -6.386  0.00  0.00     0.134 C 
HETATM    2  C   UNK N   1      27.524  25.552  -6.360  0.00  0.00     0.052 C 
HETATM    3  C   UNK N   1      25.856  23.901  -5.498  0.00  0.00     0.052 C 
HETATM    4  C   UNK N   1      28.018  25.772  -4.925  0.00  0.00     0.004 C 
HETATM    5  C   UNK N   1      26.383  24.086  -4.078  0.00  0.00     0.004 C 
HETATM    6  C   UNK N   1      27.849  24.492  -4.112  0.00  0.00     0.000 C 
HETATM    7  C   UNK N   1      25.249  26.314  -5.932  0.00  0.00    -0.078 C 
HETATM    8  C   UNK N   1      24.636  27.305  -5.620  0.00  0.00     0.015 C 
ENDROOT
BRANCH   1   9
HETATM    9  O   UNK N   1      25.668  24.871  -7.693  0.00  0.00    -0.280 OA
BRANCH   9  10
HETATM   10  C   UNK N   1      25.561  23.612  -8.212  0.00  0.00     0.359 C 
HETATM   11  O   UNK N   1      24.473  23.062  -8.311  0.00  0.00    -0.239 OA
HETATM   12  N   UNK N   1      26.667  22.964  -8.622  0.00  0.00    -0.346 N 
HETATM   13  H   UNK N   1      27.058  22.167  -8.198  0.00  0.00     0.161 HD
HETATM   14  H   UNK N   1      27.125  23.320  -9.417  0.00  0.00     0.161 HD
ENDBRANCH   9  10
ENDBRANCH   1   9
TORSDOF 2
ENDMDL
MODEL 5
REMARK VINA RESULT:      -4.4      8.822     10.018
REMARK  2 active torsions:
REMARK  status: ('A' for Active; 'I' for Inactive)
REMARK    1  A    between atoms: O_1  and  C_4 
REMARK    2  A    between atoms: O_1  and  C_11 
REMARK       I    between atoms: N_3  and  C_11 
ROOT
HETATM    1  C   UNK N   1      32.696  17.111   6.988  0.00  0.00     0.134 C 
HETATM    2  C   UNK N   1      33.072  15.676   7.377  0.00  0.00     0.052 C 
HETATM    3  C   UNK N   1      33.534  17.523   5.757  0.00  0.00     0.052 C 
HETATM    4  C   UNK N   1      32.892  14.713   6.197  0.00  0.00     0.004 C 
HETATM    5  C   UNK N   1      33.403  16.552   4.587  0.00  0.00     0.004 C 
HETATM    6  C   UNK N   1      33.776  15.144   5.030  0.00  0.00     0.000 C 
HETATM    7  C   UNK N   1      31.239  17.151   6.742  0.00  0.00    -0.078 C 
HETATM    8  C   UNK N   1      30.040  17.154   6.615  0.00  0.00     0.015 C 
ENDROOT
BRANCH   1   9
HETATM    9  O   UNK N   1      32.967  17.959   8.054  0.00  0.00    -0.280 OA
BRANCH   9  10
HETATM   10  C   UNK N   1      34.198  18.115   8.624  0.00  0.00     0.359 C 
HETATM   11  O   UNK N   1      34.969  18.980   8.230  0.00  0.00    -0.239 OA
HETATM   12  N   UNK N   1      34.572  17.309   9.634  0.00  0.00    -0.346 N 
HETATM   13  H   UNK N   1      35.280  16.626   9.595  0.00  0.00     0.161 HD
HETATM   14  H   UNK N   1      34.095  17.411  10.488  0.00  0.00     0.161 HD
ENDBRANCH   9  10
ENDBRANCH   1   9
TORSDOF 2
ENDMDL
MODEL 6
REMARK VINA RESULT:      -4.3     13.735     15.160
REMARK  2 active torsions:
REMARK  status: ('A' for Active; 'I' for Inactive)
REMARK    1  A    between atoms: O_1  and  C_4 
REMARK    2  A    between atoms: O_1  and  C_11 
REMARK       I    between atoms: N_3  and  C_11 
ROOT
HETATM    1  C   UNK N   1      27.120  19.606   5.361  0.00  0.00     0.134 C 
HETATM    2  C   UNK N   1      25.954  18.614   5.261  0.00  0.00     0.052 C 
HETATM    3  C   UNK N   1      27.521  20.037   3.932  0.00  0.00     0.052 C 
HETATM    4  C   UNK N   1      24.779  19.211   4.478  0.00  0.00     0.004 C 
HETATM    5  C   UNK N   1      26.354  20.593   3.121  0.00  0.00     0.004 C 
HETATM    6  C   UNK N   1      25.223  19.575   3.065  0.00  0.00     0.000 C 
HETATM    7  C   UNK N   1      26.689  20.734   6.211  0.00  0.00    -0.078 C 
HETATM    8  C   UNK N   1      26.320  21.602   6.963  0.00  0.00     0.015 C 
ENDROOT
BRANCH   1   9
HETATM    9  O   UNK N   1      28.193  18.988   5.990  0.00  0.00    -0.280 OA
BRANCH   9  10
HETATM   10  C   UNK N   1      28.077  17.991   6.916  0.00  0.00     0.359 C 
HETATM   11  O   UNK N   1      28.256  16.821   6.607  0.00  0.00    -0.239 OA
HETATM   12  N   UNK N   1      27.762  18.295   8.188  0.00  0.00    -0.346 N 
HETATM   13  H   UNK N   1      26.918  18.071   8.642  0.00  0.00     0.161 HD
HETATM   14  H   UNK N   1      28.435  18.786   8.711  0.00  0.00     0.161 HD
ENDBRANCH   9  10
ENDBRANCH   1   9
TORSDOF 2
ENDMDL
MODEL 7
REMARK VINA RESULT:      -4.3     24.992     26.323
REMARK  2 active torsions:
REMARK  status: ('A' for Active; 'I' for Inactive)
REMARK    1  A    between atoms: O_1  and  C_4 
REMARK    2  A    between atoms: O_1  and  C_11 
REMARK       I    between atoms: N_3  and  C_11 
ROOT
HETATM    1  C   UNK N   1      26.259  25.222  -5.289  0.00  0.00     0.134 C 
HETATM    2  C   UNK N   1      26.482  25.396  -3.782  0.00  0.00     0.052 C 
HETATM    3  C   UNK N   1      25.127  26.176  -5.732  0.00  0.00     0.052 C 
HETATM    4  C   UNK N   1      26.777  26.859  -3.427  0.00  0.00     0.004 C 
HETATM    5  C   UNK N   1      25.381  27.631  -5.347  0.00  0.00     0.004 C 
HETATM    6  C   UNK N   1      25.607  27.744  -3.846  0.00  0.00     0.000 C 
HETATM    7  C   UNK N   1      27.543  25.482  -5.974  0.00  0.00    -0.078 C 
HETATM    8  C   UNK N   1      28.623  25.637  -6.487  0.00  0.00     0.015 C 
ENDROOT
BRANCH   1   9
HETATM    9  O   UNK N   1      25.901  23.905  -5.549  0.00  0.00    -0.280 OA
BRANCH   9  10
HETATM   10  C   UNK N   1      25.938  23.323  -6.784  0.00  0.00     0.359 C 
HETATM   11  O   UNK N   1      25.126  23.627  -7.648  0.00  0.00    -0.239 OA
HETATM   12  N   UNK N   1      26.881  22.403  -7.060  0.00  0.00    -0.346 N 
HETATM   13  H   UNK N   1      26.722  21.445  -7.214  0.00  0.00     0.161 HD
HETATM   14  H   UNK N   1      27.811  22.718  -7.112  0.00  0.00     0.161 HD
ENDBRANCH   9  10
ENDBRANCH   1   9
TORSDOF 2
ENDMDL
MODEL 8
REMARK VINA RESULT:      -4.3      8.295      9.938
REMARK  2 active torsions:
REMARK  status: ('A' for Active; 'I' for Inactive)
REMARK    1  A    between atoms: O_1  and  C_4 
REMARK    2  A    between atoms: O_1  and  C_11 
REMARK       I    between atoms: N_3  and  C_11 
ROOT
HETATM    1  C   UNK N   1      31.576  16.727   8.170  0.00  0.00     0.134 C 
HETATM    2  C   UNK N   1      32.449  17.986   8.224  0.00  0.00     0.052 C 
HETATM    3  C   UNK N   1      31.249  16.419   6.691  0.00  0.00     0.052 C 
HETATM    4  C   UNK N   1      33.711  17.828   7.366  0.00  0.00     0.004 C 
HETATM    5  C   UNK N   1      32.491  16.302   5.812  0.00  0.00     0.004 C 
HETATM    6  C   UNK N   1      33.325  17.571   5.913  0.00  0.00     0.000 C 
HETATM    7  C   UNK N   1      32.306  15.634   8.846  0.00  0.00    -0.078 C 
HETATM    8  C   UNK N   1      32.907  14.789   9.462  0.00  0.00     0.015 C 
ENDROOT
BRANCH   1   9
HETATM    9  O   UNK N   1      30.404  16.953   8.880  0.00  0.00    -0.280 OA
BRANCH   9  10
HETATM   10  C   UNK N   1      29.766  18.158   8.956  0.00  0.00     0.359 C 
HETATM   11  O   UNK N   1      29.897  18.879   9.936  0.00  0.00    -0.239 OA
HETATM   12  N   UNK N   1      28.983  18.563   7.939  0.00  0.00    -0.346 N 
HETATM   13  H   UNK N   1      28.004  18.659   7.969  0.00  0.00     0.161 HD
HETATM   14  H   UNK N   1      29.429  18.783   7.091  0.00  0.00     0.161 HD
ENDBRANCH   9  10
ENDBRANCH   1   9
TORSDOF 2
ENDMDL
MODEL 9
REMARK VINA RESULT:      -4.3     12.303     13.797
REMARK  2 active torsions:
REMARK  status: ('A' for Active; 'I' for Inactive)
REMARK    1  A    between atoms: O_1  and  C_4 
REMARK    2  A    between atoms: O_1  and  C_11 
REMARK       I    between atoms: N_3  and  C_11 
ROOT
HETATM    1  C   UNK N   1      27.945  17.978   5.837  0.00  0.00     0.134 C 
HETATM    2  C   UNK N   1      27.813  19.499   5.979  0.00  0.00     0.052 C 
HETATM    3  C   UNK N   1      26.712  17.446   5.071  0.00  0.00     0.052 C 
HETATM    4  C   UNK N   1      27.636  20.174   4.613  0.00  0.00     0.004 C 
HETATM    5  C   UNK N   1      26.494  18.138   3.729  0.00  0.00     0.004 C 
HETATM    6  C   UNK N   1      26.382  19.643   3.926  0.00  0.00     0.000 C 
HETATM    7  C   UNK N   1      29.224  17.692   5.154  0.00  0.00    -0.078 C 
HETATM    8  C   UNK N   1      30.305  17.500   4.654  0.00  0.00     0.015 C 
ENDROOT
BRANCH   1   9
HETATM    9  O   UNK N   1      28.004  17.404   7.101  0.00  0.00    -0.280 OA
BRANCH   9  10
HETATM   10  C   UNK N   1      28.494  18.030   8.212  0.00  0.00     0.359 C 
HETATM   11  O   UNK N   1      29.698  18.171   8.375  0.00  0.00    -0.239 OA
HETATM   12  N   UNK N   1      27.643  18.501   9.142  0.00  0.00    -0.346 N 
HETATM   13  H   UNK N   1      27.536  18.150  10.055  0.00  0.00     0.161 HD
HETATM   14  H   UNK N   1      27.078  19.264   8.885  0.00  0.00     0.161 HD
ENDBRANCH   9  10
ENDBRANCH   1   9
TORSDOF 2
ENDMDL
