MODEL 1
REMARK VINA RESULT:      -7.1      0.000      0.000
REMARK  2 active torsions:
REMARK  status: ('A' for Active; 'I' for Inactive)
REMARK    1  A    between atoms: N_8  and  C_16 
REMARK    2  A    between atoms: C_11  and  C_12 
ROOT
HETATM    1  O   UNK N   1      27.642  17.828   9.561  0.00  0.00    -0.271 OA
HETATM    2  N   UNK N   1      28.517  17.331   7.582  0.00  0.00    -0.325 N 
HETATM    3  N   UNK N   1      30.947  17.608   9.375  0.00  0.00    -0.380 N 
ATOM      4  HN  UNK N   1      31.344  17.472  10.305  1.00  0.00     0.160 HD
HETATM    5  C   UNK N   1      30.951  17.033   6.992  0.00  0.00     0.020 A 
HETATM    6  C   UNK N   1      29.577  17.242   6.639  0.00  0.00     0.047 A 
HETATM    7  C   UNK N   1      31.479  16.932   8.406  0.00  0.00     0.053 C 
HETATM    8  C   UNK N   1      31.881  16.900   5.949  0.00  0.00     0.052 A 
HETATM    9  C   UNK N   1      29.214  17.271   5.287  0.00  0.00     0.033 A 
HETATM   10  C   UNK N   1      29.850  18.528   9.264  0.00  0.00     0.223 C 
HETATM   11  C   UNK N   1      31.502  16.927   4.603  0.00  0.00     0.103 A 
HETATM   12  C   UNK N   1      28.615  17.845   8.824  0.00  0.00     0.239 C 
HETATM   13  C   UNK N   1      30.160  17.121   4.279  0.00  0.00     0.038 A 
HETATM   14  H   UNK N   1      27.638  16.986   7.306  0.00  0.00     0.169 HD
ENDROOT
BRANCH   7  15
HETATM   15  C   UNK N   1      32.754  16.190   8.740  0.00  0.00     0.013 A 
HETATM   16  C   UNK N   1      34.072  16.750   8.769  0.00  0.00     0.046 A 
HETATM   17 Cl   UNK N   1      34.475  18.389   8.271  0.00  0.00    -0.083 Cl
HETATM   18  C   UNK N   1      35.161  15.940   9.117  0.00  0.00     0.025 A 
HETATM   19  C   UNK N   1      34.986  14.594   9.428  0.00  0.00     0.002 A 
HETATM   20  C   UNK N   1      33.718  14.029   9.366  0.00  0.00     0.001 A 
HETATM   21  C   UNK N   1      32.621  14.816   9.022  0.00  0.00     0.015 A 
ENDBRANCH   7  15
BRANCH  11  22
HETATM   22  N   UNK N   1      32.465  16.714   3.579  0.00  0.00    -0.116 N 
HETATM   23  O   UNK N   1      32.206  17.073   2.340  0.00  0.00    -0.532 OA
HETATM   24  O   UNK N   1      33.491  16.150   3.824  0.00  0.00    -0.532 OA
ENDBRANCH  11  22
TORSDOF 2
ENDMDL
MODEL 2
REMARK VINA RESULT:      -6.9      1.645      4.462
REMARK  2 active torsions:
REMARK  status: ('A' for Active; 'I' for Inactive)
REMARK    1  A    between atoms: N_8  and  C_16 
REMARK    2  A    between atoms: C_11  and  C_12 
ROOT
HETATM    1  O   UNK N   1      33.094  15.047   3.506  0.00  0.00    -0.271 OA
HETATM    2  N   UNK N   1      31.772  16.279   4.796  0.00  0.00    -0.325 N 
HETATM    3  N   UNK N   1      33.365  14.637   6.787  0.00  0.00    -0.380 N 
ATOM      4  HN  UNK N   1      34.258  14.200   7.015  1.00  0.00     0.160 HD
HETATM    5  C   UNK N   1      31.661  16.319   7.315  0.00  0.00     0.020 A 
HETATM    6  C   UNK N   1      31.124  16.609   6.017  0.00  0.00     0.047 A 
HETATM    7  C   UNK N   1      32.956  15.581   7.574  0.00  0.00     0.053 C 
HETATM    8  C   UNK N   1      30.939  16.763   8.434  0.00  0.00     0.052 A 
HETATM    9  C   UNK N   1      29.935  17.341   5.915  0.00  0.00     0.033 A 
HETATM   10  C   UNK N   1      32.680  14.150   5.621  0.00  0.00     0.223 C 
HETATM   11  C   UNK N   1      29.755  17.497   8.317  0.00  0.00     0.103 A 
HETATM   12  C   UNK N   1      32.555  15.202   4.590  0.00  0.00     0.239 C 
HETATM   13  C   UNK N   1      29.253  17.778   7.046  0.00  0.00     0.038 A 
HETATM   14  H   UNK N   1      31.640  16.891   4.036  0.00  0.00     0.169 HD
ENDROOT
BRANCH   7  15
HETATM   15  C   UNK N   1      33.750  15.769   8.848  0.00  0.00     0.013 A 
HETATM   16  C   UNK N   1      34.474  16.946   9.225  0.00  0.00     0.046 A 
HETATM   17 Cl   UNK N   1      34.699  18.355   8.196  0.00  0.00    -0.083 Cl
HETATM   18  C   UNK N   1      35.149  16.980  10.451  0.00  0.00     0.025 A 
HETATM   19  C   UNK N   1      35.137  15.884  11.311  0.00  0.00     0.002 A 
HETATM   20  C   UNK N   1      34.472  14.722  10.940  0.00  0.00     0.001 A 
HETATM   21  C   UNK N   1      33.793  14.666   9.725  0.00  0.00     0.015 A 
ENDBRANCH   7  15
BRANCH  11  22
HETATM   22  N   UNK N   1      29.095  17.991   9.475  0.00  0.00    -0.116 N 
HETATM   23  O   UNK N   1      27.863  17.617   9.746  0.00  0.00    -0.532 OA
HETATM   24  O   UNK N   1      29.632  18.798  10.176  0.00  0.00    -0.532 OA
ENDBRANCH  11  22
TORSDOF 2
ENDMDL
MODEL 3
REMARK VINA RESULT:      -6.8      2.935      5.841
REMARK  2 active torsions:
REMARK  status: ('A' for Active; 'I' for Inactive)
REMARK    1  A    between atoms: N_8  and  C_16 
REMARK    2  A    between atoms: C_11  and  C_12 
ROOT
HETATM    1  O   UNK N   1      29.612  18.806  10.388  0.00  0.00    -0.271 OA
HETATM    2  N   UNK N   1      30.655  18.129   8.548  0.00  0.00    -0.325 N 
HETATM    3  N   UNK N   1      27.727  18.070   7.760  0.00  0.00    -0.380 N 
ATOM      4  HN  UNK N   1      26.807  18.499   7.855  1.00  0.00     0.160 HD
HETATM    5  C   UNK N   1      29.635  17.501   6.329  0.00  0.00     0.020 A 
HETATM    6  C   UNK N   1      30.719  17.515   7.267  0.00  0.00     0.047 A 
HETATM    7  C   UNK N   1      28.261  18.083   6.579  0.00  0.00     0.053 C 
HETATM    8  C   UNK N   1      29.865  16.914   5.075  0.00  0.00     0.052 A 
HETATM    9  C   UNK N   1      31.957  16.980   6.893  0.00  0.00     0.033 A 
HETATM   10  C   UNK N   1      28.310  17.510   8.947  0.00  0.00     0.223 C 
HETATM   11  C   UNK N   1      31.109  16.387   4.713  0.00  0.00     0.103 A 
HETATM   12  C   UNK N   1      29.555  18.215   9.322  0.00  0.00     0.239 C 
HETATM   13  C   UNK N   1      32.154  16.419   5.635  0.00  0.00     0.038 A 
HETATM   14  H   UNK N   1      31.484  18.526   8.900  0.00  0.00     0.169 HD
ENDROOT
BRANCH   7  15
HETATM   15  C   UNK N   1      27.363  18.543   5.452  0.00  0.00     0.013 A 
HETATM   16  C   UNK N   1      26.260  17.814   4.902  0.00  0.00     0.046 A 
HETATM   17 Cl   UNK N   1      25.831  16.164   5.340  0.00  0.00    -0.083 Cl
HETATM   18  C   UNK N   1      25.503  18.380   3.869  0.00  0.00     0.025 A 
HETATM   19  C   UNK N   1      25.808  19.639   3.358  0.00  0.00     0.002 A 
HETATM   20  C   UNK N   1      26.900  20.340   3.856  0.00  0.00     0.001 A 
HETATM   21  C   UNK N   1      27.666  19.796   4.884  0.00  0.00     0.015 A 
ENDBRANCH   7  15
BRANCH  11  22
HETATM   22  N   UNK N   1      31.319  15.869   3.406  0.00  0.00    -0.116 N 
HETATM   23  O   UNK N   1      32.211  16.419   2.610  0.00  0.00    -0.532 OA
HETATM   24  O   UNK N   1      30.644  14.971   2.998  0.00  0.00    -0.532 OA
ENDBRANCH  11  22
TORSDOF 2
ENDMDL
MODEL 4
REMARK VINA RESULT:      -6.8     13.439     16.309
REMARK  2 active torsions:
REMARK  status: ('A' for Active; 'I' for Inactive)
REMARK    1  A    between atoms: N_8  and  C_16 
REMARK    2  A    between atoms: C_11  and  C_12 
ROOT
HETATM    1  O   UNK N   1      31.577  22.608  -4.173  0.00  0.00    -0.271 OA
HETATM    2  N   UNK N   1      30.013  22.431  -5.739  0.00  0.00    -0.325 N 
HETATM    3  N   UNK N   1      28.771  24.317  -3.715  0.00  0.00    -0.380 N 
ATOM      4  HN  UNK N   1      28.920  25.067  -3.040  1.00  0.00     0.160 HD
HETATM    5  C   UNK N   1      27.761  23.564  -5.819  0.00  0.00     0.020 A 
HETATM    6  C   UNK N   1      28.691  22.559  -6.246  0.00  0.00     0.047 A 
HETATM    7  C   UNK N   1      28.027  24.591  -4.740  0.00  0.00     0.053 C 
HETATM    8  C   UNK N   1      26.511  23.610  -6.456  0.00  0.00     0.052 A 
HETATM    9  C   UNK N   1      28.336  21.696  -7.289  0.00  0.00     0.033 A 
HETATM   10  C   UNK N   1      29.406  23.058  -3.441  0.00  0.00     0.223 C 
HETATM   11  C   UNK N   1      26.172  22.744  -7.500  0.00  0.00     0.103 A 
HETATM   12  C   UNK N   1      30.401  22.718  -4.481  0.00  0.00     0.239 C 
HETATM   13  C   UNK N   1      27.093  21.780  -7.909  0.00  0.00     0.038 A 
HETATM   14  H   UNK N   1      30.704  22.106  -6.359  0.00  0.00     0.169 HD
ENDROOT
BRANCH   7  15
HETATM   15  C   UNK N   1      27.304  25.919  -4.696  0.00  0.00     0.013 A 
HETATM   16  C   UNK N   1      27.352  26.939  -5.700  0.00  0.00     0.046 A 
HETATM   17 Cl   UNK N   1      28.390  26.897  -7.121  0.00  0.00    -0.083 Cl
HETATM   18  C   UNK N   1      26.610  28.115  -5.529  0.00  0.00     0.025 A 
HETATM   19  C   UNK N   1      25.831  28.316  -4.392  0.00  0.00     0.002 A 
HETATM   20  C   UNK N   1      25.807  27.352  -3.392  0.00  0.00     0.001 A 
HETATM   21  C   UNK N   1      26.537  26.174  -3.542  0.00  0.00     0.015 A 
ENDBRANCH   7  15
BRANCH  11  22
HETATM   22  N   UNK N   1      24.924  22.874  -8.167  0.00  0.00    -0.116 N 
HETATM   23  O   UNK N   1      24.688  23.916  -8.935  0.00  0.00    -0.532 OA
HETATM   24  O   UNK N   1      24.056  22.071  -7.985  0.00  0.00    -0.532 OA
ENDBRANCH  11  22
TORSDOF 2
ENDMDL
MODEL 5
REMARK VINA RESULT:      -6.6      3.333      5.970
REMARK  2 active torsions:
REMARK  status: ('A' for Active; 'I' for Inactive)
REMARK    1  A    between atoms: N_8  and  C_16 
REMARK    2  A    between atoms: C_11  and  C_12 
ROOT
HETATM    1  O   UNK N   1      27.589  13.251   3.786  0.00  0.00    -0.271 OA
HETATM    2  N   UNK N   1      29.318  13.993   4.964  0.00  0.00    -0.325 N 
HETATM    3  N   UNK N   1      27.985  16.538   3.994  0.00  0.00    -0.380 N 
ATOM      4  HN  UNK N   1      27.111  17.013   3.767  1.00  0.00     0.160 HD
HETATM    5  C   UNK N   1      29.980  16.385   5.411  0.00  0.00     0.020 A 
HETATM    6  C   UNK N   1      30.256  14.979   5.376  0.00  0.00     0.047 A 
HETATM    7  C   UNK N   1      28.682  17.027   4.970  0.00  0.00     0.053 C 
HETATM    8  C   UNK N   1      30.982  17.236   5.903  0.00  0.00     0.052 A 
HETATM    9  C   UNK N   1      31.484  14.509   5.857  0.00  0.00     0.033 A 
HETATM   10  C   UNK N   1      28.325  15.389   3.202  0.00  0.00     0.223 C 
HETATM   11  C   UNK N   1      32.203  16.752   6.384  0.00  0.00     0.103 A 
HETATM   12  C   UNK N   1      28.367  14.160   4.024  0.00  0.00     0.239 C 
HETATM   13  C   UNK N   1      32.449  15.381   6.352  0.00  0.00     0.038 A 
HETATM   14  H   UNK N   1      29.366  13.114   5.404  0.00  0.00     0.169 HD
ENDROOT
BRANCH   7  15
HETATM   15  C   UNK N   1      28.219  18.362   5.509  0.00  0.00     0.013 A 
HETATM   16  C   UNK N   1      28.018  18.691   6.889  0.00  0.00     0.046 A 
HETATM   17 Cl   UNK N   1      28.132  17.543   8.218  0.00  0.00    -0.083 Cl
HETATM   18  C   UNK N   1      27.603  19.981   7.240  0.00  0.00     0.025 A 
HETATM   19  C   UNK N   1      27.372  20.953   6.269  0.00  0.00     0.002 A 
HETATM   20  C   UNK N   1      27.525  20.636   4.924  0.00  0.00     0.001 A 
HETATM   21  C   UNK N   1      27.938  19.358   4.553  0.00  0.00     0.015 A 
ENDBRANCH   7  15
BRANCH  11  22
HETATM   22  N   UNK N   1      33.160  17.642   6.943  0.00  0.00    -0.116 N 
HETATM   23  O   UNK N   1      34.311  17.842   6.337  0.00  0.00    -0.532 OA
HETATM   24  O   UNK N   1      32.954  18.165   7.998  0.00  0.00    -0.532 OA
ENDBRANCH  11  22
TORSDOF 2
ENDMDL
MODEL 6
REMARK VINA RESULT:      -6.5     11.037     12.490
REMARK  2 active torsions:
REMARK  status: ('A' for Active; 'I' for Inactive)
REMARK    1  A    between atoms: N_8  and  C_16 
REMARK    2  A    between atoms: C_11  and  C_12 
ROOT
HETATM    1  O   UNK N   1      21.340  20.703   3.063  0.00  0.00    -0.271 OA
HETATM    2  N   UNK N   1      21.407  19.114   4.613  0.00  0.00    -0.325 N 
HETATM    3  N   UNK N   1      20.205  17.705   2.212  0.00  0.00    -0.380 N 
ATOM      4  HN  UNK N   1      20.185  17.610   1.197  1.00  0.00     0.160 HD
HETATM    5  C   UNK N   1      20.686  16.707   4.400  0.00  0.00     0.020 A 
HETATM    6  C   UNK N   1      21.044  17.859   5.174  0.00  0.00     0.047 A 
HETATM    7  C   UNK N   1      20.591  16.670   2.890  0.00  0.00     0.053 C 
HETATM    8  C   UNK N   1      20.415  15.515   5.089  0.00  0.00     0.052 A 
HETATM    9  C   UNK N   1      21.140  17.747   6.566  0.00  0.00     0.033 A 
HETATM   10  C   UNK N   1      19.804  18.972   2.756  0.00  0.00     0.223 C 
HETATM   11  C   UNK N   1      20.518  15.417   6.481  0.00  0.00     0.103 A 
HETATM   12  C   UNK N   1      20.919  19.631   3.468  0.00  0.00     0.239 C 
HETATM   13  C   UNK N   1      20.878  16.545   7.216  0.00  0.00     0.038 A 
HETATM   14  H   UNK N   1      22.073  19.651   5.101  0.00  0.00     0.169 HD
ENDROOT
BRANCH   7  15
HETATM   15  C   UNK N   1      20.760  15.390   2.102  0.00  0.00     0.013 A 
HETATM   16  C   UNK N   1      21.973  14.642   1.959  0.00  0.00     0.046 A 
HETATM   17 Cl   UNK N   1      23.545  15.159   2.557  0.00  0.00    -0.083 Cl
HETATM   18  C   UNK N   1      21.972  13.458   1.210  0.00  0.00     0.025 A 
HETATM   19  C   UNK N   1      20.811  12.997   0.594  0.00  0.00     0.002 A 
HETATM   20  C   UNK N   1      19.637  13.733   0.692  0.00  0.00     0.001 A 
HETATM   21  C   UNK N   1      19.615  14.914   1.432  0.00  0.00     0.015 A 
ENDBRANCH   7  15
BRANCH  11  22
HETATM   22  N   UNK N   1      20.307  14.172   7.132  0.00  0.00    -0.116 N 
HETATM   23  O   UNK N   1      20.154  13.071   6.427  0.00  0.00    -0.532 OA
HETATM   24  O   UNK N   1      20.202  14.124   8.323  0.00  0.00    -0.532 OA
ENDBRANCH  11  22
TORSDOF 2
ENDMDL
MODEL 7
REMARK VINA RESULT:      -6.2      8.674     11.959
REMARK  2 active torsions:
REMARK  status: ('A' for Active; 'I' for Inactive)
REMARK    1  A    between atoms: N_8  and  C_16 
REMARK    2  A    between atoms: C_11  and  C_12 
ROOT
HETATM    1  O   UNK N   1      24.857  13.321   4.873  0.00  0.00    -0.271 OA
HETATM    2  N   UNK N   1      23.218  13.970   6.223  0.00  0.00    -0.325 N 
HETATM    3  N   UNK N   1      23.621  16.363   4.404  0.00  0.00    -0.380 N 
ATOM      4  HN  UNK N   1      23.852  16.697   3.468  1.00  0.00     0.160 HD
HETATM    5  C   UNK N   1      21.973  16.163   6.209  0.00  0.00     0.020 A 
HETATM    6  C   UNK N   1      22.371  14.935   6.833  0.00  0.00     0.047 A 
HETATM    7  C   UNK N   1      22.434  16.634   4.847  0.00  0.00     0.053 C 
HETATM    8  C   UNK N   1      21.078  16.990   6.906  0.00  0.00     0.052 A 
HETATM    9  C   UNK N   1      21.835  14.595   8.080  0.00  0.00     0.033 A 
HETATM   10  C   UNK N   1      24.640  15.634   5.105  0.00  0.00     0.223 C 
HETATM   11  C   UNK N   1      20.548  16.635   8.150  0.00  0.00     0.103 A 
HETATM   12  C   UNK N   1      24.224  14.240   5.367  0.00  0.00     0.239 C 
HETATM   13  C   UNK N   1      20.938  15.432   8.736  0.00  0.00     0.038 A 
HETATM   14  H   UNK N   1      23.057  13.024   6.443  0.00  0.00     0.169 HD
ENDROOT
BRANCH   7  15
HETATM   15  C   UNK N   1      21.618  17.592   4.007  0.00  0.00     0.013 A 
HETATM   16  C   UNK N   1      20.399  17.285   3.321  0.00  0.00     0.046 A 
HETATM   17 Cl   UNK N   1      19.694  15.677   3.205  0.00  0.00    -0.083 Cl
HETATM   18  C   UNK N   1      19.742  18.286   2.594  0.00  0.00     0.025 A 
HETATM   19  C   UNK N   1      20.258  19.577   2.518  0.00  0.00     0.002 A 
HETATM   20  C   UNK N   1      21.461  19.879   3.146  0.00  0.00     0.001 A 
HETATM   21  C   UNK N   1      22.131  18.899   3.875  0.00  0.00     0.015 A 
ENDBRANCH   7  15
BRANCH  11  22
HETATM   22  N   UNK N   1      19.587  17.467   8.787  0.00  0.00    -0.116 N 
HETATM   23  O   UNK N   1      18.350  17.048   8.948  0.00  0.00    -0.532 OA
HETATM   24  O   UNK N   1      19.879  18.576   9.124  0.00  0.00    -0.532 OA
ENDBRANCH  11  22
TORSDOF 2
ENDMDL
MODEL 8
REMARK VINA RESULT:      -6.2      8.957     10.612
REMARK  2 active torsions:
REMARK  status: ('A' for Active; 'I' for Inactive)
REMARK    1  A    between atoms: N_8  and  C_16 
REMARK    2  A    between atoms: C_11  and  C_12 
ROOT
HETATM    1  O   UNK N   1      21.124  16.142   8.743  0.00  0.00    -0.271 OA
HETATM    2  N   UNK N   1      21.221  15.262   6.707  0.00  0.00    -0.325 N 
HETATM    3  N   UNK N   1      21.784  18.204   6.230  0.00  0.00    -0.380 N 
ATOM      4  HN  UNK N   1      22.213  19.061   6.580  1.00  0.00     0.160 HD
HETATM    5  C   UNK N   1      21.719  16.436   4.532  0.00  0.00     0.020 A 
HETATM    6  C   UNK N   1      21.223  15.324   5.287  0.00  0.00     0.047 A 
HETATM    7  C   UNK N   1      22.259  17.718   5.127  0.00  0.00     0.053 C 
HETATM    8  C   UNK N   1      21.718  16.329   3.132  0.00  0.00     0.052 A 
HETATM    9  C   UNK N   1      20.792  14.175   4.612  0.00  0.00     0.033 A 
HETATM   10  C   UNK N   1      20.712  17.648   7.007  0.00  0.00     0.223 C 
HETATM   11  C   UNK N   1      21.288  15.173   2.472  0.00  0.00     0.103 A 
HETATM   12  C   UNK N   1      21.064  16.313   7.536  0.00  0.00     0.239 C 
HETATM   13  C   UNK N   1      20.819  14.097   3.223  0.00  0.00     0.038 A 
HETATM   14  H   UNK N   1      21.347  14.378   7.121  0.00  0.00     0.169 HD
ENDROOT
BRANCH   7  15
HETATM   15  C   UNK N   1      23.245  18.598   4.389  0.00  0.00     0.013 A 
HETATM   16  C   UNK N   1      22.917  19.685   3.516  0.00  0.00     0.046 A 
HETATM   17 Cl   UNK N   1      21.284  20.111   3.018  0.00  0.00    -0.083 Cl
HETATM   18  C   UNK N   1      23.943  20.425   2.916  0.00  0.00     0.025 A 
HETATM   19  C   UNK N   1      25.282  20.117   3.146  0.00  0.00     0.002 A 
HETATM   20  C   UNK N   1      25.614  19.040   3.958  0.00  0.00     0.001 A 
HETATM   21  C   UNK N   1      24.609  18.291   4.566  0.00  0.00     0.015 A 
ENDBRANCH   7  15
BRANCH  11  22
HETATM   22  N   UNK N   1      21.373  15.079   1.056  0.00  0.00    -0.116 N 
HETATM   23  O   UNK N   1      22.217  14.238   0.497  0.00  0.00    -0.532 OA
HETATM   24  O   UNK N   1      20.725  15.807   0.363  0.00  0.00    -0.532 OA
ENDBRANCH  11  22
TORSDOF 2
ENDMDL
MODEL 9
REMARK VINA RESULT:      -6.1      7.844     10.072
REMARK  2 active torsions:
REMARK  status: ('A' for Active; 'I' for Inactive)
REMARK    1  A    between atoms: N_8  and  C_16 
REMARK    2  A    between atoms: C_11  and  C_12 
ROOT
HETATM    1  O   UNK N   1      20.020  14.082   6.169  0.00  0.00    -0.271 OA
HETATM    2  N   UNK N   1      20.029  15.804   4.768  0.00  0.00    -0.325 N 
HETATM    3  N   UNK N   1      22.851  15.787   5.879  0.00  0.00    -0.380 N 
ATOM      4  HN  UNK N   1      23.635  15.227   6.213  1.00  0.00     0.160 HD
HETATM    5  C   UNK N   1      21.947  17.345   4.216  0.00  0.00     0.020 A 
HETATM    6  C   UNK N   1      20.553  17.010   4.228  0.00  0.00     0.047 A 
HETATM    7  C   UNK N   1      23.049  16.500   4.815  0.00  0.00     0.053 C 
HETATM    8  C   UNK N   1      22.326  18.543   3.588  0.00  0.00     0.052 A 
HETATM    9  C   UNK N   1      19.638  17.861   3.596  0.00  0.00     0.033 A 
HETATM   10  C   UNK N   1      21.629  15.709   6.631  0.00  0.00     0.223 C 
HETATM   11  C   UNK N   1      21.401  19.380   2.957  0.00  0.00     0.103 A 
HETATM   12  C   UNK N   1      20.533  15.133   5.822  0.00  0.00     0.239 C 
HETATM   13  C   UNK N   1      20.050  19.033   2.971  0.00  0.00     0.038 A 
HETATM   14  H   UNK N   1      19.231  15.425   4.334  0.00  0.00     0.169 HD
ENDROOT
BRANCH   7  15
HETATM   15  C   UNK N   1      24.479  16.575   4.328  0.00  0.00     0.013 A 
HETATM   16  C   UNK N   1      25.009  15.929   3.164  0.00  0.00     0.046 A 
HETATM   17 Cl   UNK N   1      24.118  14.795   2.156  0.00  0.00    -0.083 Cl
HETATM   18  C   UNK N   1      26.356  16.107   2.826  0.00  0.00     0.025 A 
HETATM   19  C   UNK N   1      27.196  16.898   3.607  0.00  0.00     0.002 A 
HETATM   20  C   UNK N   1      26.706  17.498   4.760  0.00  0.00     0.001 A 
HETATM   21  C   UNK N   1      25.368  17.334   5.115  0.00  0.00     0.015 A 
ENDBRANCH   7  15
BRANCH  11  22
HETATM   22  N   UNK N   1      21.836  20.546   2.270  0.00  0.00    -0.116 N 
HETATM   23  O   UNK N   1      22.761  21.320   2.797  0.00  0.00    -0.532 OA
HETATM   24  O   UNK N   1      21.321  20.866   1.240  0.00  0.00    -0.532 OA
ENDBRANCH  11  22
TORSDOF 2
ENDMDL
