REMARK  2 active torsions:
REMARK  status: ('A' for Active; 'I' for Inactive)
REMARK    1  A    between atoms: N_8  and  C_16 
REMARK    2  A    between atoms: C_11  and  C_12 
ROOT
HETATM    1  O   UNK N   1       2.230   4.615   0.600  0.00  0.00    -0.271 OA
HETATM    2  N   UNK N   1       1.492   2.521   0.608  0.00  0.00    -0.325 N 
HETATM    3  N   UNK N   1       4.299   2.273  -0.512  0.00  0.00    -0.380 N 
ATOM      4  HN  UNK N   1       5.260   2.615  -0.496  1.00  0.00     0.160 HD
HETATM    5  C   UNK N   1       2.721   0.440  -0.111  0.00  0.00     0.020 A 
HETATM    6  C   UNK N   1       1.523   1.153   0.222  0.00  0.00     0.047 A 
HETATM    7  C   UNK N   1       4.108   1.043  -0.153  0.00  0.00     0.053 C 
HETATM    8  C   UNK N   1       2.606  -0.927  -0.410  0.00  0.00     0.052 A 
HETATM    9  C   UNK N   1       0.305   0.464   0.268  0.00  0.00     0.033 A 
HETATM   10  C   UNK N   1       3.285   3.201  -0.929  0.00  0.00     0.223 C 
HETATM   11  C   UNK N   1       1.383  -1.603  -0.356  0.00  0.00     0.103 A 
HETATM   12  C   UNK N   1       2.327   3.480   0.162  0.00  0.00     0.239 C 
HETATM   13  C   UNK N   1       0.230  -0.895  -0.020  0.00  0.00     0.038 A 
HETATM   14  H   UNK N   1       0.803   2.791   1.257  0.00  0.00     0.169 HD
ENDROOT
BRANCH   7  15
HETATM   15  C   UNK N   1       5.356   0.210   0.041  0.00  0.00     0.013 A 
HETATM   16  C   UNK N   1       5.468  -0.965   0.852  0.00  0.00     0.046 A 
HETATM   17 Cl   UNK N   1       4.198  -1.581   1.903  0.00  0.00    -0.083 Cl
HETATM   18  C   UNK N   1       6.690  -1.646   0.919  0.00  0.00     0.025 A 
HETATM   19  C   UNK N   1       7.805  -1.196   0.216  0.00  0.00     0.002 A 
HETATM   20  C   UNK N   1       7.721  -0.035  -0.543  0.00  0.00     0.001 A 
HETATM   21  C   UNK N   1       6.515   0.658  -0.624  0.00  0.00     0.015 A 
ENDBRANCH   7  15
BRANCH  11  22
HETATM   22  N   UNK N   1       1.323  -3.003  -0.594  0.00  0.00    -0.116 N 
HETATM   23  O   UNK N   1       0.178  -3.644  -0.495  0.00  0.00    -0.532 OA
HETATM   24  O   UNK N   1       2.322  -3.619  -0.823  0.00  0.00    -0.532 OA
ENDBRANCH  11  22
TORSDOF 2
