MODEL 1
REMARK VINA RESULT:      -7.6      0.000      0.000
REMARK  9 active torsions:
REMARK  status: ('A' for Active; 'I' for Inactive)
REMARK    1  A    between atoms: O_1  and  C_12 
REMARK    2  A    between atoms: O_1  and  C_23 
REMARK    3  A    between atoms: N_3  and  C_10 
REMARK    4  A    between atoms: C_5  and  C_11 
REMARK    5  A    between atoms: C_5  and  C_12 
REMARK    6  A    between atoms: C_10  and  C_13 
REMARK    7  A    between atoms: C_13  and  C_14 
REMARK    8  A    between atoms: C_14  and  C_17 
REMARK    9  A    between atoms: C_14  and  C_18 
ROOT
HETATM    1  N   UNK N   1      19.694  14.432   9.254  0.00  0.00    -0.196 NA
HETATM    2  C   UNK N   1      21.931  13.451   8.259  0.00  0.00     0.104 C 
HETATM    3  C   UNK N   1      20.660  13.982   8.802  0.00  0.00     0.079 C 
ENDROOT
BRANCH   2   4
HETATM    4  C   UNK N   1      22.674  14.595   7.496  0.00  0.00     0.065 C 
BRANCH   4   5
HETATM    5  C   UNK N   1      21.845  15.846   7.051  0.00  0.00     0.275 C 
BRANCH   5   6
HETATM    6  N   UNK N   1      21.437  15.930   5.634  0.00  0.00     0.088 N 
HETATM    7  C   UNK N   1      22.308  15.141   4.768  0.00  0.00     0.274 C 
HETATM    8  C   UNK N   1      21.976  15.326   3.284  0.00  0.00     0.055 C 
HETATM    9  C   UNK N   1      20.626  16.003   2.973  0.00  0.00     0.078 C 
HETATM   10  C   UNK N   1      19.577  15.490   3.984  0.00  0.00     0.055 C 
HETATM   11  C   UNK N   1      20.024  15.564   5.467  0.00  0.00     0.274 C 
BRANCH   9  12
HETATM   12  C   UNK N   1      20.705  17.530   3.006  0.00  0.00    -0.040 A 
HETATM   13  C   UNK N   1      19.558  18.308   2.759  0.00  0.00     0.008 A 
HETATM   14  C   UNK N   1      19.642  19.705   2.718  0.00  0.00     0.001 A 
HETATM   15  C   UNK N   1      20.868  20.339   2.933  0.00  0.00     0.000 A 
HETATM   16  C   UNK N   1      22.011  19.579   3.187  0.00  0.00     0.001 A 
HETATM   17  C   UNK N   1      21.932  18.185   3.213  0.00  0.00     0.008 A 
ENDBRANCH   9  12
BRANCH   9  18
HETATM   18  C   UNK N   1      20.290  15.579   1.552  0.00  0.00     0.272 C 
HETATM   19  O   UNK N   1      21.046  15.886   0.641  0.00  0.00    -0.264 OA
BRANCH  18  20
HETATM   20  O   UNK N   1      19.231  14.781   1.278  0.00  0.00    -0.321 OA
BRANCH  20  21
HETATM   21  C   UNK N   1      19.411  13.540   0.698  0.00  0.00     0.174 C 
HETATM   22  C   UNK N   1      19.044  12.408   1.656  0.00  0.00     0.034 C 
ENDBRANCH  20  21
ENDBRANCH  18  20
ENDBRANCH   9  18
ENDBRANCH   5   6
ENDBRANCH   4   5
ENDBRANCH   2   4
BRANCH   2  23
HETATM   23  C   UNK N   1      21.732  12.249   7.332  0.00  0.00    -0.031 A 
HETATM   24  C   UNK N   1      22.738  11.274   7.180  0.00  0.00     0.009 A 
HETATM   25  C   UNK N   1      22.624  10.276   6.205  0.00  0.00     0.001 A 
HETATM   26  C   UNK N   1      21.523  10.255   5.345  0.00  0.00     0.000 A 
HETATM   27  C   UNK N   1      20.534  11.233   5.459  0.00  0.00     0.001 A 
HETATM   28  C   UNK N   1      20.644  12.229   6.435  0.00  0.00     0.009 A 
ENDBRANCH   2  23
BRANCH   2  29
HETATM   29  C   UNK N   1      22.707  12.930   9.472  0.00  0.00    -0.031 A 
HETATM   30  C   UNK N   1      22.066  12.339  10.574  0.00  0.00     0.009 A 
HETATM   31  C   UNK N   1      22.814  11.863  11.659  0.00  0.00     0.001 A 
HETATM   32  C   UNK N   1      24.209  11.963  11.652  0.00  0.00     0.000 A 
HETATM   33  C   UNK N   1      24.861  12.548  10.568  0.00  0.00     0.001 A 
HETATM   34  C   UNK N   1      24.117  13.032   9.492  0.00  0.00     0.009 A 
ENDBRANCH   2  29
TORSDOF 9
ENDMDL
MODEL 2
REMARK VINA RESULT:      -7.5     12.611     16.161
REMARK  9 active torsions:
REMARK  status: ('A' for Active; 'I' for Inactive)
REMARK    1  A    between atoms: O_1  and  C_12 
REMARK    2  A    between atoms: O_1  and  C_23 
REMARK    3  A    between atoms: N_3  and  C_10 
REMARK    4  A    between atoms: C_5  and  C_11 
REMARK    5  A    between atoms: C_5  and  C_12 
REMARK    6  A    between atoms: C_10  and  C_13 
REMARK    7  A    between atoms: C_13  and  C_14 
REMARK    8  A    between atoms: C_14  and  C_17 
REMARK    9  A    between atoms: C_14  and  C_18 
ROOT
HETATM    1  N   UNK N   1      33.243  10.759  14.149  0.00  0.00    -0.196 NA
HETATM    2  C   UNK N   1      35.694  11.151  15.041  0.00  0.00     0.104 C 
HETATM    3  C   UNK N   1      34.323  10.902  14.539  0.00  0.00     0.079 C 
ENDROOT
BRANCH   2   4
HETATM    4  C   UNK N   1      36.442  12.082  14.033  0.00  0.00     0.065 C 
BRANCH   4   5
HETATM    5  C   UNK N   1      36.279  11.797  12.503  0.00  0.00     0.275 C 
BRANCH   5   6
HETATM    6  N   UNK N   1      35.947  12.937  11.624  0.00  0.00     0.088 N 
HETATM    7  C   UNK N   1      35.005  13.856  12.256  0.00  0.00     0.274 C 
HETATM    8  C   UNK N   1      34.552  14.969  11.307  0.00  0.00     0.055 C 
HETATM    9  C   UNK N   1      35.382  15.138  10.018  0.00  0.00     0.078 C 
HETATM   10  C   UNK N   1      36.871  14.920  10.364  0.00  0.00     0.055 C 
HETATM   11  C   UNK N   1      37.162  13.626  11.169  0.00  0.00     0.274 C 
BRANCH   9  12
HETATM   12  C   UNK N   1      34.944  14.190   8.900  0.00  0.00    -0.040 A 
HETATM   13  C   UNK N   1      33.656  13.622   8.913  0.00  0.00     0.008 A 
HETATM   14  C   UNK N   1      33.276  12.700   7.931  0.00  0.00     0.001 A 
HETATM   15  C   UNK N   1      34.173  12.343   6.921  0.00  0.00     0.000 A 
HETATM   16  C   UNK N   1      35.451  12.906   6.893  0.00  0.00     0.001 A 
HETATM   17  C   UNK N   1      35.836  13.815   7.880  0.00  0.00     0.008 A 
ENDBRANCH   9  12
BRANCH   9  18
HETATM   18  C   UNK N   1      35.115  16.563   9.560  0.00  0.00     0.272 C 
HETATM   19  O   UNK N   1      35.511  17.496  10.244  0.00  0.00    -0.264 OA
BRANCH  18  20
HETATM   20  O   UNK N   1      34.543  16.831   8.363  0.00  0.00    -0.321 OA
BRANCH  20  21
HETATM   21  C   UNK N   1      33.739  17.943   8.194  0.00  0.00     0.174 C 
HETATM   22  C   UNK N   1      32.265  17.617   8.433  0.00  0.00     0.034 C 
ENDBRANCH  20  21
ENDBRANCH  18  20
ENDBRANCH   9  18
ENDBRANCH   5   6
ENDBRANCH   4   5
ENDBRANCH   2   4
BRANCH   2  23
HETATM   23  C   UNK N   1      36.496   9.865  15.258  0.00  0.00    -0.031 A 
HETATM   24  C   UNK N   1      37.904   9.869  15.201  0.00  0.00     0.009 A 
HETATM   25  C   UNK N   1      38.623   8.668  15.226  0.00  0.00     0.001 A 
HETATM   26  C   UNK N   1      37.950   7.445  15.273  0.00  0.00     0.000 A 
HETATM   27  C   UNK N   1      36.554   7.422  15.295  0.00  0.00     0.001 A 
HETATM   28  C   UNK N   1      35.834   8.621  15.274  0.00  0.00     0.009 A 
ENDBRANCH   2  23
BRANCH   2  29
HETATM   29  C   UNK N   1      35.513  11.780  16.426  0.00  0.00    -0.031 A 
HETATM   30  C   UNK N   1      35.489  11.009  17.601  0.00  0.00     0.009 A 
HETATM   31  C   UNK N   1      35.335  11.624  18.850  0.00  0.00     0.001 A 
HETATM   32  C   UNK N   1      35.213  13.015  18.941  0.00  0.00     0.000 A 
HETATM   33  C   UNK N   1      35.233  13.794  17.786  0.00  0.00     0.001 A 
HETATM   34  C   UNK N   1      35.376  13.183  16.541  0.00  0.00     0.009 A 
ENDBRANCH   2  29
TORSDOF 9
ENDMDL
MODEL 3
REMARK VINA RESULT:      -7.4      4.696      6.021
REMARK  9 active torsions:
REMARK  status: ('A' for Active; 'I' for Inactive)
REMARK    1  A    between atoms: O_1  and  C_12 
REMARK    2  A    between atoms: O_1  and  C_23 
REMARK    3  A    between atoms: N_3  and  C_10 
REMARK    4  A    between atoms: C_5  and  C_11 
REMARK    5  A    between atoms: C_5  and  C_12 
REMARK    6  A    between atoms: C_10  and  C_13 
REMARK    7  A    between atoms: C_13  and  C_14 
REMARK    8  A    between atoms: C_14  and  C_17 
REMARK    9  A    between atoms: C_14  and  C_18 
ROOT
HETATM    1  N   UNK N   1      21.167  15.839   8.094  0.00  0.00    -0.196 NA
HETATM    2  C   UNK N   1      22.792  13.794   7.734  0.00  0.00     0.104 C 
HETATM    3  C   UNK N   1      21.861  14.930   7.918  0.00  0.00     0.079 C 
ENDROOT
BRANCH   2   4
HETATM    4  C   UNK N   1      24.146  14.334   7.171  0.00  0.00     0.065 C 
BRANCH   4   5
HETATM    5  C   UNK N   1      24.102  15.524   6.156  0.00  0.00     0.275 C 
BRANCH   5   6
HETATM    6  N   UNK N   1      25.388  16.023   5.627  0.00  0.00     0.088 N 
HETATM    7  C   UNK N   1      26.523  15.274   6.157  0.00  0.00     0.274 C 
HETATM    8  C   UNK N   1      27.866  15.867   5.721  0.00  0.00     0.055 C 
HETATM    9  C   UNK N   1      27.811  16.892   4.570  0.00  0.00     0.078 C 
HETATM   10  C   UNK N   1      26.759  16.419   3.544  0.00  0.00     0.055 C 
HETATM   11  C   UNK N   1      25.385  16.044   4.158  0.00  0.00     0.274 C 
BRANCH   9  12
HETATM   12  C   UNK N   1      27.496  18.309   5.052  0.00  0.00    -0.040 A 
HETATM   13  C   UNK N   1      27.037  19.283   4.144  0.00  0.00     0.008 A 
HETATM   14  C   UNK N   1      26.816  20.599   4.567  0.00  0.00     0.001 A 
HETATM   15  C   UNK N   1      27.041  20.955   5.899  0.00  0.00     0.000 A 
HETATM   16  C   UNK N   1      27.491  19.996   6.810  0.00  0.00     0.001 A 
HETATM   17  C   UNK N   1      27.725  18.686   6.387  0.00  0.00     0.008 A 
ENDBRANCH   9  12
BRANCH   9  18
HETATM   18  C   UNK N   1      29.212  16.895   3.978  0.00  0.00     0.272 C 
HETATM   19  O   UNK N   1      29.442  16.223   2.982  0.00  0.00    -0.264 OA
BRANCH  18  20
HETATM   20  O   UNK N   1      30.186  17.704   4.457  0.00  0.00    -0.321 OA
BRANCH  20  21
HETATM   21  C   UNK N   1      31.363  17.178   4.955  0.00  0.00     0.174 C 
HETATM   22  C   UNK N   1      31.325  17.048   6.477  0.00  0.00     0.034 C 
ENDBRANCH  20  21
ENDBRANCH  18  20
ENDBRANCH   9  18
ENDBRANCH   5   6
ENDBRANCH   4   5
ENDBRANCH   2   4
BRANCH   2  23
HETATM   23  C   UNK N   1      22.239  12.707   6.808  0.00  0.00    -0.031 A 
HETATM   24  C   UNK N   1      20.900  12.739   6.370  0.00  0.00     0.009 A 
HETATM   25  C   UNK N   1      20.351  11.658   5.671  0.00  0.00     0.001 A 
HETATM   26  C   UNK N   1      21.117  10.515   5.429  0.00  0.00     0.000 A 
HETATM   27  C   UNK N   1      22.435  10.453   5.886  0.00  0.00     0.001 A 
HETATM   28  C   UNK N   1      22.985  11.533   6.582  0.00  0.00     0.009 A 
ENDBRANCH   2  23
BRANCH   2  29
HETATM   29  C   UNK N   1      22.927  13.148   9.117  0.00  0.00    -0.031 A 
HETATM   30  C   UNK N   1      21.808  12.824   9.904  0.00  0.00     0.009 A 
HETATM   31  C   UNK N   1      21.974  12.222  11.158  0.00  0.00     0.001 A 
HETATM   32  C   UNK N   1      23.256  11.929  11.636  0.00  0.00     0.000 A 
HETATM   33  C   UNK N   1      24.375  12.246  10.869  0.00  0.00     0.001 A 
HETATM   34  C   UNK N   1      24.213  12.855   9.626  0.00  0.00     0.009 A 
ENDBRANCH   2  29
TORSDOF 9
ENDMDL
MODEL 4
REMARK VINA RESULT:      -7.3     11.985     15.913
REMARK  9 active torsions:
REMARK  status: ('A' for Active; 'I' for Inactive)
REMARK    1  A    between atoms: O_1  and  C_12 
REMARK    2  A    between atoms: O_1  and  C_23 
REMARK    3  A    between atoms: N_3  and  C_10 
REMARK    4  A    between atoms: C_5  and  C_11 
REMARK    5  A    between atoms: C_5  and  C_12 
REMARK    6  A    between atoms: C_10  and  C_13 
REMARK    7  A    between atoms: C_13  and  C_14 
REMARK    8  A    between atoms: C_14  and  C_17 
REMARK    9  A    between atoms: C_14  and  C_18 
ROOT
HETATM    1  N   UNK N   1      34.974  19.080   8.284  0.00  0.00    -0.196 NA
HETATM    2  C   UNK N   1      33.607  16.964   7.505  0.00  0.00     0.104 C 
HETATM    3  C   UNK N   1      34.383  18.156   7.915  0.00  0.00     0.079 C 
ENDROOT
BRANCH   2   4
HETATM    4  C   UNK N   1      34.159  15.714   8.263  0.00  0.00     0.065 C 
BRANCH   4   5
HETATM    5  C   UNK N   1      34.723  15.915   9.709  0.00  0.00     0.275 C 
BRANCH   5   6
HETATM    6  N   UNK N   1      35.273  14.733  10.402  0.00  0.00     0.088 N 
HETATM    7  C   UNK N   1      35.688  15.045  11.766  0.00  0.00     0.274 C 
HETATM    8  C   UNK N   1      36.381  13.861  12.448  0.00  0.00     0.055 C 
HETATM    9  C   UNK N   1      36.227  12.494  11.752  0.00  0.00     0.078 C 
HETATM   10  C   UNK N   1      34.789  12.387  11.199  0.00  0.00     0.055 C 
HETATM   11  C   UNK N   1      34.329  13.608  10.361  0.00  0.00     0.274 C 
BRANCH   9  12
HETATM   12  C   UNK N   1      37.251  12.276  10.637  0.00  0.00    -0.040 A 
HETATM   13  C   UNK N   1      37.072  11.241   9.699  0.00  0.00     0.008 A 
HETATM   14  C   UNK N   1      38.043  10.994   8.721  0.00  0.00     0.001 A 
HETATM   15  C   UNK N   1      39.195  11.782   8.662  0.00  0.00     0.000 A 
HETATM   16  C   UNK N   1      39.380  12.816   9.582  0.00  0.00     0.001 A 
HETATM   17  C   UNK N   1      38.420  13.055  10.568  0.00  0.00     0.008 A 
ENDBRANCH   9  12
BRANCH   9  18
HETATM   18  C   UNK N   1      36.489  11.465  12.840  0.00  0.00     0.272 C 
HETATM   19  O   UNK N   1      37.391  11.658  13.643  0.00  0.00    -0.264 OA
BRANCH  18  20
HETATM   20  O   UNK N   1      35.684  10.390  13.012  0.00  0.00    -0.321 OA
BRANCH  20  21
HETATM   21  C   UNK N   1      35.128  10.110  14.246  0.00  0.00     0.174 C 
HETATM   22  C   UNK N   1      33.727  10.706  14.384  0.00  0.00     0.034 C 
ENDBRANCH  20  21
ENDBRANCH  18  20
ENDBRANCH   9  18
ENDBRANCH   5   6
ENDBRANCH   4   5
ENDBRANCH   2   4
BRANCH   2  23
HETATM   23  C   UNK N   1      33.641  16.716   5.995  0.00  0.00    -0.031 A 
HETATM   24  C   UNK N   1      33.053  17.628   5.095  0.00  0.00     0.009 A 
HETATM   25  C   UNK N   1      32.932  17.314   3.737  0.00  0.00     0.001 A 
HETATM   26  C   UNK N   1      33.363  16.073   3.260  0.00  0.00     0.000 A 
HETATM   27  C   UNK N   1      33.916  15.144   4.143  0.00  0.00     0.001 A 
HETATM   28  C   UNK N   1      34.041  15.458   5.500  0.00  0.00     0.009 A 
ENDBRANCH   2  23
BRANCH   2  29
HETATM   29  C   UNK N   1      32.150  17.286   7.852  0.00  0.00    -0.031 A 
HETATM   30  C   UNK N   1      31.801  18.342   8.711  0.00  0.00     0.009 A 
HETATM   31  C   UNK N   1      30.455  18.612   8.992  0.00  0.00     0.001 A 
HETATM   32  C   UNK N   1      29.444  17.838   8.412  0.00  0.00     0.000 A 
HETATM   33  C   UNK N   1      29.773  16.786   7.560  0.00  0.00     0.001 A 
HETATM   34  C   UNK N   1      31.112  16.509   7.287  0.00  0.00     0.009 A 
ENDBRANCH   2  29
TORSDOF 9
ENDMDL
MODEL 5
REMARK VINA RESULT:      -7.3     11.587     15.463
REMARK  9 active torsions:
REMARK  status: ('A' for Active; 'I' for Inactive)
REMARK    1  A    between atoms: O_1  and  C_12 
REMARK    2  A    between atoms: O_1  and  C_23 
REMARK    3  A    between atoms: N_3  and  C_10 
REMARK    4  A    between atoms: C_5  and  C_11 
REMARK    5  A    between atoms: C_5  and  C_12 
REMARK    6  A    between atoms: C_10  and  C_13 
REMARK    7  A    between atoms: C_13  and  C_14 
REMARK    8  A    between atoms: C_14  and  C_17 
REMARK    9  A    between atoms: C_14  and  C_18 
ROOT
HETATM    1  N   UNK N   1      34.400  18.381   7.907  0.00  0.00    -0.196 NA
HETATM    2  C   UNK N   1      32.553  16.628   7.223  0.00  0.00     0.104 C 
HETATM    3  C   UNK N   1      33.598  17.614   7.579  0.00  0.00     0.079 C 
ENDROOT
BRANCH   2   4
HETATM    4  C   UNK N   1      32.842  15.288   7.974  0.00  0.00     0.065 C 
BRANCH   4   5
HETATM    5  C   UNK N   1      33.255  15.361   9.482  0.00  0.00     0.275 C 
BRANCH   5   6
HETATM    6  N   UNK N   1      34.440  14.587   9.907  0.00  0.00     0.088 N 
HETATM    7  C   UNK N   1      34.669  13.428   9.050  0.00  0.00     0.274 C 
HETATM    8  C   UNK N   1      35.812  12.545   9.559  0.00  0.00     0.055 C 
HETATM    9  C   UNK N   1      36.720  13.170  10.639  0.00  0.00     0.078 C 
HETATM   10  C   UNK N   1      36.933  14.660  10.295  0.00  0.00     0.055 C 
HETATM   11  C   UNK N   1      35.629  15.445   9.996  0.00  0.00     0.274 C 
BRANCH   9  12
HETATM   12  C   UNK N   1      36.154  13.018  12.051  0.00  0.00    -0.040 A 
HETATM   13  C   UNK N   1      35.158  12.059  12.319  0.00  0.00     0.008 A 
HETATM   14  C   UNK N   1      34.587  11.966  13.594  0.00  0.00     0.001 A 
HETATM   15  C   UNK N   1      35.011  12.819  14.616  0.00  0.00     0.000 A 
HETATM   16  C   UNK N   1      36.004  13.769  14.364  0.00  0.00     0.001 A 
HETATM   17  C   UNK N   1      36.564  13.873  13.089  0.00  0.00     0.008 A 
ENDBRANCH   9  12
BRANCH   9  18
HETATM   18  C   UNK N   1      38.020  12.385  10.564  0.00  0.00     0.272 C 
HETATM   19  O   UNK N   1      38.033  11.213  10.912  0.00  0.00    -0.264 OA
BRANCH  18  20
HETATM   20  O   UNK N   1      39.142  12.915  10.023  0.00  0.00    -0.321 OA
BRANCH  20  21
HETATM   21  C   UNK N   1      39.697  12.381   8.876  0.00  0.00     0.174 C 
HETATM   22  C   UNK N   1      39.400  13.241   7.649  0.00  0.00     0.034 C 
ENDBRANCH  20  21
ENDBRANCH  18  20
ENDBRANCH   9  18
ENDBRANCH   5   6
ENDBRANCH   4   5
ENDBRANCH   2   4
BRANCH   2  23
HETATM   23  C   UNK N   1      32.457  16.372   5.717  0.00  0.00    -0.031 A 
HETATM   24  C   UNK N   1      32.352  15.062   5.208  0.00  0.00     0.009 A 
HETATM   25  C   UNK N   1      32.441  14.821   3.832  0.00  0.00     0.001 A 
HETATM   26  C   UNK N   1      32.670  15.877   2.946  0.00  0.00     0.000 A 
HETATM   27  C   UNK N   1      32.811  17.177   3.436  0.00  0.00     0.001 A 
HETATM   28  C   UNK N   1      32.719  17.419   4.810  0.00  0.00     0.009 A 
ENDBRANCH   2  23
BRANCH   2  29
HETATM   29  C   UNK N   1      31.225  17.275   7.631  0.00  0.00    -0.031 A 
HETATM   30  C   UNK N   1      30.031  17.042   6.926  0.00  0.00     0.009 A 
HETATM   31  C   UNK N   1      28.835  17.643   7.339  0.00  0.00     0.001 A 
HETATM   32  C   UNK N   1      28.816  18.475   8.464  0.00  0.00     0.000 A 
HETATM   33  C   UNK N   1      29.991  18.718   9.172  0.00  0.00     0.001 A 
HETATM   34  C   UNK N   1      31.184  18.129   8.757  0.00  0.00     0.009 A 
ENDBRANCH   2  29
TORSDOF 9
ENDMDL
MODEL 6
REMARK VINA RESULT:      -7.3     14.672     17.098
REMARK  9 active torsions:
REMARK  status: ('A' for Active; 'I' for Inactive)
REMARK    1  A    between atoms: O_1  and  C_12 
REMARK    2  A    between atoms: O_1  and  C_23 
REMARK    3  A    between atoms: N_3  and  C_10 
REMARK    4  A    between atoms: C_5  and  C_11 
REMARK    5  A    between atoms: C_5  and  C_12 
REMARK    6  A    between atoms: C_10  and  C_13 
REMARK    7  A    between atoms: C_13  and  C_14 
REMARK    8  A    between atoms: C_14  and  C_17 
REMARK    9  A    between atoms: C_14  and  C_18 
ROOT
HETATM    1  N   UNK N   1      33.804  19.322  -4.642  0.00  0.00    -0.196 NA
HETATM    2  C   UNK N   1      31.718  20.801  -5.284  0.00  0.00     0.104 C 
HETATM    3  C   UNK N   1      32.884  19.954  -4.946  0.00  0.00     0.079 C 
ENDROOT
BRANCH   2   4
HETATM    4  C   UNK N   1      30.722  20.797  -4.080  0.00  0.00     0.065 C 
BRANCH   4   5
HETATM    5  C   UNK N   1      30.684  22.054  -3.148  0.00  0.00     0.275 C 
BRANCH   5   6
HETATM    6  N   UNK N   1      29.689  23.103  -3.452  0.00  0.00     0.088 N 
HETATM    7  C   UNK N   1      28.626  23.151  -2.453  0.00  0.00     0.274 C 
HETATM    8  C   UNK N   1      27.521  24.143  -2.828  0.00  0.00     0.055 C 
HETATM    9  C   UNK N   1      27.858  25.136  -3.960  0.00  0.00     0.078 C 
HETATM   10  C   UNK N   1      29.329  25.578  -3.800  0.00  0.00     0.055 C 
HETATM   11  C   UNK N   1      30.336  24.411  -3.625  0.00  0.00     0.274 C 
BRANCH   9  12
HETATM   12  C   UNK N   1      27.618  24.551  -5.353  0.00  0.00    -0.040 A 
HETATM   13  C   UNK N   1      26.565  23.643  -5.571  0.00  0.00     0.008 A 
HETATM   14  C   UNK N   1      26.387  23.052  -6.828  0.00  0.00     0.001 A 
HETATM   15  C   UNK N   1      27.250  23.368  -7.880  0.00  0.00     0.000 A 
HETATM   16  C   UNK N   1      28.294  24.274  -7.677  0.00  0.00     0.001 A 
HETATM   17  C   UNK N   1      28.482  24.853  -6.420  0.00  0.00     0.008 A 
ENDBRANCH   9  12
BRANCH   9  18
HETATM   18  C   UNK N   1      26.897  26.298  -3.764  0.00  0.00     0.272 C 
HETATM   19  O   UNK N   1      26.205  26.340  -2.757  0.00  0.00    -0.264 OA
BRANCH  18  20
HETATM   20  O   UNK N   1      26.862  27.345  -4.622  0.00  0.00    -0.321 OA
BRANCH  20  21
HETATM   21  C   UNK N   1      25.660  27.911  -5.002  0.00  0.00     0.174 C 
HETATM   22  C   UNK N   1      24.860  26.982  -5.915  0.00  0.00     0.034 C 
ENDBRANCH  20  21
ENDBRANCH  18  20
ENDBRANCH   9  18
ENDBRANCH   5   6
ENDBRANCH   4   5
ENDBRANCH   2   4
BRANCH   2  23
HETATM   23  C   UNK N   1      30.998  20.352  -6.558  0.00  0.00    -0.031 A 
HETATM   24  C   UNK N   1      29.602  20.492  -6.692  0.00  0.00     0.009 A 
HETATM   25  C   UNK N   1      28.928  19.923  -7.779  0.00  0.00     0.001 A 
HETATM   26  C   UNK N   1      29.630  19.179  -8.731  0.00  0.00     0.000 A 
HETATM   27  C   UNK N   1      31.008  19.002  -8.595  0.00  0.00     0.001 A 
HETATM   28  C   UNK N   1      31.683  19.571  -7.512  0.00  0.00     0.009 A 
ENDBRANCH   2  23
BRANCH   2  29
HETATM   29  C   UNK N   1      32.295  22.188  -5.587  0.00  0.00    -0.031 A 
HETATM   30  C   UNK N   1      33.430  22.687  -4.925  0.00  0.00     0.009 A 
HETATM   31  C   UNK N   1      33.934  23.955  -5.240  0.00  0.00     0.001 A 
HETATM   32  C   UNK N   1      33.318  24.734  -6.225  0.00  0.00     0.000 A 
HETATM   33  C   UNK N   1      32.190  24.255  -6.889  0.00  0.00     0.001 A 
HETATM   34  C   UNK N   1      31.680  22.998  -6.569  0.00  0.00     0.009 A 
ENDBRANCH   2  29
TORSDOF 9
ENDMDL
MODEL 7
REMARK VINA RESULT:      -7.3      1.382      2.906
REMARK  9 active torsions:
REMARK  status: ('A' for Active; 'I' for Inactive)
REMARK    1  A    between atoms: O_1  and  C_12 
REMARK    2  A    between atoms: O_1  and  C_23 
REMARK    3  A    between atoms: N_3  and  C_10 
REMARK    4  A    between atoms: C_5  and  C_11 
REMARK    5  A    between atoms: C_5  and  C_12 
REMARK    6  A    between atoms: C_10  and  C_13 
REMARK    7  A    between atoms: C_13  and  C_14 
REMARK    8  A    between atoms: C_14  and  C_17 
REMARK    9  A    between atoms: C_14  and  C_18 
ROOT
HETATM    1  N   UNK N   1      19.945  14.544   8.770  0.00  0.00    -0.196 NA
HETATM    2  C   UNK N   1      22.158  13.291   8.075  0.00  0.00     0.104 C 
HETATM    3  C   UNK N   1      20.900  13.975   8.450  0.00  0.00     0.079 C 
ENDROOT
BRANCH   2   4
HETATM    4  C   UNK N   1      23.066  14.292   7.289  0.00  0.00     0.065 C 
BRANCH   4   5
HETATM    5  C   UNK N   1      22.390  15.537   6.625  0.00  0.00     0.275 C 
BRANCH   5   6
HETATM    6  N   UNK N   1      21.926  15.403   5.229  0.00  0.00     0.088 N 
HETATM    7  C   UNK N   1      20.503  15.085   5.155  0.00  0.00     0.274 C 
HETATM    8  C   UNK N   1      20.042  14.813   3.721  0.00  0.00     0.055 C 
HETATM    9  C   UNK N   1      21.017  15.238   2.604  0.00  0.00     0.078 C 
HETATM   10  C   UNK N   1      21.669  16.578   3.009  0.00  0.00     0.055 C 
HETATM   11  C   UNK N   1      22.260  16.599   4.443  0.00  0.00     0.274 C 
BRANCH   9  12
HETATM   12  C   UNK N   1      22.087  14.184   2.315  0.00  0.00    -0.040 A 
HETATM   13  C   UNK N   1      21.985  12.896   2.875  0.00  0.00     0.008 A 
HETATM   14  C   UNK N   1      22.998  11.951   2.671  0.00  0.00     0.001 A 
HETATM   15  C   UNK N   1      24.116  12.278   1.900  0.00  0.00     0.000 A 
HETATM   16  C   UNK N   1      24.224  13.549   1.334  0.00  0.00     0.001 A 
HETATM   17  C   UNK N   1      23.222  14.498   1.548  0.00  0.00     0.008 A 
ENDBRANCH   9  12
BRANCH   9  18
HETATM   18  C   UNK N   1      20.154  15.387   1.361  0.00  0.00     0.272 C 
HETATM   19  O   UNK N   1      20.530  16.117   0.455  0.00  0.00    -0.264 OA
BRANCH  18  20
HETATM   20  O   UNK N   1      19.031  14.652   1.182  0.00  0.00    -0.321 OA
BRANCH  20  21
HETATM   21  C   UNK N   1      18.921  13.772   0.123  0.00  0.00     0.174 C 
HETATM   22  C   UNK N   1      19.265  12.342   0.537  0.00  0.00     0.034 C 
ENDBRANCH  20  21
ENDBRANCH  18  20
ENDBRANCH   9  18
ENDBRANCH   5   6
ENDBRANCH   4   5
ENDBRANCH   2   4
BRANCH   2  23
HETATM   23  C   UNK N   1      21.929  12.028   7.239  0.00  0.00    -0.031 A 
HETATM   24  C   UNK N   1      22.965  11.095   7.034  0.00  0.00     0.009 A 
HETATM   25  C   UNK N   1      22.804  10.037   6.131  0.00  0.00     0.001 A 
HETATM   26  C   UNK N   1      21.624   9.913   5.395  0.00  0.00     0.000 A 
HETATM   27  C   UNK N   1      20.601  10.849   5.561  0.00  0.00     0.001 A 
HETATM   28  C   UNK N   1      20.758  11.904   6.464  0.00  0.00     0.009 A 
ENDBRANCH   2  23
BRANCH   2  29
HETATM   29  C   UNK N   1      22.777  12.822   9.395  0.00  0.00    -0.031 A 
HETATM   30  C   UNK N   1      21.998  12.316  10.449  0.00  0.00     0.009 A 
HETATM   31  C   UNK N   1      22.604  11.885  11.636  0.00  0.00     0.001 A 
HETATM   32  C   UNK N   1      23.994  11.945  11.781  0.00  0.00     0.000 A 
HETATM   33  C   UNK N   1      24.782  12.447  10.746  0.00  0.00     0.001 A 
HETATM   34  C   UNK N   1      24.179  12.886   9.568  0.00  0.00     0.009 A 
ENDBRANCH   2  29
TORSDOF 9
ENDMDL
MODEL 8
REMARK VINA RESULT:      -7.2     15.580     17.867
REMARK  9 active torsions:
REMARK  status: ('A' for Active; 'I' for Inactive)
REMARK    1  A    between atoms: O_1  and  C_12 
REMARK    2  A    between atoms: O_1  and  C_23 
REMARK    3  A    between atoms: N_3  and  C_10 
REMARK    4  A    between atoms: C_5  and  C_11 
REMARK    5  A    between atoms: C_5  and  C_12 
REMARK    6  A    between atoms: C_10  and  C_13 
REMARK    7  A    between atoms: C_13  and  C_14 
REMARK    8  A    between atoms: C_14  and  C_17 
REMARK    9  A    between atoms: C_14  and  C_18 
ROOT
HETATM    1  N   UNK N   1      29.517  24.127  -9.097  0.00  0.00    -0.196 NA
HETATM    2  C   UNK N   1      29.118  22.399  -7.146  0.00  0.00     0.104 C 
HETATM    3  C   UNK N   1      29.357  23.386  -8.224  0.00  0.00     0.079 C 
ENDROOT
BRANCH   2   4
HETATM    4  C   UNK N   1      27.578  22.265  -6.913  0.00  0.00     0.065 C 
BRANCH   4   5
HETATM    5  C   UNK N   1      26.664  23.474  -7.304  0.00  0.00     0.275 C 
BRANCH   5   6
HETATM    6  N   UNK N   1      26.642  24.639  -6.395  0.00  0.00     0.088 N 
HETATM    7  C   UNK N   1      25.572  25.573  -6.733  0.00  0.00     0.274 C 
HETATM    8  C   UNK N   1      25.622  26.846  -5.884  0.00  0.00     0.055 C 
HETATM    9  C   UNK N   1      26.529  26.793  -4.637  0.00  0.00     0.078 C 
HETATM   10  C   UNK N   1      26.398  25.392  -3.998  0.00  0.00     0.055 C 
HETATM   11  C   UNK N   1      26.573  24.214  -4.991  0.00  0.00     0.274 C 
BRANCH   9  12
HETATM   12  C   UNK N   1      27.992  27.108  -4.952  0.00  0.00    -0.040 A 
HETATM   13  C   UNK N   1      28.982  26.950  -3.963  0.00  0.00     0.008 A 
HETATM   14  C   UNK N   1      30.311  27.306  -4.227  0.00  0.00     0.001 A 
HETATM   15  C   UNK N   1      30.666  27.811  -5.479  0.00  0.00     0.000 A 
HETATM   16  C   UNK N   1      29.694  27.965  -6.470  0.00  0.00     0.001 A 
HETATM   17  C   UNK N   1      28.365  27.624  -6.205  0.00  0.00     0.008 A 
ENDBRANCH   9  12
BRANCH   9  18
HETATM   18  C   UNK N   1      25.999  27.881  -3.717  0.00  0.00     0.272 C 
HETATM   19  O   UNK N   1      25.770  27.616  -2.545  0.00  0.00    -0.264 OA
BRANCH  18  20
HETATM   20  O   UNK N   1      25.874  29.164  -4.130  0.00  0.00    -0.321 OA
BRANCH  20  21
HETATM   21  C   UNK N   1      26.586  30.179  -3.518  0.00  0.00     0.174 C 
HETATM   22  C   UNK N   1      27.603  30.810  -4.469  0.00  0.00     0.034 C 
ENDBRANCH  20  21
ENDBRANCH  18  20
ENDBRANCH   9  18
ENDBRANCH   5   6
ENDBRANCH   4   5
ENDBRANCH   2   4
BRANCH   2  23
HETATM   23  C   UNK N   1      29.815  22.763  -5.832  0.00  0.00    -0.031 A 
HETATM   24  C   UNK N   1      30.711  23.848  -5.762  0.00  0.00     0.009 A 
HETATM   25  C   UNK N   1      31.476  24.069  -4.611  0.00  0.00     0.001 A 
HETATM   26  C   UNK N   1      31.384  23.193  -3.526  0.00  0.00     0.000 A 
HETATM   27  C   UNK N   1      30.527  22.094  -3.593  0.00  0.00     0.001 A 
HETATM   28  C   UNK N   1      29.760  21.873  -4.740  0.00  0.00     0.009 A 
ENDBRANCH   2  23
BRANCH   2  29
HETATM   29  C   UNK N   1      29.771  21.100  -7.630  0.00  0.00    -0.031 A 
HETATM   30  C   UNK N   1      29.057  19.894  -7.728  0.00  0.00     0.009 A 
HETATM   31  C   UNK N   1      29.688  18.731  -8.187  0.00  0.00     0.001 A 
HETATM   32  C   UNK N   1      31.036  18.761  -8.561  0.00  0.00     0.000 A 
HETATM   33  C   UNK N   1      31.760  19.948  -8.468  0.00  0.00     0.001 A 
HETATM   34  C   UNK N   1      31.136  21.104  -8.001  0.00  0.00     0.009 A 
ENDBRANCH   2  29
TORSDOF 9
ENDMDL
MODEL 9
REMARK VINA RESULT:      -7.2      1.169      3.301
REMARK  9 active torsions:
REMARK  status: ('A' for Active; 'I' for Inactive)
REMARK    1  A    between atoms: O_1  and  C_12 
REMARK    2  A    between atoms: O_1  and  C_23 
REMARK    3  A    between atoms: N_3  and  C_10 
REMARK    4  A    between atoms: C_5  and  C_11 
REMARK    5  A    between atoms: C_5  and  C_12 
REMARK    6  A    between atoms: C_10  and  C_13 
REMARK    7  A    between atoms: C_13  and  C_14 
REMARK    8  A    between atoms: C_14  and  C_17 
REMARK    9  A    between atoms: C_14  and  C_18 
ROOT
HETATM    1  N   UNK N   1      19.742  14.563   9.025  0.00  0.00    -0.196 NA
HETATM    2  C   UNK N   1      21.987  13.425   8.238  0.00  0.00     0.104 C 
HETATM    3  C   UNK N   1      20.711  14.045   8.663  0.00  0.00     0.079 C 
ENDROOT
BRANCH   2   4
HETATM    4  C   UNK N   1      22.861  14.503   7.521  0.00  0.00     0.065 C 
BRANCH   4   5
HETATM    5  C   UNK N   1      23.152  14.322   5.993  0.00  0.00     0.275 C 
BRANCH   5   6
HETATM    6  N   UNK N   1      22.332  15.099   5.042  0.00  0.00     0.088 N 
HETATM    7  C   UNK N   1      21.330  15.913   5.724  0.00  0.00     0.274 C 
HETATM    8  C   UNK N   1      20.389  16.619   4.744  0.00  0.00     0.055 C 
HETATM    9  C   UNK N   1      20.839  16.639   3.268  0.00  0.00     0.078 C 
HETATM   10  C   UNK N   1      22.368  16.855   3.228  0.00  0.00     0.055 C 
HETATM   11  C   UNK N   1      23.176  15.906   4.151  0.00  0.00     0.274 C 
BRANCH   9  12
HETATM   12  C   UNK N   1      20.454  15.368   2.511  0.00  0.00    -0.040 A 
HETATM   13  C   UNK N   1      19.483  14.494   3.037  0.00  0.00     0.008 A 
HETATM   14  C   UNK N   1      19.179  13.294   2.383  0.00  0.00     0.001 A 
HETATM   15  C   UNK N   1      19.833  12.959   1.195  0.00  0.00     0.000 A 
HETATM   16  C   UNK N   1      20.793  13.821   0.660  0.00  0.00     0.001 A 
HETATM   17  C   UNK N   1      21.107  15.011   1.319  0.00  0.00     0.008 A 
ENDBRANCH   9  12
BRANCH   9  18
HETATM   18  C   UNK N   1      20.091  17.806   2.643  0.00  0.00     0.272 C 
HETATM   19  O   UNK N   1      18.976  18.093   3.056  0.00  0.00    -0.264 OA
BRANCH  18  20
HETATM   20  O   UNK N   1      20.666  18.604   1.713  0.00  0.00    -0.321 OA
BRANCH  20  21
HETATM   21  C   UNK N   1      20.653  19.979   1.853  0.00  0.00     0.174 C 
HETATM   22  C   UNK N   1      21.863  20.478   2.643  0.00  0.00     0.034 C 
ENDBRANCH  20  21
ENDBRANCH  18  20
ENDBRANCH   9  18
ENDBRANCH   5   6
ENDBRANCH   4   5
ENDBRANCH   2   4
BRANCH   2  23
HETATM   23  C   UNK N   1      21.789  12.217   7.318  0.00  0.00    -0.031 A 
HETATM   24  C   UNK N   1      22.804  11.253   7.157  0.00  0.00     0.009 A 
HETATM   25  C   UNK N   1      22.689  10.250   6.187  0.00  0.00     0.001 A 
HETATM   26  C   UNK N   1      21.577  10.213   5.342  0.00  0.00     0.000 A 
HETATM   27  C   UNK N   1      20.579  11.180   5.465  0.00  0.00     0.001 A 
HETATM   28  C   UNK N   1      20.690  12.181   6.436  0.00  0.00     0.009 A 
ENDBRANCH   2  23
BRANCH   2  29
HETATM   29  C   UNK N   1      22.626  12.884   9.521  0.00  0.00    -0.031 A 
HETATM   30  C   UNK N   1      21.858  12.368  10.580  0.00  0.00     0.009 A 
HETATM   31  C   UNK N   1      22.482  11.871  11.731  0.00  0.00     0.001 A 
HETATM   32  C   UNK N   1      23.877  11.874  11.834  0.00  0.00     0.000 A 
HETATM   33  C   UNK N   1      24.653  12.384  10.795  0.00  0.00     0.001 A 
HETATM   34  C   UNK N   1      24.033  12.889   9.653  0.00  0.00     0.009 A 
ENDBRANCH   2  29
TORSDOF 9
ENDMDL
