MODEL 1
REMARK VINA RESULT:      -5.3      0.000      0.000
REMARK  5 active torsions:
REMARK  status: ('A' for Active; 'I' for Inactive)
REMARK    1  A    between atoms: N_2  and  C_6 
REMARK    2  A    between atoms: C_3  and  C_6 
REMARK    3  A    between atoms: C_3  and  C_8 
REMARK    4  A    between atoms: C_6  and  C_9 
REMARK    5  A    between atoms: C_9  and  C_10 
ROOT
HETATM    1  C   UNK N   1      27.783  24.498  -4.644  0.00  0.00     0.018 A 
HETATM    2  C   UNK N   1      26.929  24.423  -3.381  0.00  0.00     0.016 A 
HETATM    3  C   UNK N   1      28.924  23.805  -3.917  0.00  0.00     0.016 A 
HETATM    4  C   UNK N   1      28.059  23.693  -2.672  0.00  0.00     0.002 A 
ENDROOT
BRANCH   1   5
HETATM    5  C   UNK N   1      28.109  25.971  -5.074  0.00  0.00     0.235 C 
BRANCH   5   6
HETATM    6  N   UNK N   1      29.459  26.413  -4.653  0.00  0.00     0.085 N 
HETATM    7  C   UNK N   1      29.391  27.654  -3.889  0.00  0.00     0.309 C 
HETATM    8  C   UNK N   1      30.266  26.741  -5.818  0.00  0.00     0.309 C 
ENDBRANCH   5   6
BRANCH   5   9
HETATM    9  C   UNK N   1      27.027  26.935  -4.556  0.00  0.00     0.041 C 
BRANCH   9  10
HETATM   10  C   UNK N   1      26.223  27.485  -5.728  0.00  0.00    -0.021 C 
HETATM   11  C   UNK N   1      26.830  27.023  -7.034  0.00  0.00     0.009 C 
HETATM   12  C   UNK N   1      24.780  27.020  -5.654  0.00  0.00     0.009 C 
ENDBRANCH   9  10
ENDBRANCH   5   9
ENDBRANCH   1   5
BRANCH   1  13
HETATM   13  C   UNK N   1      27.263  23.613  -5.766  0.00  0.00    -0.047 A 
HETATM   14  C   UNK N   1      28.157  22.920  -6.604  0.00  0.00     0.010 A 
HETATM   15  C   UNK N   1      27.683  22.085  -7.615  0.00  0.00     0.024 A 
HETATM   16  C   UNK N   1      26.308  21.928  -7.802  0.00  0.00     0.034 A 
HETATM   17 Cl   UNK N   1      25.718  20.870  -9.064  0.00  0.00    -0.084 Cl
HETATM   18  C   UNK N   1      25.409  22.613  -6.978  0.00  0.00     0.024 A 
HETATM   19  C   UNK N   1      25.882  23.452  -5.966  0.00  0.00     0.010 A 
ENDBRANCH   1  13
TORSDOF 5
ENDMDL
MODEL 2
REMARK VINA RESULT:      -5.2     13.771     16.232
REMARK  5 active torsions:
REMARK  status: ('A' for Active; 'I' for Inactive)
REMARK    1  A    between atoms: N_2  and  C_6 
REMARK    2  A    between atoms: C_3  and  C_6 
REMARK    3  A    between atoms: C_3  and  C_8 
REMARK    4  A    between atoms: C_6  and  C_9 
REMARK    5  A    between atoms: C_9  and  C_10 
ROOT
HETATM    1  C   UNK N   1      32.042  16.506   5.661  0.00  0.00     0.018 A 
HETATM    2  C   UNK N   1      32.290  17.639   4.669  0.00  0.00     0.016 A 
HETATM    3  C   UNK N   1      32.625  15.509   4.673  0.00  0.00     0.016 A 
HETATM    4  C   UNK N   1      32.911  16.643   3.702  0.00  0.00     0.002 A 
ENDROOT
BRANCH   1   5
HETATM    5  C   UNK N   1      30.519  16.280   5.961  0.00  0.00     0.235 C 
BRANCH   5   6
HETATM    6  N   UNK N   1      29.751  15.841   4.773  0.00  0.00     0.085 N 
HETATM    7  C   UNK N   1      28.728  16.818   4.417  0.00  0.00     0.309 C 
HETATM    8  C   UNK N   1      29.011  14.626   5.075  0.00  0.00     0.309 C 
ENDBRANCH   5   6
BRANCH   5   9
HETATM    9  C   UNK N   1      29.899  17.546   6.581  0.00  0.00     0.041 C 
BRANCH   9  10
HETATM   10  C   UNK N   1      29.627  17.314   8.063  0.00  0.00    -0.021 C 
HETATM   11  C   UNK N   1      30.373  18.334   8.893  0.00  0.00     0.009 C 
HETATM   12  C   UNK N   1      28.142  17.417   8.358  0.00  0.00     0.009 C 
ENDBRANCH   9  10
ENDBRANCH   5   9
ENDBRANCH   1   5
BRANCH   1  13
HETATM   13  C   UNK N   1      32.923  16.594   6.897  0.00  0.00    -0.047 A 
HETATM   14  C   UNK N   1      33.658  17.762   7.172  0.00  0.00     0.010 A 
HETATM   15  C   UNK N   1      34.443  17.856   8.320  0.00  0.00     0.024 A 
HETATM   16  C   UNK N   1      34.504  16.784   9.213  0.00  0.00     0.034 A 
HETATM   17 Cl   UNK N   1      35.480  16.910  10.658  0.00  0.00    -0.084 Cl
HETATM   18  C   UNK N   1      33.780  15.616   8.951  0.00  0.00     0.024 A 
HETATM   19  C   UNK N   1      32.995  15.519   7.799  0.00  0.00     0.010 A 
ENDBRANCH   1  13
TORSDOF 5
ENDMDL
MODEL 3
REMARK VINA RESULT:      -5.2      2.481      3.812
REMARK  5 active torsions:
REMARK  status: ('A' for Active; 'I' for Inactive)
REMARK    1  A    between atoms: N_2  and  C_6 
REMARK    2  A    between atoms: C_3  and  C_6 
REMARK    3  A    between atoms: C_3  and  C_8 
REMARK    4  A    between atoms: C_6  and  C_9 
REMARK    5  A    between atoms: C_9  and  C_10 
ROOT
HETATM    1  C   UNK N   1      27.466  24.651  -4.916  0.00  0.00     0.018 A 
HETATM    2  C   UNK N   1      27.017  24.138  -6.281  0.00  0.00     0.016 A 
HETATM    3  C   UNK N   1      26.192  24.110  -4.289  0.00  0.00     0.016 A 
HETATM    4  C   UNK N   1      25.764  23.561  -5.641  0.00  0.00     0.002 A 
ENDROOT
BRANCH   1   5
HETATM    5  C   UNK N   1      27.583  26.215  -4.859  0.00  0.00     0.235 C 
BRANCH   5   6
HETATM    6  N   UNK N   1      28.980  26.697  -4.949  0.00  0.00     0.085 N 
HETATM    7  C   UNK N   1      29.364  27.426  -3.744  0.00  0.00     0.309 C 
HETATM    8  C   UNK N   1      29.108  27.668  -6.024  0.00  0.00     0.309 C 
ENDBRANCH   5   6
BRANCH   5   9
HETATM    9  C   UNK N   1      26.892  26.760  -3.595  0.00  0.00     0.041 C 
BRANCH   9  10
HETATM   10  C   UNK N   1      25.739  27.674  -3.992  0.00  0.00    -0.021 C 
HETATM   11  C   UNK N   1      26.147  29.121  -3.834  0.00  0.00     0.009 C 
HETATM   12  C   UNK N   1      25.327  27.424  -5.432  0.00  0.00     0.009 C 
ENDBRANCH   9  10
ENDBRANCH   5   9
ENDBRANCH   1   5
BRANCH   1  13
HETATM   13  C   UNK N   1      28.675  23.908  -4.369  0.00  0.00    -0.047 A 
HETATM   14  C   UNK N   1      28.825  23.704  -2.985  0.00  0.00     0.010 A 
HETATM   15  C   UNK N   1      29.917  22.997  -2.483  0.00  0.00     0.024 A 
HETATM   16  C   UNK N   1      30.875  22.482  -3.358  0.00  0.00     0.034 A 
HETATM   17 Cl   UNK N   1      32.237  21.585  -2.726  0.00  0.00    -0.084 Cl
HETATM   18  C   UNK N   1      30.740  22.680  -4.736  0.00  0.00     0.024 A 
HETATM   19  C   UNK N   1      29.648  23.390  -5.241  0.00  0.00     0.010 A 
ENDBRANCH   1  13
TORSDOF 5
ENDMDL
MODEL 4
REMARK VINA RESULT:      -5.1      3.110      5.249
REMARK  5 active torsions:
REMARK  status: ('A' for Active; 'I' for Inactive)
REMARK    1  A    between atoms: N_2  and  C_6 
REMARK    2  A    between atoms: C_3  and  C_6 
REMARK    3  A    between atoms: C_3  and  C_8 
REMARK    4  A    between atoms: C_6  and  C_9 
REMARK    5  A    between atoms: C_9  and  C_10 
ROOT
HETATM    1  C   UNK N   1      27.496  25.108  -4.585  0.00  0.00     0.018 A 
HETATM    2  C   UNK N   1      28.884  24.649  -4.147  0.00  0.00     0.016 A 
HETATM    3  C   UNK N   1      26.865  24.235  -3.512  0.00  0.00     0.016 A 
HETATM    4  C   UNK N   1      28.250  23.811  -3.048  0.00  0.00     0.002 A 
ENDROOT
BRANCH   1   5
HETATM    5  C   UNK N   1      27.139  24.666  -6.048  0.00  0.00     0.235 C 
BRANCH   5   6
HETATM    6  N   UNK N   1      27.077  23.195  -6.212  0.00  0.00     0.085 N 
HETATM    7  C   UNK N   1      28.013  22.740  -7.234  0.00  0.00     0.309 C 
HETATM    8  C   UNK N   1      25.768  22.801  -6.708  0.00  0.00     0.309 C 
ENDBRANCH   5   6
BRANCH   5   9
HETATM    9  C   UNK N   1      28.124  25.291  -7.054  0.00  0.00     0.041 C 
BRANCH   9  10
HETATM   10  C   UNK N   1      27.389  26.291  -7.939  0.00  0.00    -0.021 C 
HETATM   11  C   UNK N   1      25.898  26.187  -7.712  0.00  0.00     0.009 C 
HETATM   12  C   UNK N   1      27.844  27.708  -7.640  0.00  0.00     0.009 C 
ENDBRANCH   9  10
ENDBRANCH   5   9
ENDBRANCH   1   5
BRANCH   1  13
HETATM   13  C   UNK N   1      27.233  26.575  -4.288  0.00  0.00    -0.047 A 
HETATM   14  C   UNK N   1      25.919  27.080  -4.273  0.00  0.00     0.010 A 
HETATM   15  C   UNK N   1      25.674  28.418  -3.971  0.00  0.00     0.024 A 
HETATM   16  C   UNK N   1      26.737  29.273  -3.676  0.00  0.00     0.034 A 
HETATM   17 Cl   UNK N   1      26.424  30.949  -3.287  0.00  0.00    -0.084 Cl
HETATM   18  C   UNK N   1      28.049  28.786  -3.690  0.00  0.00     0.024 A 
HETATM   19  C   UNK N   1      28.297  27.445  -3.995  0.00  0.00     0.010 A 
ENDBRANCH   1  13
TORSDOF 5
ENDMDL
MODEL 5
REMARK VINA RESULT:      -5.1     25.126     27.488
REMARK  5 active torsions:
REMARK  status: ('A' for Active; 'I' for Inactive)
REMARK    1  A    between atoms: N_2  and  C_6 
REMARK    2  A    between atoms: C_3  and  C_6 
REMARK    3  A    between atoms: C_3  and  C_8 
REMARK    4  A    between atoms: C_6  and  C_9 
REMARK    5  A    between atoms: C_9  and  C_10 
ROOT
HETATM    1  C   UNK N   1      35.445  10.852  15.152  0.00  0.00     0.018 A 
HETATM    2  C   UNK N   1      33.957  10.532  15.048  0.00  0.00     0.016 A 
HETATM    3  C   UNK N   1      35.514  11.038  13.645  0.00  0.00     0.016 A 
HETATM    4  C   UNK N   1      34.022  10.760  13.546  0.00  0.00     0.002 A 
ENDROOT
BRANCH   1   5
HETATM    5  C   UNK N   1      36.295   9.644  15.678  0.00  0.00     0.235 C 
BRANCH   5   6
HETATM    6  N   UNK N   1      37.165   9.048  14.638  0.00  0.00     0.085 N 
HETATM    7  C   UNK N   1      36.867   7.632  14.450  0.00  0.00     0.309 C 
HETATM    8  C   UNK N   1      38.554   9.078  15.069  0.00  0.00     0.309 C 
ENDBRANCH   5   6
BRANCH   5   9
HETATM    9  C   UNK N   1      35.380   8.577  16.308  0.00  0.00     0.041 C 
BRANCH   9  10
HETATM   10  C   UNK N   1      35.539   8.593  17.824  0.00  0.00    -0.021 C 
HETATM   11  C   UNK N   1      36.734   9.435  18.211  0.00  0.00     0.009 C 
HETATM   12  C   UNK N   1      34.294   9.154  18.488  0.00  0.00     0.009 C 
ENDBRANCH   9  10
ENDBRANCH   5   9
ENDBRANCH   1   5
BRANCH   1  13
HETATM   13  C   UNK N   1      35.722  12.172  15.855  0.00  0.00    -0.047 A 
HETATM   14  C   UNK N   1      36.626  13.100  15.306  0.00  0.00     0.010 A 
HETATM   15  C   UNK N   1      36.859  14.323  15.933  0.00  0.00     0.024 A 
HETATM   16  C   UNK N   1      36.190  14.639  17.117  0.00  0.00     0.034 A 
HETATM   17 Cl   UNK N   1      36.477  16.180  17.894  0.00  0.00    -0.084 Cl
HETATM   18  C   UNK N   1      35.290  13.725  17.675  0.00  0.00     0.024 A 
HETATM   19  C   UNK N   1      35.057  12.497  17.049  0.00  0.00     0.010 A 
ENDBRANCH   1  13
TORSDOF 5
ENDMDL
MODEL 6
REMARK VINA RESULT:      -5.1     15.001     17.745
REMARK  5 active torsions:
REMARK  status: ('A' for Active; 'I' for Inactive)
REMARK    1  A    between atoms: N_2  and  C_6 
REMARK    2  A    between atoms: C_3  and  C_6 
REMARK    3  A    between atoms: C_3  and  C_8 
REMARK    4  A    between atoms: C_6  and  C_9 
REMARK    5  A    between atoms: C_9  and  C_10 
ROOT
HETATM    1  C   UNK N   1      32.660  16.714   8.109  0.00  0.00     0.018 A 
HETATM    2  C   UNK N   1      31.181  16.611   8.473  0.00  0.00     0.016 A 
HETATM    3  C   UNK N   1      32.574  18.230   8.174  0.00  0.00     0.016 A 
HETATM    4  C   UNK N   1      31.112  18.126   8.577  0.00  0.00     0.002 A 
ENDROOT
BRANCH   1   5
HETATM    5  C   UNK N   1      32.977  16.160   6.676  0.00  0.00     0.235 C 
BRANCH   5   6
HETATM    6  N   UNK N   1      33.874  14.981   6.694  0.00  0.00     0.085 N 
HETATM    7  C   UNK N   1      35.151  15.283   6.056  0.00  0.00     0.309 C 
HETATM    8  C   UNK N   1      33.307  13.907   5.895  0.00  0.00     0.309 C 
ENDBRANCH   5   6
BRANCH   5   9
HETATM    9  C   UNK N   1      33.551  17.276   5.784  0.00  0.00     0.041 C 
BRANCH   9  10
HETATM   10  C   UNK N   1      32.633  17.502   4.588  0.00  0.00    -0.021 C 
HETATM   11  C   UNK N   1      33.131  16.716   3.396  0.00  0.00     0.009 C 
HETATM   12  C   UNK N   1      31.213  17.074   4.913  0.00  0.00     0.009 C 
ENDBRANCH   9  10
ENDBRANCH   5   9
ENDBRANCH   1   5
BRANCH   1  13
HETATM   13  C   UNK N   1      33.579  16.194   9.204  0.00  0.00    -0.047 A 
HETATM   14  C   UNK N   1      34.719  16.924   9.589  0.00  0.00     0.010 A 
HETATM   15  C   UNK N   1      35.547  16.464  10.612  0.00  0.00     0.024 A 
HETATM   16  C   UNK N   1      35.246  15.270  11.269  0.00  0.00     0.034 A 
HETATM   17 Cl   UNK N   1      36.280  14.703  12.561  0.00  0.00    -0.084 Cl
HETATM   18  C   UNK N   1      34.117  14.532  10.895  0.00  0.00     0.024 A 
HETATM   19  C   UNK N   1      33.288  14.990   9.868  0.00  0.00     0.010 A 
ENDBRANCH   1  13
TORSDOF 5
ENDMDL
MODEL 7
REMARK VINA RESULT:      -5.0     11.962     14.222
REMARK  5 active torsions:
REMARK  status: ('A' for Active; 'I' for Inactive)
REMARK    1  A    between atoms: N_2  and  C_6 
REMARK    2  A    between atoms: C_3  and  C_6 
REMARK    3  A    between atoms: C_3  and  C_8 
REMARK    4  A    between atoms: C_6  and  C_9 
REMARK    5  A    between atoms: C_9  and  C_10 
ROOT
HETATM    1  C   UNK N   1      29.301  16.714   4.844  0.00  0.00     0.018 A 
HETATM    2  C   UNK N   1      28.842  15.493   5.635  0.00  0.00     0.016 A 
HETATM    3  C   UNK N   1      28.608  16.176   3.603  0.00  0.00     0.016 A 
HETATM    4  C   UNK N   1      28.115  14.979   4.401  0.00  0.00     0.002 A 
ENDROOT
BRANCH   1   5
HETATM    5  C   UNK N   1      30.861  16.803   4.708  0.00  0.00     0.235 C 
BRANCH   5   6
HETATM    6  N   UNK N   1      31.377  16.139   3.488  0.00  0.00     0.085 N 
HETATM    7  C   UNK N   1      32.049  14.886   3.816  0.00  0.00     0.309 C 
HETATM    8  C   UNK N   1      32.405  16.959   2.867  0.00  0.00     0.309 C 
ENDBRANCH   5   6
BRANCH   5   9
HETATM    9  C   UNK N   1      31.544  16.245   5.970  0.00  0.00     0.041 C 
BRANCH   9  10
HETATM   10  C   UNK N   1      32.170  17.386   6.763  0.00  0.00    -0.021 C 
HETATM   11  C   UNK N   1      31.880  17.212   8.237  0.00  0.00     0.009 C 
HETATM   12  C   UNK N   1      33.673  17.427   6.550  0.00  0.00     0.009 C 
ENDBRANCH   9  10
ENDBRANCH   5   9
ENDBRANCH   1   5
BRANCH   1  13
HETATM   13  C   UNK N   1      28.633  18.002   5.299  0.00  0.00    -0.047 A 
HETATM   14  C   UNK N   1      28.085  18.896   4.359  0.00  0.00     0.010 A 
HETATM   15  C   UNK N   1      27.446  20.063   4.775  0.00  0.00     0.024 A 
HETATM   16  C   UNK N   1      27.342  20.354   6.137  0.00  0.00     0.034 A 
HETATM   17 Cl   UNK N   1      26.529  21.813   6.655  0.00  0.00    -0.084 Cl
HETATM   18  C   UNK N   1      27.884  19.476   7.081  0.00  0.00     0.024 A 
HETATM   19  C   UNK N   1      28.528  18.307   6.667  0.00  0.00     0.010 A 
ENDBRANCH   1  13
TORSDOF 5
ENDMDL
MODEL 8
REMARK VINA RESULT:      -5.0     11.785     14.481
REMARK  5 active torsions:
REMARK  status: ('A' for Active; 'I' for Inactive)
REMARK    1  A    between atoms: N_2  and  C_6 
REMARK    2  A    between atoms: C_3  and  C_6 
REMARK    3  A    between atoms: C_3  and  C_8 
REMARK    4  A    between atoms: C_6  and  C_9 
REMARK    5  A    between atoms: C_9  and  C_10 
ROOT
HETATM    1  C   UNK N   1      29.801  16.334   4.861  0.00  0.00     0.018 A 
HETATM    2  C   UNK N   1      30.085  16.387   3.363  0.00  0.00     0.016 A 
HETATM    3  C   UNK N   1      29.788  14.815   4.809  0.00  0.00     0.016 A 
HETATM    4  C   UNK N   1      30.112  14.867   3.324  0.00  0.00     0.002 A 
ENDROOT
BRANCH   1   5
HETATM    5  C   UNK N   1      28.417  16.965   5.244  0.00  0.00     0.235 C 
BRANCH   5   6
HETATM    6  N   UNK N   1      27.367  15.951   5.502  0.00  0.00     0.085 N 
HETATM    7  C   UNK N   1      26.182  16.203   4.690  0.00  0.00     0.309 C 
HETATM    8  C   UNK N   1      26.902  16.049   6.876  0.00  0.00     0.309 C 
ENDBRANCH   5   6
BRANCH   5   9
HETATM    9  C   UNK N   1      27.963  17.964   4.163  0.00  0.00     0.041 C 
BRANCH   9  10
HETATM   10  C   UNK N   1      28.095  19.388   4.691  0.00  0.00    -0.021 C 
HETATM   11  C   UNK N   1      27.022  20.265   4.087  0.00  0.00     0.009 C 
HETATM   12  C   UNK N   1      27.969  19.413   6.204  0.00  0.00     0.009 C 
ENDBRANCH   9  10
ENDBRANCH   5   9
ENDBRANCH   1   5
BRANCH   1  13
HETATM   13  C   UNK N   1      30.970  16.818   5.705  0.00  0.00    -0.047 A 
HETATM   14  C   UNK N   1      32.222  17.073   5.117  0.00  0.00     0.010 A 
HETATM   15  C   UNK N   1      33.286  17.545   5.883  0.00  0.00     0.024 A 
HETATM   16  C   UNK N   1      33.115  17.773   7.250  0.00  0.00     0.034 A 
HETATM   17 Cl   UNK N   1      34.449  18.377   8.206  0.00  0.00    -0.084 Cl
HETATM   18  C   UNK N   1      31.876  17.522   7.849  0.00  0.00     0.024 A 
HETATM   19  C   UNK N   1      30.808  17.046   7.083  0.00  0.00     0.010 A 
ENDBRANCH   1  13
TORSDOF 5
ENDMDL
MODEL 9
REMARK VINA RESULT:      -4.9     13.743     16.619
REMARK  5 active torsions:
REMARK  status: ('A' for Active; 'I' for Inactive)
REMARK    1  A    between atoms: N_2  and  C_6 
REMARK    2  A    between atoms: C_3  and  C_6 
REMARK    3  A    between atoms: C_3  and  C_8 
REMARK    4  A    between atoms: C_6  and  C_9 
REMARK    5  A    between atoms: C_9  and  C_10 
ROOT
HETATM    1  C   UNK N   1      30.735  17.534   8.283  0.00  0.00     0.018 A 
HETATM    2  C   UNK N   1      29.589  17.078   9.182  0.00  0.00     0.016 A 
HETATM    3  C   UNK N   1      30.625  18.940   8.851  0.00  0.00     0.016 A 
HETATM    4  C   UNK N   1      29.512  18.476   9.777  0.00  0.00     0.002 A 
ENDROOT
BRANCH   1   5
HETATM    5  C   UNK N   1      30.388  17.441   6.756  0.00  0.00     0.235 C 
BRANCH   5   6
HETATM    6  N   UNK N   1      28.988  17.027   6.502  0.00  0.00     0.085 N 
HETATM    7  C   UNK N   1      28.936  15.778   5.751  0.00  0.00     0.309 C 
HETATM    8  C   UNK N   1      28.325  18.000   5.648  0.00  0.00     0.309 C 
ENDBRANCH   5   6
BRANCH   5   9
HETATM    9  C   UNK N   1      31.377  16.506   6.036  0.00  0.00     0.041 C 
BRANCH   9  10
HETATM   10  C   UNK N   1      32.301  17.325   5.141  0.00  0.00    -0.021 C 
HETATM   11  C   UNK N   1      33.714  16.794   5.232  0.00  0.00     0.009 C 
HETATM   12  C   UNK N   1      31.836  17.269   3.697  0.00  0.00     0.009 C 
ENDBRANCH   9  10
ENDBRANCH   5   9
ENDBRANCH   1   5
BRANCH   1  13
HETATM   13  C   UNK N   1      32.072  16.919   8.665  0.00  0.00    -0.047 A 
HETATM   14  C   UNK N   1      32.163  15.556   9.003  0.00  0.00     0.010 A 
HETATM   15  C   UNK N   1      33.393  14.983   9.325  0.00  0.00     0.024 A 
HETATM   16  C   UNK N   1      34.551  15.763   9.311  0.00  0.00     0.034 A 
HETATM   17 Cl   UNK N   1      36.093  15.037   9.703  0.00  0.00    -0.084 Cl
HETATM   18  C   UNK N   1      34.474  17.120   8.979  0.00  0.00     0.024 A 
HETATM   19  C   UNK N   1      33.242  17.697   8.659  0.00  0.00     0.010 A 
ENDBRANCH   1  13
TORSDOF 5
ENDMDL
