MODEL 1
REMARK VINA RESULT:      -5.0      0.000      0.000
REMARK  2 active torsions:
REMARK  status: ('A' for Active; 'I' for Inactive)
REMARK    1  A    between atoms: C_4  and  C_7 
REMARK    2  A    between atoms: C_4  and  C_8 
ROOT
HETATM    1  O   UNK N   1      28.451  26.763  -3.937  0.00  0.00    -0.296 OA
HETATM    2  O   UNK N   1      24.159  27.358  -5.814  0.00  0.00    -0.272 OA
HETATM    3  N   UNK N   1      25.081  25.347  -5.578  0.00  0.00    -0.359 N 
HETATM    4  C   UNK N   1      26.343  27.420  -4.850  0.00  0.00     0.101 C 
HETATM    5  C   UNK N   1      26.860  25.006  -4.000  0.00  0.00     0.070 C 
HETATM    6  C   UNK N   1      27.322  26.415  -4.257  0.00  0.00     0.150 C 
HETATM    7  C   UNK N   1      25.117  26.703  -5.437  0.00  0.00     0.233 C 
HETATM    8  C   UNK N   1      26.203  24.495  -5.256  0.00  0.00     0.134 C 
HETATM    9  C   UNK N   1      27.960  24.074  -3.522  0.00  0.00     0.020 C 
HETATM   10  H   UNK N   1      24.254  24.930  -5.915  0.00  0.00     0.162 HD
ENDROOT
BRANCH   4  11
HETATM   11  C   UNK N   1      25.889  28.369  -3.724  0.00  0.00     0.022 C 
HETATM   12  C   UNK N   1      26.433  29.787  -3.860  0.00  0.00     0.007 C 
ENDBRANCH   4  11
BRANCH   4  13
HETATM   13  C   UNK N   1      27.033  28.203  -5.986  0.00  0.00     0.022 C 
HETATM   14  C   UNK N   1      27.349  27.353  -7.213  0.00  0.00     0.007 C 
ENDBRANCH   4  13
TORSDOF 2
ENDMDL
MODEL 2
REMARK VINA RESULT:      -4.8     14.480     16.217
REMARK  2 active torsions:
REMARK  status: ('A' for Active; 'I' for Inactive)
REMARK    1  A    between atoms: C_4  and  C_7 
REMARK    2  A    between atoms: C_4  and  C_8 
ROOT
HETATM    1  O   UNK N   1      34.602  16.838   5.952  0.00  0.00    -0.296 OA
HETATM    2  O   UNK N   1      29.886  17.000   5.793  0.00  0.00    -0.272 OA
HETATM    3  N   UNK N   1      31.025  17.445   7.652  0.00  0.00    -0.359 N 
HETATM    4  C   UNK N   1      32.251  16.805   5.529  0.00  0.00     0.101 C 
HETATM    5  C   UNK N   1      33.340  18.074   7.534  0.00  0.00     0.070 C 
HETATM    6  C   UNK N   1      33.490  17.191   6.325  0.00  0.00     0.150 C 
HETATM    7  C   UNK N   1      30.975  17.100   6.333  0.00  0.00     0.233 C 
HETATM    8  C   UNK N   1      32.257  17.491   8.405  0.00  0.00     0.134 C 
HETATM    9  C   UNK N   1      34.630  18.287   8.308  0.00  0.00     0.020 C 
HETATM   10  H   UNK N   1      30.183  17.671   8.112  0.00  0.00     0.162 HD
ENDROOT
BRANCH   4  11
HETATM   11  C   UNK N   1      32.238  17.633   4.230  0.00  0.00     0.022 C 
HETATM   12  C   UNK N   1      32.535  16.814   2.977  0.00  0.00     0.007 C 
ENDBRANCH   4  11
BRANCH   4  13
HETATM   13  C   UNK N   1      32.286  15.294   5.219  0.00  0.00     0.022 C 
HETATM   14  C   UNK N   1      32.155  14.412   6.457  0.00  0.00     0.007 C 
ENDBRANCH   4  13
TORSDOF 2
ENDMDL
MODEL 3
REMARK VINA RESULT:      -4.7     15.928     18.159
REMARK  2 active torsions:
REMARK  status: ('A' for Active; 'I' for Inactive)
REMARK    1  A    between atoms: C_4  and  C_7 
REMARK    2  A    between atoms: C_4  and  C_8 
ROOT
HETATM    1  O   UNK N   1      32.624  14.803   7.482  0.00  0.00    -0.296 OA
HETATM    2  O   UNK N   1      34.783  18.972   7.979  0.00  0.00    -0.272 OA
HETATM    3  N   UNK N   1      34.893  17.388   9.537  0.00  0.00    -0.359 N 
HETATM    4  C   UNK N   1      33.561  16.999   7.417  0.00  0.00     0.101 C 
HETATM    5  C   UNK N   1      34.446  15.096   8.970  0.00  0.00     0.070 C 
HETATM    6  C   UNK N   1      33.459  15.572   7.939  0.00  0.00     0.150 C 
HETATM    7  C   UNK N   1      34.462  17.848   8.327  0.00  0.00     0.233 C 
HETATM    8  C   UNK N   1      34.485  16.113  10.082  0.00  0.00     0.134 C 
HETATM    9  C   UNK N   1      34.165  13.699   9.495  0.00  0.00     0.020 C 
HETATM   10  H   UNK N   1      35.508  17.950  10.063  0.00  0.00     0.162 HD
ENDROOT
BRANCH   4  11
HETATM   11  C   UNK N   1      34.168  16.950   6.001  0.00  0.00     0.022 C 
HETATM   12  C   UNK N   1      33.235  17.480   4.916  0.00  0.00     0.007 C 
ENDBRANCH   4  11
BRANCH   4  13
HETATM   13  C   UNK N   1      32.159  17.642   7.394  0.00  0.00     0.022 C 
HETATM   14  C   UNK N   1      31.507  17.741   8.770  0.00  0.00     0.007 C 
ENDBRANCH   4  13
TORSDOF 2
ENDMDL
MODEL 4
REMARK VINA RESULT:      -4.6     24.006     26.185
REMARK  2 active torsions:
REMARK  status: ('A' for Active; 'I' for Inactive)
REMARK    1  A    between atoms: C_4  and  C_7 
REMARK    2  A    between atoms: C_4  and  C_8 
ROOT
HETATM    1  O   UNK N   1      34.909  13.762  13.303  0.00  0.00    -0.296 OA
HETATM    2  O   UNK N   1      36.763  10.566  16.243  0.00  0.00    -0.272 OA
HETATM    3  N   UNK N   1      37.343  10.680  14.098  0.00  0.00    -0.359 N 
HETATM    4  C   UNK N   1      35.620  12.283  15.039  0.00  0.00     0.101 C 
HETATM    5  C   UNK N   1      36.980  12.700  12.849  0.00  0.00     0.070 C 
HETATM    6  C   UNK N   1      35.756  12.963  13.683  0.00  0.00     0.150 C 
HETATM    7  C   UNK N   1      36.622  11.124  15.167  0.00  0.00     0.233 C 
HETATM    8  C   UNK N   1      37.172  11.208  12.764  0.00  0.00     0.134 C 
HETATM    9  C   UNK N   1      36.939  13.342  11.473  0.00  0.00     0.020 C 
HETATM   10  H   UNK N   1      38.007   9.967  14.241  0.00  0.00     0.162 HD
ENDROOT
BRANCH   4  11
HETATM   11  C   UNK N   1      35.907  13.329  16.133  0.00  0.00     0.022 C 
HETATM   12  C   UNK N   1      34.891  13.320  17.271  0.00  0.00     0.007 C 
ENDBRANCH   4  11
BRANCH   4  13
HETATM   13  C   UNK N   1      34.197  11.706  15.187  0.00  0.00     0.022 C 
HETATM   14  C   UNK N   1      33.866  10.621  14.166  0.00  0.00     0.007 C 
ENDBRANCH   4  13
TORSDOF 2
ENDMDL
MODEL 5
REMARK VINA RESULT:      -4.4     25.052     27.064
REMARK  2 active torsions:
REMARK  status: ('A' for Active; 'I' for Inactive)
REMARK    1  A    between atoms: C_4  and  C_7 
REMARK    2  A    between atoms: C_4  and  C_8 
ROOT
HETATM    1  O   UNK N   1      34.521  13.253  15.537  0.00  0.00    -0.296 OA
HETATM    2  O   UNK N   1      36.939   9.207  15.256  0.00  0.00    -0.272 OA
HETATM    3  N   UNK N   1      37.346  10.927  13.905  0.00  0.00    -0.359 N 
HETATM    4  C   UNK N   1      35.521  11.087  15.656  0.00  0.00     0.101 C 
HETATM    5  C   UNK N   1      36.662  13.145  14.526  0.00  0.00     0.070 C 
HETATM    6  C   UNK N   1      35.479  12.551  15.240  0.00  0.00     0.150 C 
HETATM    7  C   UNK N   1      36.657  10.349  14.930  0.00  0.00     0.233 C 
HETATM    8  C   UNK N   1      37.020  12.234  13.381  0.00  0.00     0.134 C 
HETATM    9  C   UNK N   1      36.449  14.575  14.061  0.00  0.00     0.020 C 
HETATM   10  H   UNK N   1      38.097  10.432  13.504  0.00  0.00     0.162 HD
ENDROOT
BRANCH   4  11
HETATM   11  C   UNK N   1      35.762  11.026  17.177  0.00  0.00     0.022 C 
HETATM   12  C   UNK N   1      34.840  10.052  17.905  0.00  0.00     0.007 C 
ENDBRANCH   4  11
BRANCH   4  13
HETATM   13  C   UNK N   1      34.188  10.405  15.281  0.00  0.00     0.022 C 
HETATM   14  C   UNK N   1      33.854  10.490  13.795  0.00  0.00     0.007 C 
ENDBRANCH   4  13
TORSDOF 2
ENDMDL
MODEL 6
REMARK VINA RESULT:      -4.3     16.149     18.307
REMARK  2 active torsions:
REMARK  status: ('A' for Active; 'I' for Inactive)
REMARK    1  A    between atoms: C_4  and  C_7 
REMARK    2  A    between atoms: C_4  and  C_8 
ROOT
HETATM    1  O   UNK N   1      42.653  19.566   2.358  0.00  0.00    -0.296 OA
HETATM    2  O   UNK N   1      41.288  24.033   1.669  0.00  0.00    -0.272 OA
HETATM    3  N   UNK N   1      42.966  23.504   3.030  0.00  0.00    -0.359 N 
HETATM    4  C   UNK N   1      41.700  21.685   1.802  0.00  0.00     0.101 C 
HETATM    5  C   UNK N   1      44.095  21.395   2.800  0.00  0.00     0.070 C 
HETATM    6  C   UNK N   1      42.799  20.782   2.346  0.00  0.00     0.150 C 
HETATM    7  C   UNK N   1      41.979  23.154   2.156  0.00  0.00     0.233 C 
HETATM    8  C   UNK N   1      43.770  22.532   3.735  0.00  0.00     0.134 C 
HETATM    9  C   UNK N   1      45.059  20.406   3.431  0.00  0.00     0.020 C 
HETATM   10  H   UNK N   1      43.138  24.461   3.188  0.00  0.00     0.162 HD
ENDROOT
BRANCH   4  11
HETATM   11  C   UNK N   1      41.665  21.528   0.269  0.00  0.00     0.022 C 
HETATM   12  C   UNK N   1      42.990  21.856  -0.412  0.00  0.00     0.007 C 
ENDBRANCH   4  11
BRANCH   4  13
HETATM   13  C   UNK N   1      40.347  21.287   2.428  0.00  0.00     0.022 C 
HETATM   14  C   UNK N   1      39.360  20.692   1.427  0.00  0.00     0.007 C 
ENDBRANCH   4  13
TORSDOF 2
ENDMDL
MODEL 7
REMARK VINA RESULT:      -4.3     14.871     17.364
REMARK  2 active torsions:
REMARK  status: ('A' for Active; 'I' for Inactive)
REMARK    1  A    between atoms: C_4  and  C_7 
REMARK    2  A    between atoms: C_4  and  C_8 
ROOT
HETATM    1  O   UNK N   1      34.146  17.896   6.085  0.00  0.00    -0.296 OA
HETATM    2  O   UNK N   1      32.105  14.209   8.215  0.00  0.00    -0.272 OA
HETATM    3  N   UNK N   1      31.318  15.066   6.319  0.00  0.00    -0.359 N 
HETATM    4  C   UNK N   1      33.362  16.078   7.423  0.00  0.00     0.101 C 
HETATM    5  C   UNK N   1      32.738  16.395   4.908  0.00  0.00     0.070 C 
HETATM    6  C   UNK N   1      33.452  16.888   6.136  0.00  0.00     0.150 C 
HETATM    7  C   UNK N   1      32.224  15.049   7.339  0.00  0.00     0.233 C 
HETATM    8  C   UNK N   1      31.315  16.082   5.291  0.00  0.00     0.134 C 
HETATM    9  C   UNK N   1      32.806  17.349   3.728  0.00  0.00     0.020 C 
HETATM   10  H   UNK N   1      30.636  14.357   6.283  0.00  0.00     0.162 HD
ENDROOT
BRANCH   4  11
HETATM   11  C   UNK N   1      34.702  15.343   7.622  0.00  0.00     0.022 C 
HETATM   12  C   UNK N   1      35.257  15.452   9.039  0.00  0.00     0.007 C 
ENDBRANCH   4  11
BRANCH   4  13
HETATM   13  C   UNK N   1      33.071  17.022   8.608  0.00  0.00     0.022 C 
HETATM   14  C   UNK N   1      31.757  17.787   8.473  0.00  0.00     0.007 C 
ENDBRANCH   4  13
TORSDOF 2
ENDMDL
MODEL 8
REMARK VINA RESULT:      -4.3     24.333     26.145
REMARK  2 active torsions:
REMARK  status: ('A' for Active; 'I' for Inactive)
REMARK    1  A    between atoms: C_4  and  C_7 
REMARK    2  A    between atoms: C_4  and  C_8 
ROOT
HETATM    1  O   UNK N   1      36.948  13.830  14.657  0.00  0.00    -0.296 OA
HETATM    2  O   UNK N   1      33.699  10.442  15.166  0.00  0.00    -0.272 OA
HETATM    3  N   UNK N   1      34.163  11.352  13.189  0.00  0.00    -0.359 N 
HETATM    4  C   UNK N   1      35.376  12.139  15.270  0.00  0.00     0.101 C 
HETATM    5  C   UNK N   1      36.254  12.481  12.835  0.00  0.00     0.070 C 
HETATM    6  C   UNK N   1      36.235  12.910  14.277  0.00  0.00     0.150 C 
HETATM    7  C   UNK N   1      34.363  11.248  14.534  0.00  0.00     0.233 C 
HETATM    8  C   UNK N   1      34.826  12.342  12.372  0.00  0.00     0.134 C 
HETATM    9  C   UNK N   1      37.052  13.400  11.927  0.00  0.00     0.020 C 
HETATM   10  H   UNK N   1      33.538  10.725  12.756  0.00  0.00     0.162 HD
ENDROOT
BRANCH   4  11
HETATM   11  C   UNK N   1      36.305  11.257  16.126  0.00  0.00     0.022 C 
HETATM   12  C   UNK N   1      37.197  10.330  15.305  0.00  0.00     0.007 C 
ENDBRANCH   4  11
BRANCH   4  13
HETATM   13  C   UNK N   1      34.591  13.131  16.153  0.00  0.00     0.022 C 
HETATM   14  C   UNK N   1      35.067  13.171  17.602  0.00  0.00     0.007 C 
ENDBRANCH   4  13
TORSDOF 2
ENDMDL
MODEL 9
REMARK VINA RESULT:      -4.2     23.819     25.913
REMARK  2 active torsions:
REMARK  status: ('A' for Active; 'I' for Inactive)
REMARK    1  A    between atoms: C_4  and  C_7 
REMARK    2  A    between atoms: C_4  and  C_8 
ROOT
HETATM    1  O   UNK N   1      36.930  14.123  15.538  0.00  0.00    -0.296 OA
HETATM    2  O   UNK N   1      34.457  11.085  12.902  0.00  0.00    -0.272 OA
HETATM    3  N   UNK N   1      34.298  11.131  15.121  0.00  0.00    -0.359 N 
HETATM    4  C   UNK N   1      35.859  12.727  13.923  0.00  0.00     0.101 C 
HETATM    5  C   UNK N   1      34.952  13.093  16.343  0.00  0.00     0.070 C 
HETATM    6  C   UNK N   1      36.003  13.359  15.300  0.00  0.00     0.150 C 
HETATM    7  C   UNK N   1      34.816  11.599  13.949  0.00  0.00     0.233 C 
HETATM    8  C   UNK N   1      34.734  11.604  16.415  0.00  0.00     0.134 C 
HETATM    9  C   UNK N   1      35.272  13.681  17.707  0.00  0.00     0.020 C 
HETATM   10  H   UNK N   1      33.597  10.440  15.083  0.00  0.00     0.162 HD
ENDROOT
BRANCH   4  11
HETATM   11  C   UNK N   1      35.402  13.821  12.938  0.00  0.00     0.022 C 
HETATM   12  C   UNK N   1      36.396  14.085  11.811  0.00  0.00     0.007 C 
ENDBRANCH   4  11
BRANCH   4  13
HETATM   13  C   UNK N   1      37.210  12.123  13.487  0.00  0.00     0.022 C 
HETATM   14  C   UNK N   1      37.731  11.044  14.432  0.00  0.00     0.007 C 
ENDBRANCH   4  13
TORSDOF 2
ENDMDL
