MODEL 1
REMARK VINA RESULT:      -8.1      0.000      0.000
REMARK  2 active torsions:
REMARK  status: ('A' for Active; 'I' for Inactive)
REMARK    1  A    between atoms: C_9  and  O_2 
REMARK    2  A    between atoms: C_12  and  O_3 
ROOT
HETATM    1  F   UNK N   1      29.691  21.151  -3.433  0.00  0.00    -0.239 F 
HETATM    2  O   UNK N   1      35.251  19.546  -4.776  0.00  0.00    -0.293 OA
HETATM    3  C   UNK N   1      28.407  24.430  -4.141  0.00  0.00    -0.007 C 
HETATM    4  C   UNK N   1      28.356  23.226  -5.076  0.00  0.00     0.004 C 
HETATM    5  C   UNK N   1      29.750  22.624  -5.324  0.00  0.00     0.034 C 
HETATM    6  C   UNK N   1      30.406  22.219  -3.967  0.00  0.00     0.144 C 
HETATM    7  C   UNK N   1      26.942  24.887  -4.200  0.00  0.00     0.062 C 
HETATM    8  C   UNK N   1      28.927  23.980  -2.777  0.00  0.00     0.047 C 
HETATM    9  C   UNK N   1      31.880  21.773  -4.240  0.00  0.00     0.019 C 
HETATM   10  C   UNK N   1      30.341  23.396  -2.939  0.00  0.00     0.160 C 
HETATM   11  C   UNK N   1      27.597  23.765  -6.286  0.00  0.00     0.009 C 
HETATM   12  C   UNK N   1      26.644  24.832  -5.705  0.00  0.00     0.038 C 
HETATM   13  C   UNK N   1      29.616  21.378  -6.198  0.00  0.00     0.013 C 
HETATM   14  C   UNK N   1      29.330  25.544  -4.683  0.00  0.00     0.019 C 
HETATM   15  C   UNK N   1      31.969  20.741  -5.364  0.00  0.00    -0.065 C 
HETATM   16  C   UNK N   1      30.931  20.644  -6.456  0.00  0.00     0.036 C 
HETATM   17  C   UNK N   1      32.520  21.173  -2.974  0.00  0.00     0.025 C 
HETATM   18  C   UNK N   1      26.694  26.268  -3.611  0.00  0.00     0.046 C 
HETATM   19  C   UNK N   1      32.714  22.991  -4.666  0.00  0.00     0.023 C 
HETATM   20  C   UNK N   1      33.981  20.751  -3.195  0.00  0.00     0.084 C 
HETATM   21  C   UNK N   1      33.087  20.013  -5.515  0.00  0.00     0.053 C 
HETATM   22  C   UNK N   1      34.177  20.065  -4.520  0.00  0.00     0.149 C 
ENDROOT
BRANCH   7  23
HETATM   23  O   UNK N   1      26.106  23.972  -3.550  0.00  0.00    -0.389 OA
HETATM   24  H   UNK N   1      25.400  23.461  -3.121  0.00  0.00     0.210 HD
ENDBRANCH   7  23
BRANCH  10  25
HETATM   25  O   UNK N   1      30.816  23.010  -1.685  0.00  0.00    -0.392 OA
HETATM   26  H   UNK N   1      31.193  22.139  -1.483  0.00  0.00     0.210 HD
ENDBRANCH  10  25
TORSDOF 2
ENDMDL
MODEL 2
REMARK VINA RESULT:      -7.6      4.869      6.407
REMARK  2 active torsions:
REMARK  status: ('A' for Active; 'I' for Inactive)
REMARK    1  A    between atoms: C_9  and  O_2 
REMARK    2  A    between atoms: C_12  and  O_3 
ROOT
HETATM    1  F   UNK N   1      24.739  25.718  -5.759  0.00  0.00    -0.239 F 
HETATM    2  O   UNK N   1      25.747  21.087  -9.340  0.00  0.00    -0.293 OA
HETATM    3  C   UNK N   1      27.396  27.565  -4.200  0.00  0.00    -0.007 C 
HETATM    4  C   UNK N   1      26.780  27.859  -5.565  0.00  0.00     0.004 C 
HETATM    5  C   UNK N   1      26.827  26.636  -6.497  0.00  0.00     0.034 C 
HETATM    6  C   UNK N   1      26.097  25.427  -5.831  0.00  0.00     0.144 C 
HETATM    7  C   UNK N   1      27.341  28.963  -3.566  0.00  0.00     0.062 C 
HETATM    8  C   UNK N   1      26.584  26.470  -3.511  0.00  0.00     0.047 C 
HETATM    9  C   UNK N   1      26.312  24.162  -6.725  0.00  0.00     0.019 C 
HETATM   10  C   UNK N   1      26.614  25.196  -4.372  0.00  0.00     0.160 C 
HETATM   11  C   UNK N   1      27.525  29.114  -6.012  0.00  0.00     0.009 C 
HETATM   12  C   UNK N   1      27.863  29.855  -4.700  0.00  0.00     0.038 C 
HETATM   13  C   UNK N   1      26.122  26.974  -7.811  0.00  0.00     0.013 C 
HETATM   14  C   UNK N   1      28.864  27.096  -4.317  0.00  0.00     0.019 C 
HETATM   15  C   UNK N   1      25.967  24.431  -8.190  0.00  0.00    -0.065 C 
HETATM   16  C   UNK N   1      26.037  25.810  -8.797  0.00  0.00     0.036 C 
HETATM   17  C   UNK N   1      25.453  22.983  -6.230  0.00  0.00     0.025 C 
HETATM   18  C   UNK N   1      28.164  29.104  -2.293  0.00  0.00     0.046 C 
HETATM   19  C   UNK N   1      27.786  23.738  -6.669  0.00  0.00     0.023 C 
HETATM   20  C   UNK N   1      25.660  21.711  -7.066  0.00  0.00     0.084 C 
HETATM   21  C   UNK N   1      25.777  23.400  -9.031  0.00  0.00     0.053 C 
HETATM   22  C   UNK N   1      25.730  22.008  -8.540  0.00  0.00     0.149 C 
ENDROOT
BRANCH   7  23
HETATM   23  O   UNK N   1      26.021  29.332  -3.283  0.00  0.00    -0.389 OA
HETATM   24  H   UNK N   1      25.108  29.449  -2.977  0.00  0.00     0.210 HD
ENDBRANCH   7  23
BRANCH  10  25
HETATM   25  O   UNK N   1      25.888  24.196  -3.724  0.00  0.00    -0.392 OA
HETATM   26  H   UNK N   1      26.219  23.671  -2.978  0.00  0.00     0.210 HD
ENDBRANCH  10  25
TORSDOF 2
ENDMDL
MODEL 3
REMARK VINA RESULT:      -7.5     20.207     22.933
REMARK  2 active torsions:
REMARK  status: ('A' for Active; 'I' for Inactive)
REMARK    1  A    between atoms: C_9  and  O_2 
REMARK    2  A    between atoms: C_12  and  O_3 
ROOT
HETATM    1  F   UNK N   1      37.793  11.610  15.057  0.00  0.00    -0.239 F 
HETATM    2  O   UNK N   1      34.422   9.478  19.460  0.00  0.00    -0.293 OA
HETATM    3  C   UNK N   1      36.440  12.500  11.851  0.00  0.00    -0.007 C 
HETATM    4  C   UNK N   1      36.569  13.425  13.058  0.00  0.00     0.004 C 
HETATM    5  C   UNK N   1      35.882  12.848  14.307  0.00  0.00     0.034 C 
HETATM    6  C   UNK N   1      36.475  11.444  14.644  0.00  0.00     0.144 C 
HETATM    7  C   UNK N   1      37.071  13.380  10.761  0.00  0.00     0.062 C 
HETATM    8  C   UNK N   1      37.145  11.180  12.156  0.00  0.00     0.047 C 
HETATM    9  C   UNK N   1      35.639  10.817  15.808  0.00  0.00     0.019 C 
HETATM   10  C   UNK N   1      36.484  10.522  13.380  0.00  0.00     0.160 C 
HETATM   11  C   UNK N   1      36.054  14.759  12.523  0.00  0.00     0.009 C 
HETATM   12  C   UNK N   1      36.415  14.742  11.022  0.00  0.00     0.038 C 
HETATM   13  C   UNK N   1      36.121  13.782  15.493  0.00  0.00     0.013 C 
HETATM   14  C   UNK N   1      34.963  12.208  11.503  0.00  0.00     0.019 C 
HETATM   15  C   UNK N   1      35.483  11.780  16.985  0.00  0.00    -0.065 C 
HETATM   16  C   UNK N   1      35.545  13.278  16.816  0.00  0.00     0.036 C 
HETATM   17  C   UNK N   1      36.293   9.520  16.322  0.00  0.00     0.025 C 
HETATM   18  C   UNK N   1      36.832  12.883   9.343  0.00  0.00     0.046 C 
HETATM   19  C   UNK N   1      34.230  10.475  15.302  0.00  0.00     0.023 C 
HETATM   20  C   UNK N   1      35.484   8.858  17.447  0.00  0.00     0.084 C 
HETATM   21  C   UNK N   1      35.088  11.314  18.181  0.00  0.00     0.053 C 
HETATM   22  C   UNK N   1      34.960   9.865  18.436  0.00  0.00     0.149 C 
ENDROOT
BRANCH   7  23
HETATM   23  O   UNK N   1      38.451  13.508  10.959  0.00  0.00    -0.389 OA
HETATM   24  H   UNK N   1      39.377  13.509  11.247  0.00  0.00     0.210 HD
ENDBRANCH   7  23
BRANCH  10  25
HETATM   25  O   UNK N   1      37.120   9.306  13.637  0.00  0.00    -0.392 OA
HETATM   26  H   UNK N   1      36.956   8.753  14.417  0.00  0.00     0.210 HD
ENDBRANCH  10  25
TORSDOF 2
ENDMDL
MODEL 4
REMARK VINA RESULT:      -7.3     12.977     15.932
REMARK  2 active torsions:
REMARK  status: ('A' for Active; 'I' for Inactive)
REMARK    1  A    between atoms: C_9  and  O_2 
REMARK    2  A    between atoms: C_12  and  O_3 
ROOT
HETATM    1  F   UNK N   1      32.231  15.135   8.320  0.00  0.00    -0.239 F 
HETATM    2  O   UNK N   1      32.323  17.135   2.727  0.00  0.00    -0.293 OA
HETATM    3  C   UNK N   1      35.207  14.112  10.051  0.00  0.00    -0.007 C 
HETATM    4  C   UNK N   1      34.624  15.522  10.026  0.00  0.00     0.004 C 
HETATM    5  C   UNK N   1      34.433  16.044   8.592  0.00  0.00     0.034 C 
HETATM    6  C   UNK N   1      33.515  15.072   7.787  0.00  0.00     0.144 C 
HETATM    7  C   UNK N   1      35.416  13.926  11.562  0.00  0.00     0.062 C 
HETATM    8  C   UNK N   1      34.228  13.154   9.374  0.00  0.00     0.047 C 
HETATM    9  C   UNK N   1      33.482  15.540   6.295  0.00  0.00     0.019 C 
HETATM   10  C   UNK N   1      34.013  13.595   7.916  0.00  0.00     0.160 C 
HETATM   11  C   UNK N   1      35.570  16.299  10.938  0.00  0.00     0.009 C 
HETATM   12  C   UNK N   1      36.062  15.258  11.967  0.00  0.00     0.038 C 
HETATM   13  C   UNK N   1      33.771  17.421   8.640  0.00  0.00     0.013 C 
HETATM   14  C   UNK N   1      36.566  14.035   9.318  0.00  0.00     0.019 C 
HETATM   15  C   UNK N   1      33.158  17.029   6.168  0.00  0.00    -0.065 C 
HETATM   16  C   UNK N   1      33.459  18.018   7.268  0.00  0.00     0.036 C 
HETATM   17  C   UNK N   1      32.439  14.744   5.488  0.00  0.00     0.025 C 
HETATM   18  C   UNK N   1      36.277  12.728  11.931  0.00  0.00     0.046 C 
HETATM   19  C   UNK N   1      34.858  15.312   5.654  0.00  0.00     0.023 C 
HETATM   20  C   UNK N   1      32.398  15.156   4.008  0.00  0.00     0.084 C 
HETATM   21  C   UNK N   1      32.771  17.530   4.983  0.00  0.00     0.053 C 
HETATM   22  C   UNK N   1      32.487  16.648   3.833  0.00  0.00     0.149 C 
ENDROOT
BRANCH   7  23
HETATM   23  O   UNK N   1      34.188  13.810  12.225  0.00  0.00    -0.389 OA
HETATM   24  H   UNK N   1      33.290  13.872  12.588  0.00  0.00     0.210 HD
ENDBRANCH   7  23
BRANCH  10  25
HETATM   25  O   UNK N   1      33.136  12.702   7.300  0.00  0.00    -0.392 OA
HETATM   26  H   UNK N   1      32.191  12.869   7.154  0.00  0.00     0.210 HD
ENDBRANCH  10  25
TORSDOF 2
ENDMDL
MODEL 5
REMARK VINA RESULT:      -7.3      2.006      6.480
REMARK  2 active torsions:
REMARK  status: ('A' for Active; 'I' for Inactive)
REMARK    1  A    between atoms: C_9  and  O_2 
REMARK    2  A    between atoms: C_12  and  O_3 
ROOT
HETATM    1  F   UNK N   1      29.698  25.193  -6.090  0.00  0.00    -0.239 F 
HETATM    2  O   UNK N   1      24.185  27.357  -5.625  0.00  0.00    -0.293 OA
HETATM    3  C   UNK N   1      30.920  22.559  -3.976  0.00  0.00    -0.007 C 
HETATM    4  C   UNK N   1      30.209  22.378  -5.314  0.00  0.00     0.004 C 
HETATM    5  C   UNK N   1      28.842  23.082  -5.343  0.00  0.00     0.034 C 
HETATM    6  C   UNK N   1      29.015  24.602  -5.031  0.00  0.00     0.144 C 
HETATM    7  C   UNK N   1      32.144  21.655  -4.189  0.00  0.00     0.062 C 
HETATM    8  C   UNK N   1      31.198  24.045  -3.755  0.00  0.00     0.047 C 
HETATM    9  C   UNK N   1      27.597  25.248  -4.901  0.00  0.00     0.019 C 
HETATM   10  C   UNK N   1      29.867  24.814  -3.736  0.00  0.00     0.160 C 
HETATM   11  C   UNK N   1      30.226  20.864  -5.507  0.00  0.00     0.009 C 
HETATM   12  C   UNK N   1      31.515  20.395  -4.798  0.00  0.00     0.038 C 
HETATM   13  C   UNK N   1      28.225  22.931  -6.734  0.00  0.00     0.013 C 
HETATM   14  C   UNK N   1      30.073  22.030  -2.795  0.00  0.00     0.019 C 
HETATM   15  C   UNK N   1      26.699  24.904  -6.089  0.00  0.00    -0.065 C 
HETATM   16  C   UNK N   1      26.891  23.654  -6.912  0.00  0.00     0.036 C 
HETATM   17  C   UNK N   1      27.696  26.781  -4.791  0.00  0.00     0.025 C 
HETATM   18  C   UNK N   1      32.928  21.356  -2.920  0.00  0.00     0.046 C 
HETATM   19  C   UNK N   1      26.907  24.721  -3.635  0.00  0.00     0.023 C 
HETATM   20  C   UNK N   1      26.322  27.451  -4.631  0.00  0.00     0.084 C 
HETATM   21  C   UNK N   1      25.583  25.619  -6.312  0.00  0.00     0.053 C 
HETATM   22  C   UNK N   1      25.286  26.839  -5.534  0.00  0.00     0.149 C 
ENDROOT
BRANCH   7  23
HETATM   23  O   UNK N   1      33.018  22.212  -5.130  0.00  0.00    -0.389 OA
HETATM   24  H   UNK N   1      33.751  22.515  -5.690  0.00  0.00     0.210 HD
ENDBRANCH   7  23
BRANCH  10  25
HETATM   25  O   UNK N   1      30.130  26.166  -3.512  0.00  0.00    -0.392 OA
HETATM   26  H   UNK N   1      29.455  26.864  -3.498  0.00  0.00     0.210 HD
ENDBRANCH  10  25
TORSDOF 2
ENDMDL
MODEL 6
REMARK VINA RESULT:      -7.2      5.000      7.428
REMARK  2 active torsions:
REMARK  status: ('A' for Active; 'I' for Inactive)
REMARK    1  A    between atoms: C_9  and  O_2 
REMARK    2  A    between atoms: C_12  and  O_3 
ROOT
HETATM    1  F   UNK N   1      28.226  25.311  -5.311  0.00  0.00    -0.239 F 
HETATM    2  O   UNK N   1      26.261  30.713  -3.809  0.00  0.00    -0.293 OA
HETATM    3  C   UNK N   1      26.440  23.171  -7.577  0.00  0.00    -0.007 C 
HETATM    4  C   UNK N   1      27.498  24.201  -7.962  0.00  0.00     0.004 C 
HETATM    5  C   UNK N   1      27.157  25.606  -7.437  0.00  0.00     0.034 C 
HETATM    6  C   UNK N   1      26.985  25.571  -5.886  0.00  0.00     0.144 C 
HETATM    7  C   UNK N   1      26.960  21.943  -8.339  0.00  0.00     0.062 C 
HETATM    8  C   UNK N   1      26.384  23.058  -6.055  0.00  0.00     0.047 C 
HETATM    9  C   UNK N   1      26.474  26.970  -5.410  0.00  0.00     0.019 C 
HETATM   10  C   UNK N   1      26.011  24.425  -5.456  0.00  0.00     0.160 C 
HETATM   11  C   UNK N   1      27.613  24.023  -9.474  0.00  0.00     0.009 C 
HETATM   12  C   UNK N   1      27.294  22.532  -9.716  0.00  0.00     0.038 C 
HETATM   13  C   UNK N   1      28.295  26.566  -7.786  0.00  0.00     0.013 C 
HETATM   14  C   UNK N   1      25.038  23.560  -8.099  0.00  0.00     0.019 C 
HETATM   15  C   UNK N   1      27.326  28.112  -5.966  0.00  0.00    -0.065 C 
HETATM   16  C   UNK N   1      28.107  27.985  -7.251  0.00  0.00     0.036 C 
HETATM   17  C   UNK N   1      26.474  27.066  -3.873  0.00  0.00     0.025 C 
HETATM   18  C   UNK N   1      25.966  20.794  -8.425  0.00  0.00     0.046 C 
HETATM   19  C   UNK N   1      25.036  27.187  -5.903  0.00  0.00     0.023 C 
HETATM   20  C   UNK N   1      25.949  28.417  -3.365  0.00  0.00     0.084 C 
HETATM   21  C   UNK N   1      27.245  29.335  -5.416  0.00  0.00     0.053 C 
HETATM   22  C   UNK N   1      26.474  29.570  -4.178  0.00  0.00     0.149 C 
ENDROOT
BRANCH   7  23
HETATM   23  O   UNK N   1      28.143  21.463  -7.764  0.00  0.00    -0.389 OA
HETATM   24  H   UNK N   1      28.945  21.267  -7.254  0.00  0.00     0.210 HD
ENDBRANCH   7  23
BRANCH  10  25
HETATM   25  O   UNK N   1      25.941  24.306  -4.068  0.00  0.00    -0.392 OA
HETATM   26  H   UNK N   1      26.238  24.984  -3.441  0.00  0.00     0.210 HD
ENDBRANCH  10  25
TORSDOF 2
ENDMDL
MODEL 7
REMARK VINA RESULT:      -7.2     10.430     12.041
REMARK  2 active torsions:
REMARK  status: ('A' for Active; 'I' for Inactive)
REMARK    1  A    between atoms: C_9  and  O_2 
REMARK    2  A    between atoms: C_12  and  O_3 
ROOT
HETATM    1  F   UNK N   1      29.642  18.369   4.845  0.00  0.00    -0.239 F 
HETATM    2  O   UNK N   1      34.662  17.502   7.900  0.00  0.00    -0.293 OA
HETATM    3  C   UNK N   1      27.429  15.679   3.967  0.00  0.00    -0.007 C 
HETATM    4  C   UNK N   1      27.372  16.506   5.248  0.00  0.00     0.004 C 
HETATM    5  C   UNK N   1      28.709  16.492   6.008  0.00  0.00     0.034 C 
HETATM    6  C   UNK N   1      29.854  17.015   5.085  0.00  0.00     0.144 C 
HETATM    7  C   UNK N   1      25.962  15.758   3.521  0.00  0.00     0.062 C 
HETATM    8  C   UNK N   1      28.464  16.291   3.024  0.00  0.00     0.047 C 
HETATM    9  C   UNK N   1      31.217  16.827   5.828  0.00  0.00     0.019 C 
HETATM   10  C   UNK N   1      29.843  16.278   3.706  0.00  0.00     0.160 C 
HETATM   11  C   UNK N   1      26.149  15.940   5.965  0.00  0.00     0.009 C 
HETATM   12  C   UNK N   1      25.208  15.481   4.829  0.00  0.00     0.038 C 
HETATM   13  C   UNK N   1      28.606  17.403   7.231  0.00  0.00     0.013 C 
HETATM   14  C   UNK N   1      27.817  14.209   4.245  0.00  0.00     0.019 C 
HETATM   15  C   UNK N   1      31.182  17.398   7.246  0.00  0.00    -0.065 C 
HETATM   16  C   UNK N   1      29.901  17.531   8.032  0.00  0.00     0.036 C 
HETATM   17  C   UNK N   1      32.366  17.504   5.057  0.00  0.00     0.025 C 
HETATM   18  C   UNK N   1      25.590  14.777   2.419  0.00  0.00     0.046 C 
HETATM   19  C   UNK N   1      31.536  15.329   5.944  0.00  0.00     0.023 C 
HETATM   20  C   UNK N   1      33.728  17.314   5.742  0.00  0.00     0.084 C 
HETATM   21  C   UNK N   1      32.331  17.620   7.905  0.00  0.00     0.053 C 
HETATM   22  C   UNK N   1      33.640  17.481   7.235  0.00  0.00     0.149 C 
ENDROOT
BRANCH   7  23
HETATM   23  O   UNK N   1      25.640  17.051   3.091  0.00  0.00    -0.389 OA
HETATM   24  H   UNK N   1      25.320  17.864   2.668  0.00  0.00     0.210 HD
ENDBRANCH   7  23
BRANCH  10  25
HETATM   25  O   UNK N   1      30.784  16.818   2.828  0.00  0.00    -0.392 OA
HETATM   26  H   UNK N   1      30.576  17.186   1.955  0.00  0.00     0.210 HD
ENDBRANCH  10  25
TORSDOF 2
ENDMDL
MODEL 8
REMARK VINA RESULT:      -6.9     20.901     23.667
REMARK  2 active torsions:
REMARK  status: ('A' for Active; 'I' for Inactive)
REMARK    1  A    between atoms: C_9  and  O_2 
REMARK    2  A    between atoms: C_12  and  O_3 
ROOT
HETATM    1  F   UNK N   1      33.515  10.434  14.800  0.00  0.00    -0.239 F 
HETATM    2  O   UNK N   1      35.511  13.490  19.488  0.00  0.00    -0.293 OA
HETATM    3  C   UNK N   1      35.665   9.401  12.114  0.00  0.00    -0.007 C 
HETATM    4  C   UNK N   1      35.366   8.604  13.381  0.00  0.00     0.004 C 
HETATM    5  C   UNK N   1      35.676   9.406  14.657  0.00  0.00     0.034 C 
HETATM    6  C   UNK N   1      34.866  10.740  14.661  0.00  0.00     0.144 C 
HETATM    7  C   UNK N   1      35.408   8.327  11.047  0.00  0.00     0.062 C 
HETATM    8  C   UNK N   1      34.764  10.633  12.076  0.00  0.00     0.047 C 
HETATM    9  C   UNK N   1      35.332  11.602  15.879  0.00  0.00     0.019 C 
HETATM   10  C   UNK N   1      35.044  11.508  13.310  0.00  0.00     0.160 C 
HETATM   11  C   UNK N   1      36.140   7.307  13.160  0.00  0.00     0.009 C 
HETATM   12  C   UNK N   1      36.137   7.108  11.628  0.00  0.00     0.038 C 
HETATM   13  C   UNK N   1      35.277   8.583  15.882  0.00  0.00     0.013 C 
HETATM   14  C   UNK N   1      37.140   9.860  12.056  0.00  0.00     0.019 C 
HETATM   15  C   UNK N   1      35.321  10.805  17.184  0.00  0.00    -0.065 C 
HETATM   16  C   UNK N   1      35.470   9.304  17.215  0.00  0.00     0.036 C 
HETATM   17  C   UNK N   1      34.434  12.841  16.057  0.00  0.00     0.025 C 
HETATM   18  C   UNK N   1      35.910   8.695   9.658  0.00  0.00     0.046 C 
HETATM   19  C   UNK N   1      36.772  12.083  15.647  0.00  0.00     0.023 C 
HETATM   20  C   UNK N   1      34.880  13.730  17.227  0.00  0.00     0.084 C 
HETATM   21  C   UNK N   1      35.372  11.450  18.361  0.00  0.00     0.053 C 
HETATM   22  C   UNK N   1      35.273  12.922  18.435  0.00  0.00     0.149 C 
ENDROOT
BRANCH   7  23
HETATM   23  O   UNK N   1      34.044   8.027  10.959  0.00  0.00    -0.389 OA
HETATM   24  H   UNK N   1      33.113   7.875  10.730  0.00  0.00     0.210 HD
ENDBRANCH   7  23
BRANCH  10  25
HETATM   25  O   UNK N   1      34.232  12.641  13.253  0.00  0.00    -0.392 OA
HETATM   26  H   UNK N   1      34.384  13.399  12.667  0.00  0.00     0.210 HD
ENDBRANCH  10  25
TORSDOF 2
ENDMDL
MODEL 9
REMARK VINA RESULT:      -6.9     22.234     24.885
REMARK  2 active torsions:
REMARK  status: ('A' for Active; 'I' for Inactive)
REMARK    1  A    between atoms: C_9  and  O_2 
REMARK    2  A    between atoms: C_12  and  O_3 
ROOT
HETATM    1  F   UNK N   1      34.129  10.893  15.445  0.00  0.00    -0.239 F 
HETATM    2  O   UNK N   1      37.563  13.320  11.248  0.00  0.00    -0.293 OA
HETATM    3  C   UNK N   1      35.482   9.412  18.425  0.00  0.00    -0.007 C 
HETATM    4  C   UNK N   1      35.083  10.875  18.251  0.00  0.00     0.004 C 
HETATM    5  C   UNK N   1      35.789  11.530  17.053  0.00  0.00     0.034 C 
HETATM    6  C   UNK N   1      35.478  10.734  15.747  0.00  0.00     0.144 C 
HETATM    7  C   UNK N   1      34.758   9.082  19.739  0.00  0.00     0.062 C 
HETATM    8  C   UNK N   1      35.047   8.626  17.189  0.00  0.00     0.047 C 
HETATM    9  C   UNK N   1      36.345  11.323  14.586  0.00  0.00     0.019 C 
HETATM   10  C   UNK N   1      35.745   9.205  15.946  0.00  0.00     0.160 C 
HETATM   11  C   UNK N   1      35.347  11.466  19.634  0.00  0.00     0.009 C 
HETATM   12  C   UNK N   1      35.099  10.297  20.612  0.00  0.00     0.038 C 
HETATM   13  C   UNK N   1      35.283  12.963  16.889  0.00  0.00     0.013 C 
HETATM   14  C   UNK N   1      37.008   9.247  18.608  0.00  0.00     0.019 C 
HETATM   15  C   UNK N   1      36.219  12.843  14.491  0.00  0.00    -0.065 C 
HETATM   16  C   UNK N   1      35.859  13.700  15.680  0.00  0.00     0.036 C 
HETATM   17  C   UNK N   1      35.940  10.714  13.230  0.00  0.00     0.025 C 
HETATM   18  C   UNK N   1      35.189   7.770  20.377  0.00  0.00     0.046 C 
HETATM   19  C   UNK N   1      37.825  10.998  14.834  0.00  0.00     0.023 C 
HETATM   20  C   UNK N   1      36.791  11.247  12.067  0.00  0.00     0.084 C 
HETATM   21  C   UNK N   1      36.620  13.479  13.377  0.00  0.00     0.053 C 
HETATM   22  C   UNK N   1      37.027  12.729  12.172  0.00  0.00     0.149 C 
ENDROOT
BRANCH   7  23
HETATM   23  O   UNK N   1      33.371   9.048  19.550  0.00  0.00    -0.389 OA
HETATM   24  H   UNK N   1      32.414   9.190  19.483  0.00  0.00     0.210 HD
ENDBRANCH   7  23
BRANCH  10  25
HETATM   25  O   UNK N   1      35.358   8.467  14.827  0.00  0.00    -0.392 OA
HETATM   26  H   UNK N   1      35.873   7.740  14.442  0.00  0.00     0.210 HD
ENDBRANCH  10  25
TORSDOF 2
ENDMDL
