REMARK  2 active torsions:
REMARK  status: ('A' for Active; 'I' for Inactive)
REMARK    1  A    between atoms: C_9  and  O_2 
REMARK    2  A    between atoms: C_12  and  O_3 
ROOT
HETATM    1  F   UNK N   1       4.376   0.052  -1.775  0.00  0.00    -0.239 F 
HETATM    2  O   UNK N   1      -0.247  -3.053   0.294  0.00  0.00    -0.293 OA
HETATM    3  C   UNK N   1       6.886   1.444   0.385  0.00  0.00    -0.007 C 
HETATM    4  C   UNK N   1       6.912   0.052  -0.240  0.00  0.00     0.004 C 
HETATM    5  C   UNK N   1       5.646  -0.756   0.091  0.00  0.00     0.034 C 
HETATM    6  C   UNK N   1       4.377   0.019  -0.384  0.00  0.00     0.144 C 
HETATM    7  C   UNK N   1       8.293   1.938   0.017  0.00  0.00     0.062 C 
HETATM    8  C   UNK N   1       5.712   2.230  -0.196  0.00  0.00     0.047 C 
HETATM    9  C   UNK N   1       3.109  -0.746   0.119  0.00  0.00     0.019 C 
HETATM   10  C   UNK N   1       4.399   1.497   0.128  0.00  0.00     0.160 C 
HETATM   11  C   UNK N   1       8.250  -0.510   0.234  0.00  0.00     0.009 C 
HETATM   12  C   UNK N   1       9.166   0.726   0.369  0.00  0.00     0.038 C 
HETATM   13  C   UNK N   1       5.701  -2.102  -0.632  0.00  0.00     0.013 C 
HETATM   14  C   UNK N   1       6.733   1.384   1.922  0.00  0.00     0.019 C 
HETATM   15  C   UNK N   1       3.159  -2.233  -0.233  0.00  0.00    -0.065 C 
HETATM   16  C   UNK N   1       4.459  -2.971  -0.440  0.00  0.00     0.036 C 
HETATM   17  C   UNK N   1       1.825  -0.145  -0.483  0.00  0.00     0.025 C 
HETATM   18  C   UNK N   1       8.725   3.197   0.754  0.00  0.00     0.046 C 
HETATM   19  C   UNK N   1       3.017  -0.638   1.648  0.00  0.00     0.023 C 
HETATM   20  C   UNK N   1       0.554  -0.852   0.012  0.00  0.00     0.084 C 
HETATM   21  C   UNK N   1       2.038  -2.971  -0.176  0.00  0.00     0.053 C 
HETATM   22  C   UNK N   1       0.720  -2.347   0.059  0.00  0.00     0.149 C 
ENDROOT
BRANCH   7  23
HETATM   23  O   UNK N   1       8.396   2.173  -1.359  0.00  0.00    -0.389 OA
HETATM   24  H   UNK N   1       8.573   2.193  -2.313  0.00  0.00     0.210 HD
ENDBRANCH   7  23
BRANCH  10  25
HETATM   25  O   UNK N   1       3.332   2.234  -0.387  0.00  0.00    -0.392 OA
HETATM   26  H   UNK N   1       3.405   3.133  -0.745  0.00  0.00     0.210 HD
ENDBRANCH  10  25
TORSDOF 2
