MODEL 1
REMARK VINA RESULT:      -6.1      0.000      0.000
REMARK  2 active torsions:
REMARK  status: ('A' for Active; 'I' for Inactive)
REMARK    1  A    between atoms: N_5  and  C_11 
REMARK    2  A    between atoms: C_6  and  C_7 
ROOT
HETATM    1  O   UNK N   1      35.108  13.196  14.412  0.00  0.00    -0.302 OA
HETATM    2  O   UNK N   1      37.670  15.016  15.760  0.00  0.00    -0.270 OA
HETATM    3  N   UNK N   1      36.597  14.716  13.796  0.00  0.00    -0.290 N 
ATOM      4  HN  UNK N   1      37.119  15.367  13.211  1.00  0.00     0.172 HD
HETATM    5  C   UNK N   1      35.830  13.468  15.554  0.00  0.00     0.257 A 
HETATM    6  C   UNK N   1      36.804  14.475  15.093  0.00  0.00     0.259 A 
HETATM    7  C   UNK N   1      35.620  13.973  13.423  0.00  0.00     0.220 A 
ENDROOT
BRANCH   5   8
HETATM    8  C   UNK N   1      35.611  12.803  16.865  0.00  0.00    -0.020 A 
HETATM    9  C   UNK N   1      35.280  13.567  17.988  0.00  0.00     0.010 A 
HETATM   10  C   UNK N   1      35.078  12.947  19.222  0.00  0.00     0.001 A 
HETATM   11  C   UNK N   1      35.209  11.560  19.335  0.00  0.00     0.000 A 
HETATM   12  C   UNK N   1      35.539  10.793  18.213  0.00  0.00     0.001 A 
HETATM   13  C   UNK N   1      35.740  11.414  16.978  0.00  0.00     0.010 A 
ENDBRANCH   5   8
BRANCH   7  14
HETATM   14  N   UNK N   1      35.126  13.967  12.102  0.00  0.00    -0.365 N 
HETATM   15  H   UNK N   1      35.708  13.683  11.360  0.00  0.00     0.159 HD
HETATM   16  H   UNK N   1      34.199  14.245  11.922  0.00  0.00     0.159 HD
ENDBRANCH   7  14
TORSDOF 2
ENDMDL
MODEL 2
REMARK VINA RESULT:      -5.7      7.671     10.768
REMARK  2 active torsions:
REMARK  status: ('A' for Active; 'I' for Inactive)
REMARK    1  A    between atoms: N_5  and  C_11 
REMARK    2  A    between atoms: C_6  and  C_7 
ROOT
HETATM    1  O   UNK N   1      33.498  16.058   8.867  0.00  0.00    -0.302 OA
HETATM    2  O   UNK N   1      35.019  19.058   8.249  0.00  0.00    -0.270 OA
HETATM    3  N   UNK N   1      34.960  17.429   9.812  0.00  0.00    -0.290 N 
ATOM      4  HN  UNK N   1      35.622  17.810  10.487  1.00  0.00     0.172 HD
HETATM    5  C   UNK N   1      33.623  17.108   7.982  0.00  0.00     0.257 A 
HETATM    6  C   UNK N   1      34.597  17.988   8.655  0.00  0.00     0.259 A 
HETATM    7  C   UNK N   1      34.320  16.322   9.916  0.00  0.00     0.220 A 
ENDROOT
BRANCH   5   8
HETATM    8  C   UNK N   1      32.866  17.228   6.710  0.00  0.00    -0.020 A 
HETATM    9  C   UNK N   1      31.473  17.103   6.713  0.00  0.00     0.010 A 
HETATM   10  C   UNK N   1      30.758  17.209   5.519  0.00  0.00     0.001 A 
HETATM   11  C   UNK N   1      31.436  17.440   4.318  0.00  0.00     0.000 A 
HETATM   12  C   UNK N   1      32.829  17.566   4.313  0.00  0.00     0.001 A 
HETATM   13  C   UNK N   1      33.544  17.460   5.508  0.00  0.00     0.010 A 
ENDBRANCH   5   8
BRANCH   7  14
HETATM   14  N   UNK N   1      34.459  15.460  11.024  0.00  0.00    -0.365 N 
HETATM   15  H   UNK N   1      33.809  15.500  11.763  0.00  0.00     0.159 HD
HETATM   16  H   UNK N   1      35.205  14.819  11.058  0.00  0.00     0.159 HD
ENDBRANCH   7  14
TORSDOF 2
ENDMDL
MODEL 3
REMARK VINA RESULT:      -5.6     17.795     19.637
REMARK  2 active torsions:
REMARK  status: ('A' for Active; 'I' for Inactive)
REMARK    1  A    between atoms: N_5  and  C_11 
REMARK    2  A    between atoms: C_6  and  C_7 
ROOT
HETATM    1  O   UNK N   1      22.310  20.630   1.629  0.00  0.00    -0.302 OA
HETATM    2  O   UNK N   1      21.102  19.445   4.601  0.00  0.00    -0.270 OA
HETATM    3  N   UNK N   1      20.367  20.268   2.630  0.00  0.00    -0.290 N 
ATOM      4  HN  UNK N   1      19.361  20.229   2.789  1.00  0.00     0.172 HD
HETATM    5  C   UNK N   1      22.638  20.109   2.862  0.00  0.00     0.257 A 
HETATM    6  C   UNK N   1      21.320  19.891   3.486  0.00  0.00     0.259 A 
HETATM    7  C   UNK N   1      20.954  20.688   1.570  0.00  0.00     0.220 A 
ENDROOT
BRANCH   5   8
HETATM    8  C   UNK N   1      24.029  19.909   3.345  0.00  0.00    -0.020 A 
HETATM    9  C   UNK N   1      24.288  18.981   4.359  0.00  0.00     0.010 A 
HETATM   10  C   UNK N   1      25.592  18.794   4.820  0.00  0.00     0.001 A 
HETATM   11  C   UNK N   1      26.641  19.535   4.266  0.00  0.00     0.000 A 
HETATM   12  C   UNK N   1      26.384  20.461   3.251  0.00  0.00     0.001 A 
HETATM   13  C   UNK N   1      25.079  20.649   2.790  0.00  0.00     0.010 A 
ENDBRANCH   5   8
BRANCH   7  14
HETATM   14  N   UNK N   1      20.249  21.169   0.446  0.00  0.00    -0.365 N 
HETATM   15  H   UNK N   1      19.413  21.674   0.569  0.00  0.00     0.159 HD
HETATM   16  H   UNK N   1      20.595  20.999  -0.460  0.00  0.00     0.159 HD
ENDBRANCH   7  14
TORSDOF 2
ENDMDL
MODEL 4
REMARK VINA RESULT:      -5.4      1.479      2.697
REMARK  2 active torsions:
REMARK  status: ('A' for Active; 'I' for Inactive)
REMARK    1  A    between atoms: N_5  and  C_11 
REMARK    2  A    between atoms: C_6  and  C_7 
ROOT
HETATM    1  O   UNK N   1      35.535  13.355  14.384  0.00  0.00    -0.302 OA
HETATM    2  O   UNK N   1      33.567  10.560  14.484  0.00  0.00    -0.270 OA
HETATM    3  N   UNK N   1      34.408  12.041  13.001  0.00  0.00    -0.290 N 
ATOM      4  HN  UNK N   1      34.018  11.666  12.138  1.00  0.00     0.172 HD
HETATM    5  C   UNK N   1      34.974  12.389  15.191  0.00  0.00     0.257 A 
HETATM    6  C   UNK N   1      34.237  11.548  14.230  0.00  0.00     0.259 A 
HETATM    7  C   UNK N   1      35.157  13.077  13.109  0.00  0.00     0.220 A 
ENDROOT
BRANCH   5   8
HETATM    8  C   UNK N   1      35.116  12.344  16.670  0.00  0.00    -0.020 A 
HETATM    9  C   UNK N   1      35.334  11.122  17.313  0.00  0.00     0.010 A 
HETATM   10  C   UNK N   1      35.462  11.075  18.702  0.00  0.00     0.001 A 
HETATM   11  C   UNK N   1      35.372  12.251  19.451  0.00  0.00     0.000 A 
HETATM   12  C   UNK N   1      35.156  13.475  18.810  0.00  0.00     0.001 A 
HETATM   13  C   UNK N   1      35.027  13.522  17.420  0.00  0.00     0.010 A 
ENDBRANCH   5   8
BRANCH   7  14
HETATM   14  N   UNK N   1      35.548  13.857  12.000  0.00  0.00    -0.365 N 
HETATM   15  H   UNK N   1      35.047  14.673  11.772  0.00  0.00     0.159 HD
HETATM   16  H   UNK N   1      36.321  13.584  11.456  0.00  0.00     0.159 HD
ENDBRANCH   7  14
TORSDOF 2
ENDMDL
MODEL 5
REMARK VINA RESULT:      -5.3     16.412     17.772
REMARK  2 active torsions:
REMARK  status: ('A' for Active; 'I' for Inactive)
REMARK    1  A    between atoms: N_5  and  C_11 
REMARK    2  A    between atoms: C_6  and  C_7 
ROOT
HETATM    1  O   UNK N   1      18.542  15.960   9.386  0.00  0.00    -0.302 OA
HETATM    2  O   UNK N   1      20.971  17.544   7.573  0.00  0.00    -0.270 OA
HETATM    3  N   UNK N   1      18.978  17.965   8.550  0.00  0.00    -0.290 N 
ATOM      4  HN  UNK N   1      18.872  18.951   8.313  1.00  0.00     0.172 HD
HETATM    5  C   UNK N   1      19.763  15.826   8.761  0.00  0.00     0.257 A 
HETATM    6  C   UNK N   1      20.005  17.176   8.221  0.00  0.00     0.259 A 
HETATM    7  C   UNK N   1      18.150  17.250   9.218  0.00  0.00     0.220 A 
ENDROOT
BRANCH   5   8
HETATM    8  C   UNK N   1      20.529  14.555   8.681  0.00  0.00    -0.020 A 
HETATM    9  C   UNK N   1      21.025  13.965   9.848  0.00  0.00     0.010 A 
HETATM   10  C   UNK N   1      21.750  12.775   9.777  0.00  0.00     0.001 A 
HETATM   11  C   UNK N   1      21.981  12.171   8.537  0.00  0.00     0.000 A 
HETATM   12  C   UNK N   1      21.485  12.759   7.369  0.00  0.00     0.001 A 
HETATM   13  C   UNK N   1      20.759  13.950   7.440  0.00  0.00     0.010 A 
ENDBRANCH   5   8
BRANCH   7  14
HETATM   14  N   UNK N   1      16.938  17.761   9.731  0.00  0.00    -0.365 N 
HETATM   15  H   UNK N   1      16.194  17.965   9.120  0.00  0.00     0.159 HD
HETATM   16  H   UNK N   1      16.839  17.914  10.698  0.00  0.00     0.159 HD
ENDBRANCH   7  14
TORSDOF 2
ENDMDL
MODEL 6
REMARK VINA RESULT:      -5.2     17.653     19.383
REMARK  2 active torsions:
REMARK  status: ('A' for Active; 'I' for Inactive)
REMARK    1  A    between atoms: N_5  and  C_11 
REMARK    2  A    between atoms: C_6  and  C_7 
ROOT
HETATM    1  O   UNK N   1      21.756  18.202   3.554  0.00  0.00    -0.302 OA
HETATM    2  O   UNK N   1      21.515  21.482   2.619  0.00  0.00    -0.270 OA
HETATM    3  N   UNK N   1      20.227  19.642   2.851  0.00  0.00    -0.290 N 
ATOM      4  HN  UNK N   1      19.326  20.022   2.561  1.00  0.00     0.172 HD
HETATM    5  C   UNK N   1      22.438  19.388   3.383  0.00  0.00     0.257 A 
HETATM    6  C   UNK N   1      21.384  20.306   2.914  0.00  0.00     0.259 A 
HETATM    7  C   UNK N   1      20.460  18.437   3.223  0.00  0.00     0.220 A 
ENDROOT
BRANCH   5   8
HETATM    8  C   UNK N   1      23.897  19.557   3.608  0.00  0.00    -0.020 A 
HETATM    9  C   UNK N   1      24.634  20.416   2.787  0.00  0.00     0.010 A 
HETATM   10  C   UNK N   1      26.006  20.574   2.991  0.00  0.00     0.001 A 
HETATM   11  C   UNK N   1      26.643  19.871   4.017  0.00  0.00     0.000 A 
HETATM   12  C   UNK N   1      25.908  19.012   4.840  0.00  0.00     0.001 A 
HETATM   13  C   UNK N   1      24.535  18.854   4.636  0.00  0.00     0.010 A 
ENDBRANCH   5   8
BRANCH   7  14
HETATM   14  N   UNK N   1      19.457  17.447   3.279  0.00  0.00    -0.365 N 
HETATM   15  H   UNK N   1      19.312  16.940   4.111  0.00  0.00     0.159 HD
HETATM   16  H   UNK N   1      18.902  17.264   2.487  0.00  0.00     0.159 HD
ENDBRANCH   7  14
TORSDOF 2
ENDMDL
MODEL 7
REMARK VINA RESULT:      -5.2      3.553      5.106
REMARK  2 active torsions:
REMARK  status: ('A' for Active; 'I' for Inactive)
REMARK    1  A    between atoms: N_5  and  C_11 
REMARK    2  A    between atoms: C_6  and  C_7 
ROOT
HETATM    1  O   UNK N   1      35.283  11.272  18.535  0.00  0.00    -0.302 OA
HETATM    2  O   UNK N   1      35.191  14.690  18.553  0.00  0.00    -0.270 OA
HETATM    3  N   UNK N   1      35.299  12.947  19.985  0.00  0.00    -0.290 N 
ATOM      4  HN  UNK N   1      35.321  13.449  20.871  1.00  0.00     0.172 HD
HETATM    5  C   UNK N   1      35.228  12.411  17.761  0.00  0.00     0.257 A 
HETATM    6  C   UNK N   1      35.237  13.490  18.766  0.00  0.00     0.259 A 
HETATM    7  C   UNK N   1      35.327  11.673  19.832  0.00  0.00     0.220 A 
ENDROOT
BRANCH   5   8
HETATM    8  C   UNK N   1      35.136  12.415  16.278  0.00  0.00    -0.020 A 
HETATM    9  C   UNK N   1      34.326  11.479  15.627  0.00  0.00     0.010 A 
HETATM   10  C   UNK N   1      34.241  11.475  14.234  0.00  0.00     0.001 A 
HETATM   11  C   UNK N   1      34.968  12.408  13.489  0.00  0.00     0.000 A 
HETATM   12  C   UNK N   1      35.778  13.345  14.137  0.00  0.00     0.001 A 
HETATM   13  C   UNK N   1      35.862  13.349  15.532  0.00  0.00     0.010 A 
ENDBRANCH   5   8
BRANCH   7  14
HETATM   14  N   UNK N   1      35.393  10.774  20.917  0.00  0.00    -0.365 N 
HETATM   15  H   UNK N   1      36.148  10.819  21.547  0.00  0.00     0.159 HD
HETATM   16  H   UNK N   1      34.684  10.103  21.043  0.00  0.00     0.159 HD
ENDBRANCH   7  14
TORSDOF 2
ENDMDL
MODEL 8
REMARK VINA RESULT:      -5.2      2.858      3.711
REMARK  2 active torsions:
REMARK  status: ('A' for Active; 'I' for Inactive)
REMARK    1  A    between atoms: N_5  and  C_11 
REMARK    2  A    between atoms: C_6  and  C_7 
ROOT
HETATM    1  O   UNK N   1      34.774  14.853  12.224  0.00  0.00    -0.302 OA
HETATM    2  O   UNK N   1      37.611  13.071  11.540  0.00  0.00    -0.270 OA
HETATM    3  N   UNK N   1      36.625  15.035  11.020  0.00  0.00    -0.290 N 
ATOM      4  HN  UNK N   1      37.324  15.418  10.385  1.00  0.00     0.172 HD
HETATM    5  C   UNK N   1      35.474  13.692  12.472  0.00  0.00     0.257 A 
HETATM    6  C   UNK N   1      36.687  13.859  11.651  0.00  0.00     0.259 A 
HETATM    7  C   UNK N   1      35.521  15.591  11.362  0.00  0.00     0.220 A 
ENDROOT
BRANCH   5   8
HETATM    8  C   UNK N   1      34.990  12.591  13.345  0.00  0.00    -0.020 A 
HETATM    9  C   UNK N   1      35.018  12.739  14.735  0.00  0.00     0.010 A 
HETATM   10  C   UNK N   1      34.569  11.705  15.558  0.00  0.00     0.001 A 
HETATM   11  C   UNK N   1      34.092  10.520  14.992  0.00  0.00     0.000 A 
HETATM   12  C   UNK N   1      34.063  10.370  13.602  0.00  0.00     0.001 A 
HETATM   13  C   UNK N   1      34.512  11.404  12.778  0.00  0.00     0.010 A 
ENDBRANCH   5   8
BRANCH   7  14
HETATM   14  N   UNK N   1      35.121  16.856  10.881  0.00  0.00    -0.365 N 
HETATM   15  H   UNK N   1      34.404  16.922  10.209  0.00  0.00     0.159 HD
HETATM   16  H   UNK N   1      35.559  17.670  11.217  0.00  0.00     0.159 HD
ENDBRANCH   7  14
TORSDOF 2
ENDMDL
MODEL 9
REMARK VINA RESULT:      -5.1     26.000     27.427
REMARK  2 active torsions:
REMARK  status: ('A' for Active; 'I' for Inactive)
REMARK    1  A    between atoms: N_5  and  C_11 
REMARK    2  A    between atoms: C_6  and  C_7 
ROOT
HETATM    1  O   UNK N   1      25.799  25.748  -6.995  0.00  0.00    -0.302 OA
HETATM    2  O   UNK N   1      26.055  24.712  -3.746  0.00  0.00    -0.270 OA
HETATM    3  N   UNK N   1      25.560  23.901  -5.795  0.00  0.00    -0.290 N 
ATOM      4  HN  UNK N   1      25.373  22.928  -5.557  1.00  0.00     0.172 HD
HETATM    5  C   UNK N   1      26.089  26.125  -5.702  0.00  0.00     0.257 A 
HETATM    6  C   UNK N   1      25.913  24.871  -4.948  0.00  0.00     0.259 A 
HETATM    7  C   UNK N   1      25.501  24.423  -6.965  0.00  0.00     0.220 A 
ENDROOT
BRANCH   5   8
HETATM    8  C   UNK N   1      26.437  27.510  -5.290  0.00  0.00    -0.020 A 
HETATM    9  C   UNK N   1      27.352  28.252  -6.043  0.00  0.00     0.010 A 
HETATM   10  C   UNK N   1      27.686  29.551  -5.657  0.00  0.00     0.001 A 
HETATM   11  C   UNK N   1      27.105  30.110  -4.515  0.00  0.00     0.000 A 
HETATM   12  C   UNK N   1      26.189  29.370  -3.761  0.00  0.00     0.001 A 
HETATM   13  C   UNK N   1      25.854  28.070  -4.148  0.00  0.00     0.010 A 
ENDBRANCH   5   8
BRANCH   7  14
HETATM   14  N   UNK N   1      25.154  23.683  -8.116  0.00  0.00    -0.365 N 
HETATM   15  H   UNK N   1      25.324  22.714  -8.147  0.00  0.00     0.159 HD
HETATM   16  H   UNK N   1      24.743  24.136  -8.886  0.00  0.00     0.159 HD
ENDBRANCH   7  14
TORSDOF 2
ENDMDL
