MODEL 1
REMARK VINA RESULT:      -5.5      0.000      0.000
REMARK  4 active torsions:
REMARK  status: ('A' for Active; 'I' for Inactive)
REMARK    1  A    between atoms: C_6  and  C_7 
REMARK    2  A    between atoms: C_6  and  C_9 
REMARK    3  A    between atoms: C_7  and  C_8 
REMARK    4  A    between atoms: C_8  and  C_10 
ROOT
HETATM    1  O   UNK N   1      30.165  24.658  -5.679  0.00  0.00    -0.272 OA
HETATM    2  O   UNK N   1      26.326  23.949  -3.092  0.00  0.00    -0.272 OA
HETATM    3  O   UNK N   1      30.397  23.021  -1.552  0.00  0.00    -0.247 OA
HETATM    4  N   UNK N   1      30.288  23.814  -3.628  0.00  0.00    -0.278 N 
HETATM    5  N   UNK N   1      28.355  23.450  -2.327  0.00  0.00    -0.278 N 
HETATM    6  C   UNK N   1      28.105  24.693  -4.483  0.00  0.00     0.122 C 
HETATM    7  C   UNK N   1      29.582  24.357  -4.648  0.00  0.00     0.243 C 
HETATM    8  C   UNK N   1      27.534  23.978  -3.271  0.00  0.00     0.243 C 
HETATM    9  C   UNK N   1      29.702  23.426  -2.470  0.00  0.00     0.329 C 
HETATM   10  H   UNK N   1      31.261  23.697  -3.731  0.00  0.00     0.173 HD
HETATM   11  H   UNK N   1      27.957  23.071  -1.512  0.00  0.00     0.173 HD
ENDROOT
BRANCH   6  12
HETATM   12  C   UNK N   1      27.957  26.197  -4.193  0.00  0.00     0.029 C 
BRANCH  12  13
HETATM   13  C   UNK N   1      27.292  26.986  -5.318  0.00  0.00     0.005 C 
BRANCH  13  14
HETATM   14  C   UNK N   1      26.056  27.723  -4.847  0.00  0.00    -0.023 C 
HETATM   15  C   UNK N   1      24.859  27.159  -5.579  0.00  0.00     0.009 C 
HETATM   16  C   UNK N   1      25.852  27.524  -3.358  0.00  0.00     0.009 C 
ENDBRANCH  13  14
ENDBRANCH  12  13
ENDBRANCH   6  12
BRANCH   6  17
HETATM   17  C   UNK N   1      27.296  24.370  -5.754  0.00  0.00     0.024 C 
HETATM   18  C   UNK N   1      27.473  22.956  -6.274  0.00  0.00     0.007 C 
ENDBRANCH   6  17
TORSDOF 4
ENDMDL
MODEL 2
REMARK VINA RESULT:      -5.5     13.804     15.439
REMARK  4 active torsions:
REMARK  status: ('A' for Active; 'I' for Inactive)
REMARK    1  A    between atoms: C_6  and  C_7 
REMARK    2  A    between atoms: C_6  and  C_9 
REMARK    3  A    between atoms: C_7  and  C_8 
REMARK    4  A    between atoms: C_8  and  C_10 
ROOT
HETATM    1  O   UNK N   1      33.756  17.974   6.257  0.00  0.00    -0.272 OA
HETATM    2  O   UNK N   1      31.934  15.126   9.498  0.00  0.00    -0.272 OA
HETATM    3  O   UNK N   1      35.665  17.437  10.235  0.00  0.00    -0.247 OA
HETATM    4  N   UNK N   1      34.731  17.690   8.232  0.00  0.00    -0.278 N 
HETATM    5  N   UNK N   1      33.818  16.251   9.862  0.00  0.00    -0.278 N 
HETATM    6  C   UNK N   1      32.460  16.721   7.816  0.00  0.00     0.122 C 
HETATM    7  C   UNK N   1      33.707  17.477   7.372  0.00  0.00     0.243 C 
HETATM    8  C   UNK N   1      32.736  15.956   9.098  0.00  0.00     0.243 C 
HETATM    9  C   UNK N   1      34.760  17.144   9.470  0.00  0.00     0.329 C 
HETATM   10  H   UNK N   1      35.481  18.263   7.947  0.00  0.00     0.173 HD
HETATM   11  H   UNK N   1      33.923  15.800  10.730  0.00  0.00     0.173 HD
ENDROOT
BRANCH   6  12
HETATM   12  C   UNK N   1      31.351  17.732   8.158  0.00  0.00     0.029 C 
BRANCH  12  13
HETATM   13  C   UNK N   1      29.973  17.349   7.624  0.00  0.00     0.005 C 
BRANCH  13  14
HETATM   14  C   UNK N   1      28.853  17.899   8.483  0.00  0.00    -0.023 C 
HETATM   15  C   UNK N   1      29.457  18.450   9.755  0.00  0.00     0.009 C 
HETATM   16  C   UNK N   1      28.133  19.022   7.762  0.00  0.00     0.009 C 
ENDBRANCH  13  14
ENDBRANCH  12  13
ENDBRANCH   6  12
BRANCH   6  17
HETATM   17  C   UNK N   1      31.930  15.786   6.710  0.00  0.00     0.024 C 
HETATM   18  C   UNK N   1      32.885  14.679   6.307  0.00  0.00     0.007 C 
ENDBRANCH   6  17
TORSDOF 4
ENDMDL
MODEL 3
REMARK VINA RESULT:      -5.4     13.927     16.112
REMARK  4 active torsions:
REMARK  status: ('A' for Active; 'I' for Inactive)
REMARK    1  A    between atoms: C_6  and  C_7 
REMARK    2  A    between atoms: C_6  and  C_9 
REMARK    3  A    between atoms: C_7  and  C_8 
REMARK    4  A    between atoms: C_8  and  C_10 
ROOT
HETATM    1  O   UNK N   1      32.312  15.036   8.740  0.00  0.00    -0.272 OA
HETATM    2  O   UNK N   1      34.793  18.980   8.269  0.00  0.00    -0.272 OA
HETATM    3  O   UNK N   1      35.656  16.035  11.492  0.00  0.00    -0.247 OA
HETATM    4  N   UNK N   1      33.964  15.541  10.136  0.00  0.00    -0.278 N 
HETATM    5  N   UNK N   1      35.209  17.530   9.904  0.00  0.00    -0.278 N 
HETATM    6  C   UNK N   1      33.597  16.933   8.088  0.00  0.00     0.122 C 
HETATM    7  C   UNK N   1      33.228  15.792   9.027  0.00  0.00     0.243 C 
HETATM    8  C   UNK N   1      34.548  17.896   8.776  0.00  0.00     0.243 C 
HETATM    9  C   UNK N   1      34.971  16.353  10.533  0.00  0.00     0.329 C 
HETATM   10  H   UNK N   1      33.760  14.739  10.672  0.00  0.00     0.173 HD
HETATM   11  H   UNK N   1      35.883  18.141  10.278  0.00  0.00     0.173 HD
ENDROOT
BRANCH   6  12
HETATM   12  C   UNK N   1      34.369  16.368   6.882  0.00  0.00     0.029 C 
BRANCH  12  13
HETATM   13  C   UNK N   1      33.852  16.849   5.529  0.00  0.00     0.005 C 
BRANCH  13  14
HETATM   14  C   UNK N   1      33.633  15.706   4.561  0.00  0.00    -0.023 C 
HETATM   15  C   UNK N   1      32.551  14.809   5.121  0.00  0.00     0.009 C 
HETATM   16  C   UNK N   1      33.179  16.230   3.213  0.00  0.00     0.009 C 
ENDBRANCH  13  14
ENDBRANCH  12  13
ENDBRANCH   6  12
BRANCH   6  17
HETATM   17  C   UNK N   1      32.350  17.665   7.555  0.00  0.00     0.024 C 
HETATM   18  C   UNK N   1      31.379  18.124   8.626  0.00  0.00     0.007 C 
ENDBRANCH   6  17
TORSDOF 4
ENDMDL
MODEL 4
REMARK VINA RESULT:      -5.2     21.702     24.464
REMARK  4 active torsions:
REMARK  status: ('A' for Active; 'I' for Inactive)
REMARK    1  A    between atoms: C_6  and  C_7 
REMARK    2  A    between atoms: C_6  and  C_9 
REMARK    3  A    between atoms: C_7  and  C_8 
REMARK    4  A    between atoms: C_8  and  C_10 
ROOT
HETATM    1  O   UNK N   1      37.434  14.733  15.859  0.00  0.00    -0.272 OA
HETATM    2  O   UNK N   1      33.948  11.904  14.527  0.00  0.00    -0.272 OA
HETATM    3  O   UNK N   1      36.225  14.363  11.597  0.00  0.00    -0.247 OA
HETATM    4  N   UNK N   1      36.818  14.575  13.731  0.00  0.00    -0.278 N 
HETATM    5  N   UNK N   1      35.058  13.156  13.060  0.00  0.00    -0.278 N 
HETATM    6  C   UNK N   1      35.855  13.002  15.425  0.00  0.00     0.122 C 
HETATM    7  C   UNK N   1      36.732  14.183  15.024  0.00  0.00     0.243 C 
HETATM    8  C   UNK N   1      34.871  12.676  14.316  0.00  0.00     0.243 C 
HETATM    9  C   UNK N   1      36.047  14.033  12.759  0.00  0.00     0.329 C 
HETATM   10  H   UNK N   1      37.465  15.278  13.488  0.00  0.00     0.173 HD
HETATM   11  H   UNK N   1      34.454  12.857  12.343  0.00  0.00     0.173 HD
ENDROOT
BRANCH   6  12
HETATM   12  C   UNK N   1      36.736  11.751  15.589  0.00  0.00     0.029 C 
BRANCH  12  13
HETATM   13  C   UNK N   1      37.702  11.512  14.431  0.00  0.00     0.005 C 
BRANCH  13  14
HETATM   14  C   UNK N   1      37.785  10.050  14.046  0.00  0.00    -0.023 C 
HETATM   15  C   UNK N   1      39.004   9.452  14.713  0.00  0.00     0.009 C 
HETATM   16  C   UNK N   1      36.556   9.303  14.525  0.00  0.00     0.009 C 
ENDBRANCH  13  14
ENDBRANCH  12  13
ENDBRANCH   6  12
BRANCH   6  17
HETATM   17  C   UNK N   1      35.129  13.253  16.761  0.00  0.00     0.024 C 
HETATM   18  C   UNK N   1      35.272  12.137  17.778  0.00  0.00     0.007 C 
ENDBRANCH   6  17
TORSDOF 4
ENDMDL
MODEL 5
REMARK VINA RESULT:      -5.0     12.651     14.280
REMARK  4 active torsions:
REMARK  status: ('A' for Active; 'I' for Inactive)
REMARK    1  A    between atoms: C_6  and  C_7 
REMARK    2  A    between atoms: C_6  and  C_9 
REMARK    3  A    between atoms: C_7  and  C_8 
REMARK    4  A    between atoms: C_8  and  C_10 
ROOT
HETATM    1  O   UNK N   1      34.352  15.437   6.083  0.00  0.00    -0.272 OA
HETATM    2  O   UNK N   1      30.826  17.616   8.263  0.00  0.00    -0.272 OA
HETATM    3  O   UNK N   1      34.996  19.164   8.418  0.00  0.00    -0.247 OA
HETATM    4  N   UNK N   1      34.688  17.284   7.270  0.00  0.00    -0.278 N 
HETATM    5  N   UNK N   1      32.914  18.377   8.374  0.00  0.00    -0.278 N 
HETATM    6  C   UNK N   1      32.352  16.501   6.821  0.00  0.00     0.122 C 
HETATM    7  C   UNK N   1      33.866  16.354   6.727  0.00  0.00     0.243 C 
HETATM    8  C   UNK N   1      31.985  17.513   7.891  0.00  0.00     0.243 C 
HETATM    9  C   UNK N   1      34.221  18.307   8.024  0.00  0.00     0.329 C 
HETATM   10  H   UNK N   1      35.657  17.213   7.112  0.00  0.00     0.173 HD
HETATM   11  H   UNK N   1      32.627  19.079   9.002  0.00  0.00     0.173 HD
ENDROOT
BRANCH   6  12
HETATM   12  C   UNK N   1      31.816  17.074   5.497  0.00  0.00     0.029 C 
BRANCH  12  13
HETATM   13  C   UNK N   1      32.906  17.500   4.516  0.00  0.00     0.005 C 
BRANCH  13  14
HETATM   14  C   UNK N   1      32.627  17.020   3.107  0.00  0.00    -0.023 C 
HETATM   15  C   UNK N   1      33.408  15.746   2.877  0.00  0.00     0.009 C 
HETATM   16  C   UNK N   1      31.151  16.724   2.927  0.00  0.00     0.009 C 
ENDBRANCH  13  14
ENDBRANCH  12  13
ENDBRANCH   6  12
BRANCH   6  17
HETATM   17  C   UNK N   1      31.658  15.147   7.070  0.00  0.00     0.024 C 
HETATM   18  C   UNK N   1      30.837  14.633   5.904  0.00  0.00     0.007 C 
ENDBRANCH   6  17
TORSDOF 4
ENDMDL
MODEL 6
REMARK VINA RESULT:      -5.0      2.618      5.405
REMARK  4 active torsions:
REMARK  status: ('A' for Active; 'I' for Inactive)
REMARK    1  A    between atoms: C_6  and  C_7 
REMARK    2  A    between atoms: C_6  and  C_9 
REMARK    3  A    between atoms: C_7  and  C_8 
REMARK    4  A    between atoms: C_8  and  C_10 
ROOT
HETATM    1  O   UNK N   1      29.434  23.815  -6.130  0.00  0.00    -0.272 OA
HETATM    2  O   UNK N   1      30.664  22.932  -1.698  0.00  0.00    -0.272 OA
HETATM    3  O   UNK N   1      26.499  24.050  -2.800  0.00  0.00    -0.247 OA
HETATM    4  N   UNK N   1      27.968  23.962  -4.469  0.00  0.00    -0.278 N 
HETATM    5  N   UNK N   1      28.588  23.524  -2.236  0.00  0.00    -0.278 N 
HETATM    6  C   UNK N   1      30.246  23.017  -4.037  0.00  0.00     0.122 C 
HETATM    7  C   UNK N   1      29.199  23.655  -4.942  0.00  0.00     0.243 C 
HETATM    8  C   UNK N   1      29.856  23.186  -2.579  0.00  0.00     0.243 C 
HETATM    9  C   UNK N   1      27.647  23.841  -3.159  0.00  0.00     0.329 C 
HETATM   10  H   UNK N   1      27.282  24.283  -5.099  0.00  0.00     0.173 HD
HETATM   11  H   UNK N   1      28.343  23.540  -1.283  0.00  0.00     0.173 HD
ENDROOT
BRANCH   6  12
HETATM   12  C   UNK N   1      30.279  21.499  -4.291  0.00  0.00     0.029 C 
BRANCH  12  13
HETATM   13  C   UNK N   1      31.501  21.024  -5.073  0.00  0.00     0.005 C 
BRANCH  13  14
HETATM   14  C   UNK N   1      31.142  20.010  -6.137  0.00  0.00    -0.023 C 
HETATM   15  C   UNK N   1      29.837  20.433  -6.775  0.00  0.00     0.009 C 
HETATM   16  C   UNK N   1      32.212  19.962  -7.210  0.00  0.00     0.009 C 
ENDBRANCH  13  14
ENDBRANCH  12  13
ENDBRANCH   6  12
BRANCH   6  17
HETATM   17  C   UNK N   1      31.657  23.577  -4.307  0.00  0.00     0.024 C 
HETATM   18  C   UNK N   1      31.759  25.089  -4.247  0.00  0.00     0.007 C 
ENDBRANCH   6  17
TORSDOF 4
ENDMDL
MODEL 7
REMARK VINA RESULT:      -4.9     13.043     15.189
REMARK  4 active torsions:
REMARK  status: ('A' for Active; 'I' for Inactive)
REMARK    1  A    between atoms: C_6  and  C_7 
REMARK    2  A    between atoms: C_6  and  C_9 
REMARK    3  A    between atoms: C_7  and  C_8 
REMARK    4  A    between atoms: C_8  and  C_10 
ROOT
HETATM    1  O   UNK N   1      31.579  14.330   6.882  0.00  0.00    -0.272 OA
HETATM    2  O   UNK N   1      33.031  18.558   8.279  0.00  0.00    -0.272 OA
HETATM    3  O   UNK N   1      34.117  14.854  10.494  0.00  0.00    -0.247 OA
HETATM    4  N   UNK N   1      32.824  14.585   8.704  0.00  0.00    -0.278 N 
HETATM    5  N   UNK N   1      33.550  16.715   9.411  0.00  0.00    -0.278 N 
HETATM    6  C   UNK N   1      32.429  16.535   7.184  0.00  0.00     0.122 C 
HETATM    7  C   UNK N   1      32.223  15.083   7.598  0.00  0.00     0.243 C 
HETATM    8  C   UNK N   1      32.994  17.338   8.342  0.00  0.00     0.243 C 
HETATM    9  C   UNK N   1      33.524  15.367   9.559  0.00  0.00     0.329 C 
HETATM   10  H   UNK N   1      32.750  13.621   8.893  0.00  0.00     0.173 HD
HETATM   11  H   UNK N   1      33.986  17.260  10.105  0.00  0.00     0.173 HD
ENDROOT
BRANCH   6  12
HETATM   12  C   UNK N   1      33.489  16.599   6.070  0.00  0.00     0.029 C 
BRANCH  12  13
HETATM   13  C   UNK N   1      33.110  17.501   4.898  0.00  0.00     0.005 C 
BRANCH  13  14
HETATM   14  C   UNK N   1      33.114  16.759   3.579  0.00  0.00    -0.023 C 
HETATM   15  C   UNK N   1      33.527  15.327   3.840  0.00  0.00     0.009 C 
HETATM   16  C   UNK N   1      31.728  16.758   2.964  0.00  0.00     0.009 C 
ENDBRANCH  13  14
ENDBRANCH  12  13
ENDBRANCH   6  12
BRANCH   6  17
HETATM   17  C   UNK N   1      31.132  17.170   6.645  0.00  0.00     0.024 C 
HETATM   18  C   UNK N   1      29.997  17.241   7.649  0.00  0.00     0.007 C 
ENDBRANCH   6  17
TORSDOF 4
ENDMDL
MODEL 8
REMARK VINA RESULT:      -4.9      2.226      4.812
REMARK  4 active torsions:
REMARK  status: ('A' for Active; 'I' for Inactive)
REMARK    1  A    between atoms: C_6  and  C_7 
REMARK    2  A    between atoms: C_6  and  C_9 
REMARK    3  A    between atoms: C_7  and  C_8 
REMARK    4  A    between atoms: C_8  and  C_10 
ROOT
HETATM    1  O   UNK N   1      26.442  24.012  -2.965  0.00  0.00    -0.272 OA
HETATM    2  O   UNK N   1      28.366  26.436  -6.479  0.00  0.00    -0.272 OA
HETATM    3  O   UNK N   1      26.415  28.457  -3.027  0.00  0.00    -0.247 OA
HETATM    4  N   UNK N   1      26.400  26.232  -3.001  0.00  0.00    -0.278 N 
HETATM    5  N   UNK N   1      27.363  27.454  -4.774  0.00  0.00    -0.278 N 
HETATM    6  C   UNK N   1      27.755  24.985  -4.698  0.00  0.00     0.122 C 
HETATM    7  C   UNK N   1      26.795  25.044  -3.516  0.00  0.00     0.243 C 
HETATM    8  C   UNK N   1      27.820  26.335  -5.391  0.00  0.00     0.243 C 
HETATM    9  C   UNK N   1      26.726  27.413  -3.578  0.00  0.00     0.329 C 
HETATM   10  H   UNK N   1      25.857  26.238  -2.179  0.00  0.00     0.173 HD
HETATM   11  H   UNK N   1      27.497  28.325  -5.211  0.00  0.00     0.173 HD
ENDROOT
BRANCH   6  12
HETATM   12  C   UNK N   1      29.179  24.709  -4.181  0.00  0.00     0.029 C 
BRANCH  12  13
HETATM   13  C   UNK N   1      29.718  23.329  -4.550  0.00  0.00     0.005 C 
BRANCH  13  14
HETATM   14  C   UNK N   1      30.458  22.678  -3.401  0.00  0.00    -0.023 C 
HETATM   15  C   UNK N   1      29.708  22.976  -2.122  0.00  0.00     0.009 C 
HETATM   16  C   UNK N   1      30.518  21.175  -3.589  0.00  0.00     0.009 C 
ENDBRANCH  13  14
ENDBRANCH  12  13
ENDBRANCH   6  12
BRANCH   6  17
HETATM   17  C   UNK N   1      27.381  23.866  -5.688  0.00  0.00     0.024 C 
HETATM   18  C   UNK N   1      25.988  23.982  -6.278  0.00  0.00     0.007 C 
ENDBRANCH   6  17
TORSDOF 4
ENDMDL
MODEL 9
REMARK VINA RESULT:      -4.8      1.259      3.691
REMARK  4 active torsions:
REMARK  status: ('A' for Active; 'I' for Inactive)
REMARK    1  A    between atoms: C_6  and  C_7 
REMARK    2  A    between atoms: C_6  and  C_9 
REMARK    3  A    between atoms: C_7  and  C_8 
REMARK    4  A    between atoms: C_8  and  C_10 
ROOT
HETATM    1  O   UNK N   1      26.502  23.954  -2.831  0.00  0.00    -0.272 OA
HETATM    2  O   UNK N   1      30.107  25.315  -5.494  0.00  0.00    -0.272 OA
HETATM    3  O   UNK N   1      30.692  22.852  -1.833  0.00  0.00    -0.247 OA
HETATM    4  N   UNK N   1      28.595  23.422  -2.310  0.00  0.00    -0.278 N 
HETATM    5  N   UNK N   1      30.411  24.113  -3.646  0.00  0.00    -0.278 N 
HETATM    6  C   UNK N   1      28.098  24.506  -4.512  0.00  0.00     0.122 C 
HETATM    7  C   UNK N   1      27.683  23.971  -3.147  0.00  0.00     0.243 C 
HETATM    8  C   UNK N   1      29.603  24.699  -4.566  0.00  0.00     0.243 C 
HETATM    9  C   UNK N   1      29.921  23.435  -2.579  0.00  0.00     0.329 C 
HETATM   10  H   UNK N   1      28.283  22.999  -1.477  0.00  0.00     0.173 HD
HETATM   11  H   UNK N   1      31.386  24.183  -3.758  0.00  0.00     0.173 HD
ENDROOT
BRANCH   6  12
HETATM   12  C   UNK N   1      27.769  23.457  -5.589  0.00  0.00     0.029 C 
BRANCH  12  13
HETATM   13  C   UNK N   1      26.308  23.456  -6.033  0.00  0.00     0.005 C 
BRANCH  13  14
HETATM   14  C   UNK N   1      26.119  22.790  -7.379  0.00  0.00    -0.023 C 
HETATM   15  C   UNK N   1      25.018  21.761  -7.250  0.00  0.00     0.009 C 
HETATM   16  C   UNK N   1      25.710  23.809  -8.425  0.00  0.00     0.009 C 
ENDBRANCH  13  14
ENDBRANCH  12  13
ENDBRANCH   6  12
BRANCH   6  17
HETATM   17  C   UNK N   1      27.355  25.807  -4.870  0.00  0.00     0.024 C 
HETATM   18  C   UNK N   1      27.605  26.962  -3.918  0.00  0.00     0.007 C 
ENDBRANCH   6  17
TORSDOF 4
ENDMDL
