MODEL 1
REMARK VINA RESULT:      -5.6      0.000      0.000
REMARK  4 active torsions:
REMARK  status: ('A' for Active; 'I' for Inactive)
REMARK    1  A    between atoms: C_6  and  C_7 
REMARK    2  A    between atoms: C_6  and  C_8 
REMARK    3  A    between atoms: C_7  and  C_9 
REMARK    4  A    between atoms: C_9  and  C_12 
ROOT
HETATM    1  O   UNK N   1      37.420  14.537  15.796  0.00  0.00    -0.272 OA
HETATM    2  O   UNK N   1      34.313  11.646  13.746  0.00  0.00    -0.272 OA
HETATM    3  O   UNK N   1      36.017  15.158  11.628  0.00  0.00    -0.247 OA
HETATM    4  N   UNK N   1      36.717  14.846  13.715  0.00  0.00    -0.278 N 
HETATM    5  N   UNK N   1      35.156  13.407  12.694  0.00  0.00    -0.278 N 
HETATM    6  C   UNK N   1      35.875  12.889  15.045  0.00  0.00     0.122 A 
HETATM    7  C   UNK N   1      36.722  14.144  14.873  0.00  0.00     0.243 A 
HETATM    8  C   UNK N   1      35.057  12.614  13.787  0.00  0.00     0.243 A 
HETATM    9  C   UNK N   1      35.965  14.491  12.647  0.00  0.00     0.329 A 
HETATM   10  H   UNK N   1      37.283  15.649  13.647  0.00  0.00     0.173 HD
HETATM   11  H   UNK N   1      34.616  13.187  11.900  0.00  0.00     0.173 HD
ENDROOT
BRANCH   6  12
HETATM   12  C   UNK N   1      34.944  13.121  16.254  0.00  0.00     0.029 C 
BRANCH  12  13
HETATM   13  C   UNK N   1      35.218  12.206  17.445  0.00  0.00     0.001 C 
BRANCH  13  14
HETATM   14  C   UNK N   1      35.219  12.994  18.739  0.00  0.00    -0.005 C 
HETATM   15  C   UNK N   1      35.230  14.480  18.435  0.00  0.00     0.005 C 
ENDBRANCH  13  14
ENDBRANCH  12  13
ENDBRANCH   6  12
BRANCH   6  16
HETATM   16  C   UNK N   1      36.786  11.663  15.266  0.00  0.00     0.024 C 
HETATM   17  C   UNK N   1      37.820  11.430  14.173  0.00  0.00     0.007 C 
ENDBRANCH   6  16
TORSDOF 4
ENDMDL
MODEL 2
REMARK VINA RESULT:      -5.2      6.505      9.435
REMARK  4 active torsions:
REMARK  status: ('A' for Active; 'I' for Inactive)
REMARK    1  A    between atoms: C_6  and  C_7 
REMARK    2  A    between atoms: C_6  and  C_8 
REMARK    3  A    between atoms: C_7  and  C_9 
REMARK    4  A    between atoms: C_9  and  C_12 
ROOT
HETATM    1  O   UNK N   1      34.424  18.298   6.970  0.00  0.00    -0.272 OA
HETATM    2  O   UNK N   1      32.297  14.571   8.919  0.00  0.00    -0.272 OA
HETATM    3  O   UNK N   1      35.326  16.968  11.110  0.00  0.00    -0.247 OA
HETATM    4  N   UNK N   1      34.875  17.631   9.037  0.00  0.00    -0.278 N 
HETATM    5  N   UNK N   1      33.819  15.762  10.008  0.00  0.00    -0.278 N 
HETATM    6  C   UNK N   1      33.163  16.403   7.669  0.00  0.00     0.122 A 
HETATM    7  C   UNK N   1      34.194  17.507   7.873  0.00  0.00     0.243 A 
HETATM    8  C   UNK N   1      33.073  15.514   8.905  0.00  0.00     0.243 A 
HETATM    9  C   UNK N   1      34.693  16.792  10.083  0.00  0.00     0.329 A 
HETATM   10  H   UNK N   1      35.529  18.362   9.126  0.00  0.00     0.173 HD
HETATM   11  H   UNK N   1      33.722  15.167  10.786  0.00  0.00     0.173 HD
ENDROOT
BRANCH   6  12
HETATM   12  C   UNK N   1      33.603  15.579   6.441  0.00  0.00     0.029 C 
BRANCH  12  13
HETATM   13  C   UNK N   1      32.567  15.513   5.321  0.00  0.00     0.001 C 
BRANCH  13  14
HETATM   14  C   UNK N   1      33.108  16.136   4.051  0.00  0.00    -0.005 C 
HETATM   15  C   UNK N   1      32.652  17.579   3.952  0.00  0.00     0.005 C 
ENDBRANCH  13  14
ENDBRANCH  12  13
ENDBRANCH   6  12
BRANCH   6  16
HETATM   16  C   UNK N   1      31.764  17.021   7.457  0.00  0.00     0.024 C 
HETATM   17  C   UNK N   1      31.296  17.942   8.576  0.00  0.00     0.007 C 
ENDBRANCH   6  16
TORSDOF 4
ENDMDL
MODEL 3
REMARK VINA RESULT:      -5.2      7.052      8.964
REMARK  4 active torsions:
REMARK  status: ('A' for Active; 'I' for Inactive)
REMARK    1  A    between atoms: C_6  and  C_7 
REMARK    2  A    between atoms: C_6  and  C_8 
REMARK    3  A    between atoms: C_7  and  C_9 
REMARK    4  A    between atoms: C_9  and  C_12 
ROOT
HETATM    1  O   UNK N   1      31.971  15.020   9.536  0.00  0.00    -0.272 OA
HETATM    2  O   UNK N   1      33.642  18.043   6.329  0.00  0.00    -0.272 OA
HETATM    3  O   UNK N   1      35.634  17.427  10.250  0.00  0.00    -0.247 OA
HETATM    4  N   UNK N   1      33.800  16.224   9.892  0.00  0.00    -0.278 N 
HETATM    5  N   UNK N   1      34.629  17.743   8.293  0.00  0.00    -0.278 N 
HETATM    6  C   UNK N   1      32.567  16.429   7.712  0.00  0.00     0.122 A 
HETATM    7  C   UNK N   1      32.763  15.845   9.106  0.00  0.00     0.243 A 
HETATM    8  C   UNK N   1      33.644  17.464   7.405  0.00  0.00     0.243 A 
HETATM    9  C   UNK N   1      34.716  17.141   9.502  0.00  0.00     0.329 A 
HETATM   10  H   UNK N   1      33.889  15.818  10.784  0.00  0.00     0.173 HD
HETATM   11  H   UNK N   1      35.309  18.412   8.049  0.00  0.00     0.173 HD
ENDROOT
BRANCH   6  12
HETATM   12  C   UNK N   1      31.167  17.079   7.675  0.00  0.00     0.029 C 
BRANCH  12  13
HETATM   13  C   UNK N   1      30.973  18.215   8.677  0.00  0.00     0.001 C 
BRANCH  13  14
HETATM   14  C   UNK N   1      29.709  18.006   9.486  0.00  0.00    -0.005 C 
HETATM   15  C   UNK N   1      28.514  18.538   8.718  0.00  0.00     0.005 C 
ENDBRANCH  13  14
ENDBRANCH  12  13
ENDBRANCH   6  12
BRANCH   6  16
HETATM   16  C   UNK N   1      32.698  15.317   6.651  0.00  0.00     0.024 C 
HETATM   17  C   UNK N   1      31.381  14.858   6.039  0.00  0.00     0.007 C 
ENDBRANCH   6  16
TORSDOF 4
ENDMDL
MODEL 4
REMARK VINA RESULT:      -5.2      0.778      3.613
REMARK  4 active torsions:
REMARK  status: ('A' for Active; 'I' for Inactive)
REMARK    1  A    between atoms: C_6  and  C_7 
REMARK    2  A    between atoms: C_6  and  C_8 
REMARK    3  A    between atoms: C_7  and  C_9 
REMARK    4  A    between atoms: C_9  and  C_12 
ROOT
HETATM    1  O   UNK N   1      34.336  11.665  13.811  0.00  0.00    -0.272 OA
HETATM    2  O   UNK N   1      37.461  14.575  15.806  0.00  0.00    -0.272 OA
HETATM    3  O   UNK N   1      35.929  15.226  11.688  0.00  0.00    -0.247 OA
HETATM    4  N   UNK N   1      35.134  13.443  12.752  0.00  0.00    -0.278 N 
HETATM    5  N   UNK N   1      36.704  14.892  13.745  0.00  0.00    -0.278 N 
HETATM    6  C   UNK N   1      35.874  12.945  15.100  0.00  0.00     0.122 A 
HETATM    7  C   UNK N   1      35.064  12.646  13.844  0.00  0.00     0.243 A 
HETATM    8  C   UNK N   1      36.738  14.187  14.901  0.00  0.00     0.243 A 
HETATM    9  C   UNK N   1      35.923  14.541  12.697  0.00  0.00     0.329 A 
HETATM   10  H   UNK N   1      34.589  13.213  11.964  0.00  0.00     0.173 HD
HETATM   11  H   UNK N   1      37.271  15.692  13.663  0.00  0.00     0.173 HD
ENDROOT
BRANCH   6  12
HETATM   12  C   UNK N   1      36.758  11.712  15.386  0.00  0.00     0.029 C 
BRANCH  12  13
HETATM   13  C   UNK N   1      37.801  11.421  14.309  0.00  0.00     0.001 C 
BRANCH  13  14
HETATM   14  C   UNK N   1      38.520  10.119  14.597  0.00  0.00    -0.005 C 
HETATM   15  C   UNK N   1      37.664   9.247  15.495  0.00  0.00     0.005 C 
ENDBRANCH  13  14
ENDBRANCH  12  13
ENDBRANCH   6  12
BRANCH   6  16
HETATM   16  C   UNK N   1      34.927  13.242  16.281  0.00  0.00     0.024 C 
HETATM   17  C   UNK N   1      35.172  12.399  17.526  0.00  0.00     0.007 C 
ENDBRANCH   6  16
TORSDOF 4
ENDMDL
MODEL 5
REMARK VINA RESULT:      -5.0      6.927      9.635
REMARK  4 active torsions:
REMARK  status: ('A' for Active; 'I' for Inactive)
REMARK    1  A    between atoms: C_6  and  C_7 
REMARK    2  A    between atoms: C_6  and  C_8 
REMARK    3  A    between atoms: C_7  and  C_9 
REMARK    4  A    between atoms: C_9  and  C_12 
ROOT
HETATM    1  O   UNK N   1      32.305  14.561   8.817  0.00  0.00    -0.272 OA
HETATM    2  O   UNK N   1      34.326  18.030   6.346  0.00  0.00    -0.272 OA
HETATM    3  O   UNK N   1      35.245  17.349  10.638  0.00  0.00    -0.247 OA
HETATM    4  N   UNK N   1      33.772  15.956   9.725  0.00  0.00    -0.278 N 
HETATM    5  N   UNK N   1      34.775  17.695   8.493  0.00  0.00    -0.278 N 
HETATM    6  C   UNK N   1      33.162  16.183   7.299  0.00  0.00     0.122 A 
HETATM    7  C   UNK N   1      33.055  15.514   8.664  0.00  0.00     0.243 A 
HETATM    8  C   UNK N   1      34.119  17.369   7.353  0.00  0.00     0.243 A 
HETATM    9  C   UNK N   1      34.616  17.011   9.649  0.00  0.00     0.329 A 
HETATM   10  H   UNK N   1      33.675  15.490  10.588  0.00  0.00     0.173 HD
HETATM   11  H   UNK N   1      35.390  18.464   8.480  0.00  0.00     0.173 HD
ENDROOT
BRANCH   6  12
HETATM   12  C   UNK N   1      31.746  16.649   6.900  0.00  0.00     0.029 C 
BRANCH  12  13
HETATM   13  C   UNK N   1      31.336  16.273   5.478  0.00  0.00     0.001 C 
BRANCH  13  14
HETATM   14  C   UNK N   1      31.368  17.485   4.571  0.00  0.00    -0.005 C 
HETATM   15  C   UNK N   1      32.338  17.248   3.430  0.00  0.00     0.005 C 
ENDBRANCH  13  14
ENDBRANCH  12  13
ENDBRANCH   6  12
BRANCH   6  16
HETATM   16  C   UNK N   1      33.737  15.189   6.268  0.00  0.00     0.024 C 
HETATM   17  C   UNK N   1      35.119  14.646   6.604  0.00  0.00     0.007 C 
ENDBRANCH   6  16
TORSDOF 4
ENDMDL
MODEL 6
REMARK VINA RESULT:      -4.9     20.969     23.730
REMARK  4 active torsions:
REMARK  status: ('A' for Active; 'I' for Inactive)
REMARK    1  A    between atoms: C_6  and  C_7 
REMARK    2  A    between atoms: C_6  and  C_8 
REMARK    3  A    between atoms: C_7  and  C_9 
REMARK    4  A    between atoms: C_9  and  C_12 
ROOT
HETATM    1  O   UNK N   1      26.580  23.871  -3.002  0.00  0.00    -0.272 OA
HETATM    2  O   UNK N   1      30.464  25.456  -5.151  0.00  0.00    -0.272 OA
HETATM    3  O   UNK N   1      30.655  22.813  -1.586  0.00  0.00    -0.247 OA
HETATM    4  N   UNK N   1      28.616  23.345  -2.295  0.00  0.00    -0.278 N 
HETATM    5  N   UNK N   1      30.557  24.146  -3.363  0.00  0.00    -0.278 N 
HETATM    6  C   UNK N   1      28.329  24.807  -4.318  0.00  0.00     0.122 A 
HETATM    7  C   UNK N   1      27.787  23.974  -3.162  0.00  0.00     0.243 A 
HETATM    8  C   UNK N   1      29.854  24.830  -4.297  0.00  0.00     0.243 A 
HETATM    9  C   UNK N   1      29.964  23.416  -2.390  0.00  0.00     0.329 A 
HETATM   10  H   UNK N   1      28.221  22.814  -1.565  0.00  0.00     0.173 HD
HETATM   11  H   UNK N   1      31.541  24.181  -3.393  0.00  0.00     0.173 HD
ENDROOT
BRANCH   6  12
HETATM   12  C   UNK N   1      27.765  26.236  -4.163  0.00  0.00     0.029 C 
BRANCH  12  13
HETATM   13  C   UNK N   1      26.947  26.723  -5.357  0.00  0.00     0.001 C 
BRANCH  13  14
HETATM   14  C   UNK N   1      25.538  27.081  -4.931  0.00  0.00    -0.005 C 
HETATM   15  C   UNK N   1      25.584  28.022  -3.743  0.00  0.00     0.005 C 
ENDBRANCH  13  14
ENDBRANCH  12  13
ENDBRANCH   6  12
BRANCH   6  16
HETATM   16  C   UNK N   1      27.907  24.180  -5.663  0.00  0.00     0.024 C 
HETATM   17  C   UNK N   1      28.492  22.801  -5.938  0.00  0.00     0.007 C 
ENDBRANCH   6  16
TORSDOF 4
ENDMDL
MODEL 7
REMARK VINA RESULT:      -4.9      5.160      8.181
REMARK  4 active torsions:
REMARK  status: ('A' for Active; 'I' for Inactive)
REMARK    1  A    between atoms: C_6  and  C_7 
REMARK    2  A    between atoms: C_6  and  C_8 
REMARK    3  A    between atoms: C_7  and  C_9 
REMARK    4  A    between atoms: C_9  and  C_12 
ROOT
HETATM    1  O   UNK N   1      32.305  14.235   8.629  0.00  0.00    -0.272 OA
HETATM    2  O   UNK N   1      35.286  17.749   9.618  0.00  0.00    -0.272 OA
HETATM    3  O   UNK N   1      34.699  14.313  12.369  0.00  0.00    -0.247 OA
HETATM    4  N   UNK N   1      33.500  14.276  10.497  0.00  0.00    -0.278 N 
HETATM    5  N   UNK N   1      34.982  16.038  10.996  0.00  0.00    -0.278 N 
HETATM    6  C   UNK N   1      33.734  16.129   8.817  0.00  0.00     0.122 A 
HETATM    7  C   UNK N   1      33.136  14.817   9.310  0.00  0.00     0.243 A 
HETATM    8  C   UNK N   1      34.711  16.695   9.843  0.00  0.00     0.243 A 
HETATM    9  C   UNK N   1      34.402  14.859  11.320  0.00  0.00     0.329 A 
HETATM   10  H   UNK N   1      33.090  13.424  10.774  0.00  0.00     0.173 HD
HETATM   11  H   UNK N   1      35.627  16.436  11.626  0.00  0.00     0.173 HD
ENDROOT
BRANCH   6  12
HETATM   12  C   UNK N   1      32.567  17.111   8.584  0.00  0.00     0.029 C 
BRANCH  12  13
HETATM   13  C   UNK N   1      32.303  17.440   7.116  0.00  0.00     0.001 C 
BRANCH  13  14
HETATM   14  C   UNK N   1      30.984  16.848   6.663  0.00  0.00    -0.005 C 
HETATM   15  C   UNK N   1      29.847  17.456   7.462  0.00  0.00     0.005 C 
ENDBRANCH  13  14
ENDBRANCH  12  13
ENDBRANCH   6  12
BRANCH   6  16
HETATM   16  C   UNK N   1      34.534  15.890   7.519  0.00  0.00     0.024 C 
HETATM   17  C   UNK N   1      35.523  14.733   7.581  0.00  0.00     0.007 C 
ENDBRANCH   6  16
TORSDOF 4
ENDMDL
MODEL 8
REMARK VINA RESULT:      -4.9      2.115      2.745
REMARK  4 active torsions:
REMARK  status: ('A' for Active; 'I' for Inactive)
REMARK    1  A    between atoms: C_6  and  C_7 
REMARK    2  A    between atoms: C_6  and  C_8 
REMARK    3  A    between atoms: C_7  and  C_9 
REMARK    4  A    between atoms: C_9  and  C_12 
ROOT
HETATM    1  O   UNK N   1      36.845  10.356  15.726  0.00  0.00    -0.272 OA
HETATM    2  O   UNK N   1      34.769  13.834  13.315  0.00  0.00    -0.272 OA
HETATM    3  O   UNK N   1      38.022  11.368  11.564  0.00  0.00    -0.247 OA
HETATM    4  N   UNK N   1      37.433  10.864  13.648  0.00  0.00    -0.278 N 
HETATM    5  N   UNK N   1      36.402  12.609  12.447  0.00  0.00    -0.278 N 
HETATM    6  C   UNK N   1      35.588  12.142  14.778  0.00  0.00     0.122 A 
HETATM    7  C   UNK N   1      36.663  11.061  14.744  0.00  0.00     0.243 A 
HETATM    8  C   UNK N   1      35.568  12.922  13.467  0.00  0.00     0.243 A 
HETATM    9  C   UNK N   1      37.308  11.607  12.523  0.00  0.00     0.329 A 
HETATM   10  H   UNK N   1      38.112  10.152  13.670  0.00  0.00     0.173 HD
HETATM   11  H   UNK N   1      36.348  13.134  11.615  0.00  0.00     0.173 HD
ENDROOT
BRANCH   6  12
HETATM   12  C   UNK N   1      35.911  13.080  15.960  0.00  0.00     0.029 C 
BRANCH  12  13
HETATM   13  C   UNK N   1      34.746  13.310  16.919  0.00  0.00     0.001 C 
BRANCH  13  14
HETATM   14  C   UNK N   1      35.250  13.607  18.316  0.00  0.00    -0.005 C 
HETATM   15  C   UNK N   1      35.321  12.323  19.120  0.00  0.00     0.005 C 
ENDBRANCH  13  14
ENDBRANCH  12  13
ENDBRANCH   6  12
BRANCH   6  16
HETATM   16  C   UNK N   1      34.196  11.496  14.938  0.00  0.00     0.024 C 
HETATM   17  C   UNK N   1      33.829  10.489  13.856  0.00  0.00     0.007 C 
ENDBRANCH   6  16
TORSDOF 4
ENDMDL
MODEL 9
REMARK VINA RESULT:      -4.8     24.878     26.465
REMARK  4 active torsions:
REMARK  status: ('A' for Active; 'I' for Inactive)
REMARK    1  A    between atoms: C_6  and  C_7 
REMARK    2  A    between atoms: C_6  and  C_8 
REMARK    3  A    between atoms: C_7  and  C_9 
REMARK    4  A    between atoms: C_9  and  C_12 
ROOT
HETATM    1  O   UNK N   1      28.566  26.508  -4.164  0.00  0.00    -0.272 OA
HETATM    2  O   UNK N   1      24.216  27.352  -5.770  0.00  0.00    -0.272 OA
HETATM    3  O   UNK N   1      25.906  23.249  -5.589  0.00  0.00    -0.247 OA
HETATM    4  N   UNK N   1      27.237  24.882  -4.878  0.00  0.00    -0.278 N 
HETATM    5  N   UNK N   1      25.067  25.305  -5.690  0.00  0.00    -0.278 N 
HETATM    6  C   UNK N   1      26.425  27.259  -4.885  0.00  0.00     0.122 A 
HETATM    7  C   UNK N   1      27.477  26.189  -4.618  0.00  0.00     0.243 A 
HETATM    8  C   UNK N   1      25.168  26.640  -5.486  0.00  0.00     0.243 A 
HETATM    9  C   UNK N   1      26.065  24.442  -5.392  0.00  0.00     0.329 A 
HETATM   10  H   UNK N   1      27.945  24.224  -4.686  0.00  0.00     0.173 HD
HETATM   11  H   UNK N   1      24.232  24.948  -6.072  0.00  0.00     0.173 HD
ENDROOT
BRANCH   6  12
HETATM   12  C   UNK N   1      27.043  28.283  -5.860  0.00  0.00     0.029 C 
BRANCH  12  13
HETATM   13  C   UNK N   1      27.504  27.689  -7.189  0.00  0.00     0.001 C 
BRANCH  13  14
HETATM   14  C   UNK N   1      28.643  28.499  -7.774  0.00  0.00    -0.005 C 
HETATM   15  C   UNK N   1      28.941  29.686  -6.878  0.00  0.00     0.005 C 
ENDBRANCH  13  14
ENDBRANCH  12  13
ENDBRANCH   6  12
BRANCH   6  16
HETATM   16  C   UNK N   1      26.007  27.930  -3.559  0.00  0.00     0.024 C 
HETATM   17  C   UNK N   1      26.426  29.387  -3.418  0.00  0.00     0.007 C 
ENDBRANCH   6  16
TORSDOF 4
ENDMDL
