MODEL 1
REMARK VINA RESULT:      -6.1      0.000      0.000
REMARK  9 active torsions:
REMARK  status: ('A' for Active; 'I' for Inactive)
REMARK    1  A    between atoms: O_1  and  C_6 
REMARK    2  A    between atoms: O_1  and  C_23 
REMARK    3  A    between atoms: N_3  and  C_7 
REMARK    4  A    between atoms: C_4  and  C_5 
REMARK    5  A    between atoms: C_4  and  C_6 
REMARK    6  A    between atoms: C_4  and  C_8 
REMARK    7  A    between atoms: C_4  and  C_9 
REMARK    8  A    between atoms: C_5  and  C_7 
REMARK    9  A    between atoms: C_6  and  C_10 
ROOT
HETATM    1  C   UNK N   1      29.463  17.044   5.744  0.00  0.00     0.043 C 
ENDROOT
BRANCH   1   2
HETATM    2  C   UNK N   1      28.538  15.798   5.754  0.00  0.00     0.057 C 
BRANCH   2   3
HETATM    3  C   UNK N   1      27.303  15.777   4.804  0.00  0.00     0.219 C 
HETATM    4  C   UNK N   1      27.486  15.063   3.461  0.00  0.00     0.043 C 
BRANCH   3   5
HETATM    5  N   UNK N   1      25.982  15.619   5.438  0.00  0.00     0.084 N 
HETATM    6  C   UNK N   1      26.194  15.524   6.872  0.00  0.00     0.309 C 
HETATM    7  C   UNK N   1      25.125  16.783   5.228  0.00  0.00     0.309 C 
ENDBRANCH   3   5
ENDBRANCH   2   3
ENDBRANCH   1   2
BRANCH   1   8
HETATM    8  C   UNK N   1      30.041  17.296   7.194  0.00  0.00     0.149 C 
BRANCH   8   9
HETATM    9  O   UNK N   1      29.204  16.789   8.180  0.00  0.00    -0.315 OA
BRANCH   9  10
HETATM   10  C   UNK N   1      28.714  17.450   9.261  0.00  0.00     0.255 C 
HETATM   11  O   UNK N   1      27.593  17.212   9.701  0.00  0.00    -0.266 OA
HETATM   12  C   UNK N   1      29.515  18.544   9.870  0.00  0.00     0.126 C 
ENDBRANCH   9  10
ENDBRANCH   8   9
BRANCH   8  13
HETATM   13  C   UNK N   1      31.466  16.736   7.338  0.00  0.00     0.029 C 
HETATM   14  C   UNK N   1      32.368  17.812   7.921  0.00  0.00     0.007 C 
ENDBRANCH   8  13
ENDBRANCH   1   8
BRANCH   1  15
HETATM   15  C   UNK N   1      28.582  18.271   5.447  0.00  0.00    -0.042 A 
HETATM   16  C   UNK N   1      28.216  18.655   4.148  0.00  0.00     0.008 A 
HETATM   17  C   UNK N   1      27.467  19.814   3.930  0.00  0.00     0.001 A 
HETATM   18  C   UNK N   1      27.074  20.609   5.009  0.00  0.00     0.000 A 
HETATM   19  C   UNK N   1      27.431  20.247   6.307  0.00  0.00     0.001 A 
HETATM   20  C   UNK N   1      28.185  19.092   6.524  0.00  0.00     0.008 A 
ENDBRANCH   1  15
BRANCH   1  21
HETATM   21  C   UNK N   1      30.622  16.697   4.771  0.00  0.00    -0.042 A 
HETATM   22  C   UNK N   1      31.477  17.732   4.330  0.00  0.00     0.008 A 
HETATM   23  C   UNK N   1      32.564  17.480   3.494  0.00  0.00     0.001 A 
HETATM   24  C   UNK N   1      32.848  16.172   3.112  0.00  0.00     0.000 A 
HETATM   25  C   UNK N   1      32.032  15.127   3.549  0.00  0.00     0.001 A 
HETATM   26  C   UNK N   1      30.922  15.389   4.360  0.00  0.00     0.008 A 
ENDBRANCH   1  21
TORSDOF 9
ENDMDL
MODEL 2
REMARK VINA RESULT:      -5.8     11.773     14.331
REMARK  9 active torsions:
REMARK  status: ('A' for Active; 'I' for Inactive)
REMARK    1  A    between atoms: O_1  and  C_6 
REMARK    2  A    between atoms: O_1  and  C_23 
REMARK    3  A    between atoms: N_3  and  C_7 
REMARK    4  A    between atoms: C_4  and  C_5 
REMARK    5  A    between atoms: C_4  and  C_6 
REMARK    6  A    between atoms: C_4  and  C_8 
REMARK    7  A    between atoms: C_4  and  C_9 
REMARK    8  A    between atoms: C_5  and  C_7 
REMARK    9  A    between atoms: C_6  and  C_10 
ROOT
HETATM    1  C   UNK N   1      27.699  23.781  -5.699  0.00  0.00     0.043 C 
ENDROOT
BRANCH   1   2
HETATM    2  C   UNK N   1      26.616  24.397  -4.775  0.00  0.00     0.057 C 
BRANCH   2   3
HETATM    3  C   UNK N   1      26.324  25.924  -4.881  0.00  0.00     0.219 C 
HETATM    4  C   UNK N   1      25.045  26.325  -5.623  0.00  0.00     0.043 C 
BRANCH   3   5
HETATM    5  N   UNK N   1      26.668  26.748  -3.709  0.00  0.00     0.084 N 
HETATM    6  C   UNK N   1      27.965  27.350  -3.964  0.00  0.00     0.309 C 
HETATM    7  C   UNK N   1      25.734  27.855  -3.517  0.00  0.00     0.309 C 
ENDBRANCH   3   5
ENDBRANCH   2   3
ENDBRANCH   1   2
BRANCH   1   8
HETATM    8  C   UNK N   1      28.301  24.897  -6.642  0.00  0.00     0.149 C 
BRANCH   8   9
HETATM    9  O   UNK N   1      29.690  24.874  -6.650  0.00  0.00    -0.315 OA
BRANCH   9  10
HETATM   10  C   UNK N   1      30.530  25.899  -6.349  0.00  0.00     0.255 C 
HETATM   11  O   UNK N   1      30.534  26.936  -7.008  0.00  0.00    -0.266 OA
HETATM   12  C   UNK N   1      31.524  25.731  -5.257  0.00  0.00     0.126 C 
ENDBRANCH   9  10
ENDBRANCH   8   9
BRANCH   8  13
HETATM   13  C   UNK N   1      27.740  24.793  -8.070  0.00  0.00     0.029 C 
HETATM   14  C   UNK N   1      27.289  26.169  -8.531  0.00  0.00     0.007 C 
ENDBRANCH   8  13
ENDBRANCH   1   8
BRANCH   1  15
HETATM   15  C   UNK N   1      26.991  22.797  -6.648  0.00  0.00    -0.042 A 
HETATM   16  C   UNK N   1      25.597  22.637  -6.685  0.00  0.00     0.008 A 
HETATM   17  C   UNK N   1      25.009  21.684  -7.521  0.00  0.00     0.001 A 
HETATM   18  C   UNK N   1      25.807  20.875  -8.333  0.00  0.00     0.000 A 
HETATM   19  C   UNK N   1      27.194  21.016  -8.308  0.00  0.00     0.001 A 
HETATM   20  C   UNK N   1      27.781  21.963  -7.468  0.00  0.00     0.008 A 
ENDBRANCH   1  15
BRANCH   1  21
HETATM   21  C   UNK N   1      28.805  23.244  -4.750  0.00  0.00    -0.042 A 
HETATM   22  C   UNK N   1      28.888  23.759  -3.437  0.00  0.00     0.008 A 
HETATM   23  C   UNK N   1      29.826  23.286  -2.521  0.00  0.00     0.001 A 
HETATM   24  C   UNK N   1      30.681  22.249  -2.886  0.00  0.00     0.000 A 
HETATM   25  C   UNK N   1      30.607  21.707  -4.171  0.00  0.00     0.001 A 
HETATM   26  C   UNK N   1      29.686  22.209  -5.098  0.00  0.00     0.008 A 
ENDBRANCH   1  21
TORSDOF 9
ENDMDL
MODEL 3
REMARK VINA RESULT:      -5.7      1.947      5.575
REMARK  9 active torsions:
REMARK  status: ('A' for Active; 'I' for Inactive)
REMARK    1  A    between atoms: O_1  and  C_6 
REMARK    2  A    between atoms: O_1  and  C_23 
REMARK    3  A    between atoms: N_3  and  C_7 
REMARK    4  A    between atoms: C_4  and  C_5 
REMARK    5  A    between atoms: C_4  and  C_6 
REMARK    6  A    between atoms: C_4  and  C_8 
REMARK    7  A    between atoms: C_4  and  C_9 
REMARK    8  A    between atoms: C_5  and  C_7 
REMARK    9  A    between atoms: C_6  and  C_10 
ROOT
HETATM    1  C   UNK N   1      29.243  16.810   5.580  0.00  0.00     0.043 C 
ENDROOT
BRANCH   1   2
HETATM    2  C   UNK N   1      29.692  16.476   7.027  0.00  0.00     0.057 C 
BRANCH   2   3
HETATM    3  C   UNK N   1      31.205  16.578   7.382  0.00  0.00     0.219 C 
HETATM    4  C   UNK N   1      31.626  17.773   8.244  0.00  0.00     0.043 C 
BRANCH   3   5
HETATM    5  N   UNK N   1      31.909  15.312   7.656  0.00  0.00     0.084 N 
HETATM    6  C   UNK N   1      33.175  15.354   6.944  0.00  0.00     0.309 C 
HETATM    7  C   UNK N   1      32.240  15.159   9.070  0.00  0.00     0.309 C 
ENDBRANCH   3   5
ENDBRANCH   2   3
ENDBRANCH   1   2
BRANCH   1   8
HETATM    8  C   UNK N   1      28.183  15.746   5.086  0.00  0.00     0.149 C 
BRANCH   8   9
HETATM    9  O   UNK N   1      27.457  15.210   6.143  0.00  0.00    -0.315 OA
BRANCH   9  10
HETATM   10  C   UNK N   1      26.380  14.386   6.064  0.00  0.00     0.255 C 
HETATM   11  O   UNK N   1      26.455  13.286   5.524  0.00  0.00    -0.266 OA
HETATM   12  C   UNK N   1      25.063  14.859   6.564  0.00  0.00     0.126 C 
ENDBRANCH   9  10
ENDBRANCH   8   9
BRANCH   8  13
HETATM   13  C   UNK N   1      27.248  16.335   4.017  0.00  0.00     0.029 C 
HETATM   14  C   UNK N   1      27.396  15.537   2.731  0.00  0.00     0.007 C 
ENDBRANCH   8  13
ENDBRANCH   1   8
BRANCH   1  15
HETATM   15  C   UNK N   1      30.463  16.614   4.661  0.00  0.00    -0.042 A 
HETATM   16  C   UNK N   1      30.784  15.385   4.064  0.00  0.00     0.008 A 
HETATM   17  C   UNK N   1      31.938  15.246   3.290  0.00  0.00     0.001 A 
HETATM   18  C   UNK N   1      32.791  16.336   3.101  0.00  0.00     0.000 A 
HETATM   19  C   UNK N   1      32.492  17.564   3.688  0.00  0.00     0.001 A 
HETATM   20  C   UNK N   1      31.342  17.700   4.468  0.00  0.00     0.008 A 
ENDBRANCH   1  15
BRANCH   1  21
HETATM   21  C   UNK N   1      28.580  18.211   5.660  0.00  0.00    -0.042 A 
HETATM   22  C   UNK N   1      28.193  18.715   6.922  0.00  0.00     0.008 A 
HETATM   23  C   UNK N   1      27.637  19.985   7.067  0.00  0.00     0.001 A 
HETATM   24  C   UNK N   1      27.493  20.804   5.951  0.00  0.00     0.000 A 
HETATM   25  C   UNK N   1      27.886  20.340   4.693  0.00  0.00     0.001 A 
HETATM   26  C   UNK N   1      28.412  19.051   4.548  0.00  0.00     0.008 A 
ENDBRANCH   1  21
TORSDOF 9
ENDMDL
MODEL 4
REMARK VINA RESULT:      -5.7     11.785     14.618
REMARK  9 active torsions:
REMARK  status: ('A' for Active; 'I' for Inactive)
REMARK    1  A    between atoms: O_1  and  C_6 
REMARK    2  A    between atoms: O_1  and  C_23 
REMARK    3  A    between atoms: N_3  and  C_7 
REMARK    4  A    between atoms: C_4  and  C_5 
REMARK    5  A    between atoms: C_4  and  C_6 
REMARK    6  A    between atoms: C_4  and  C_8 
REMARK    7  A    between atoms: C_4  and  C_9 
REMARK    8  A    between atoms: C_5  and  C_7 
REMARK    9  A    between atoms: C_6  and  C_10 
ROOT
HETATM    1  C   UNK N   1      27.587  25.029  -5.178  0.00  0.00     0.043 C 
ENDROOT
BRANCH   1   2
HETATM    2  C   UNK N   1      26.295  25.492  -4.454  0.00  0.00     0.057 C 
BRANCH   2   3
HETATM    3  C   UNK N   1      25.737  26.914  -4.757  0.00  0.00     0.219 C 
HETATM    4  C   UNK N   1      24.632  27.004  -5.815  0.00  0.00     0.043 C 
BRANCH   3   5
HETATM    5  N   UNK N   1      25.601  27.832  -3.612  0.00  0.00     0.084 N 
HETATM    6  C   UNK N   1      26.399  27.292  -2.524  0.00  0.00     0.309 C 
HETATM    7  C   UNK N   1      26.144  29.157  -3.898  0.00  0.00     0.309 C 
ENDBRANCH   3   5
ENDBRANCH   2   3
ENDBRANCH   1   2
BRANCH   1   8
HETATM    8  C   UNK N   1      27.253  23.849  -6.174  0.00  0.00     0.149 C 
BRANCH   8   9
HETATM    9  O   UNK N   1      28.168  22.808  -6.068  0.00  0.00    -0.315 OA
BRANCH   9  10
HETATM   10  C   UNK N   1      28.942  22.292  -7.057  0.00  0.00     0.255 C 
HETATM   11  O   UNK N   1      29.037  22.846  -8.149  0.00  0.00    -0.266 OA
HETATM   12  C   UNK N   1      29.620  20.986  -6.846  0.00  0.00     0.126 C 
ENDBRANCH   9  10
ENDBRANCH   8   9
BRANCH   8  13
HETATM   13  C   UNK N   1      25.814  23.340  -5.983  0.00  0.00     0.029 C 
HETATM   14  C   UNK N   1      25.445  22.440  -7.150  0.00  0.00     0.007 C 
ENDBRANCH   8  13
ENDBRANCH   1   8
BRANCH   1  15
HETATM   15  C   UNK N   1      28.513  24.406  -4.117  0.00  0.00    -0.042 A 
HETATM   16  C   UNK N   1      29.912  24.391  -4.234  0.00  0.00     0.008 A 
HETATM   17  C   UNK N   1      30.702  23.755  -3.273  0.00  0.00     0.001 A 
HETATM   18  C   UNK N   1      30.106  23.124  -2.179  0.00  0.00     0.000 A 
HETATM   19  C   UNK N   1      28.717  23.125  -2.047  0.00  0.00     0.001 A 
HETATM   20  C   UNK N   1      27.928  23.753  -3.011  0.00  0.00     0.008 A 
ENDBRANCH   1  15
BRANCH   1  21
HETATM   21  C   UNK N   1      28.085  26.264  -5.977  0.00  0.00    -0.042 A 
HETATM   22  C   UNK N   1      27.770  26.363  -7.350  0.00  0.00     0.008 A 
HETATM   23  C   UNK N   1      28.146  27.468  -8.112  0.00  0.00     0.001 A 
HETATM   24  C   UNK N   1      28.813  28.527  -7.504  0.00  0.00     0.000 A 
HETATM   25  C   UNK N   1      29.120  28.466  -6.143  0.00  0.00     0.001 A 
HETATM   26  C   UNK N   1      28.770  27.339  -5.390  0.00  0.00     0.008 A 
ENDBRANCH   1  21
TORSDOF 9
ENDMDL
MODEL 5
REMARK VINA RESULT:      -5.7      1.520      4.504
REMARK  9 active torsions:
REMARK  status: ('A' for Active; 'I' for Inactive)
REMARK    1  A    between atoms: O_1  and  C_6 
REMARK    2  A    between atoms: O_1  and  C_23 
REMARK    3  A    between atoms: N_3  and  C_7 
REMARK    4  A    between atoms: C_4  and  C_5 
REMARK    5  A    between atoms: C_4  and  C_6 
REMARK    6  A    between atoms: C_4  and  C_8 
REMARK    7  A    between atoms: C_4  and  C_9 
REMARK    8  A    between atoms: C_5  and  C_7 
REMARK    9  A    between atoms: C_6  and  C_10 
ROOT
HETATM    1  C   UNK N   1      28.220  16.852   5.505  0.00  0.00     0.043 C 
ENDROOT
BRANCH   1   2
HETATM    2  C   UNK N   1      27.738  17.288   4.095  0.00  0.00     0.057 C 
BRANCH   2   3
HETATM    3  C   UNK N   1      26.261  17.005   3.690  0.00  0.00     0.219 C 
HETATM    4  C   UNK N   1      25.262  18.146   3.906  0.00  0.00     0.043 C 
BRANCH   3   5
HETATM    5  N   UNK N   1      26.050  16.192   2.479  0.00  0.00     0.084 N 
HETATM    6  C   UNK N   1      27.297  15.503   2.193  0.00  0.00     0.309 C 
HETATM    7  C   UNK N   1      25.045  15.151   2.680  0.00  0.00     0.309 C 
ENDBRANCH   3   5
ENDBRANCH   2   3
ENDBRANCH   1   2
BRANCH   1   8
HETATM    8  C   UNK N   1      27.974  18.020   6.542  0.00  0.00     0.149 C 
BRANCH   8   9
HETATM    9  O   UNK N   1      28.915  18.009   7.565  0.00  0.00    -0.315 OA
BRANCH   9  10
HETATM   10  C   UNK N   1      28.674  18.030   8.901  0.00  0.00     0.255 C 
HETATM   11  O   UNK N   1      27.616  17.615   9.366  0.00  0.00    -0.266 OA
HETATM   12  C   UNK N   1      29.674  18.645   9.812  0.00  0.00     0.126 C 
ENDBRANCH   9  10
ENDBRANCH   8   9
BRANCH   8  13
HETATM   13  C   UNK N   1      27.930  19.391   5.847  0.00  0.00     0.029 C 
HETATM   14  C   UNK N   1      27.114  20.353   6.695  0.00  0.00     0.007 C 
ENDBRANCH   8  13
ENDBRANCH   1   8
BRANCH   1  15
HETATM   15  C   UNK N   1      29.750  16.691   5.441  0.00  0.00    -0.042 A 
HETATM   16  C   UNK N   1      30.472  15.876   6.327  0.00  0.00     0.008 A 
HETATM   17  C   UNK N   1      31.867  15.815   6.265  0.00  0.00     0.001 A 
HETATM   18  C   UNK N   1      32.561  16.569   5.317  0.00  0.00     0.000 A 
HETATM   19  C   UNK N   1      31.862  17.388   4.430  0.00  0.00     0.001 A 
HETATM   20  C   UNK N   1      30.469  17.454   4.497  0.00  0.00     0.008 A 
ENDBRANCH   1  15
BRANCH   1  21
HETATM   21  C   UNK N   1      27.350  15.623   5.884  0.00  0.00    -0.042 A 
HETATM   22  C   UNK N   1      26.277  15.796   6.786  0.00  0.00     0.008 A 
HETATM   23  C   UNK N   1      25.430  14.744   7.129  0.00  0.00     0.001 A 
HETATM   24  C   UNK N   1      25.611  13.495   6.542  0.00  0.00     0.000 A 
HETATM   25  C   UNK N   1      26.651  13.300   5.631  0.00  0.00     0.001 A 
HETATM   26  C   UNK N   1      27.520  14.352   5.315  0.00  0.00     0.008 A 
ENDBRANCH   1  21
TORSDOF 9
ENDMDL
MODEL 6
REMARK VINA RESULT:      -5.7     12.259     15.002
REMARK  9 active torsions:
REMARK  status: ('A' for Active; 'I' for Inactive)
REMARK    1  A    between atoms: O_1  and  C_6 
REMARK    2  A    between atoms: O_1  and  C_23 
REMARK    3  A    between atoms: N_3  and  C_7 
REMARK    4  A    between atoms: C_4  and  C_5 
REMARK    5  A    between atoms: C_4  and  C_6 
REMARK    6  A    between atoms: C_4  and  C_8 
REMARK    7  A    between atoms: C_4  and  C_9 
REMARK    8  A    between atoms: C_5  and  C_7 
REMARK    9  A    between atoms: C_6  and  C_10 
ROOT
HETATM    1  C   UNK N   1      28.099  25.155  -5.907  0.00  0.00     0.043 C 
ENDROOT
BRANCH   1   2
HETATM    2  C   UNK N   1      28.894  25.916  -7.002  0.00  0.00     0.057 C 
BRANCH   2   3
HETATM    3  C   UNK N   1      28.119  26.860  -7.968  0.00  0.00     0.219 C 
HETATM    4  C   UNK N   1      28.449  28.353  -7.877  0.00  0.00     0.043 C 
BRANCH   3   5
HETATM    5  N   UNK N   1      27.850  26.346  -9.323  0.00  0.00     0.084 N 
HETATM    6  C   UNK N   1      26.420  26.106  -9.423  0.00  0.00     0.309 C 
HETATM    7  C   UNK N   1      28.173  27.324 -10.359  0.00  0.00     0.309 C 
ENDBRANCH   3   5
ENDBRANCH   2   3
ENDBRANCH   1   2
BRANCH   1   8
HETATM    8  C   UNK N   1      29.092  24.595  -4.812  0.00  0.00     0.149 C 
BRANCH   8   9
HETATM    9  O   UNK N   1      28.553  23.510  -4.131  0.00  0.00    -0.315 OA
BRANCH   9  10
HETATM   10  C   UNK N   1      28.143  23.476  -2.837  0.00  0.00     0.255 C 
HETATM   11  O   UNK N   1      27.033  23.883  -2.507  0.00  0.00    -0.266 OA
HETATM   12  C   UNK N   1      29.087  23.016  -1.786  0.00  0.00     0.126 C 
ENDBRANCH   9  10
ENDBRANCH   8   9
BRANCH   8  13
HETATM   13  C   UNK N   1      30.460  24.240  -5.420  0.00  0.00     0.029 C 
HETATM   14  C   UNK N   1      31.546  24.500  -4.389  0.00  0.00     0.007 C 
ENDBRANCH   8  13
ENDBRANCH   1   8
BRANCH   1  15
HETATM   15  C   UNK N   1      27.486  23.906  -6.565  0.00  0.00    -0.042 A 
HETATM   16  C   UNK N   1      28.123  23.188  -7.590  0.00  0.00     0.008 A 
HETATM   17  C   UNK N   1      27.493  22.098  -8.196  0.00  0.00     0.001 A 
HETATM   18  C   UNK N   1      26.215  21.710  -7.789  0.00  0.00     0.000 A 
HETATM   19  C   UNK N   1      25.563  22.413  -6.776  0.00  0.00     0.001 A 
HETATM   20  C   UNK N   1      26.190  23.506  -6.175  0.00  0.00     0.008 A 
ENDBRANCH   1  15
BRANCH   1  21
HETATM   21  C   UNK N   1      27.154  26.208  -5.268  0.00  0.00    -0.042 A 
HETATM   22  C   UNK N   1      27.636  27.003  -4.203  0.00  0.00     0.008 A 
HETATM   23  C   UNK N   1      26.854  27.998  -3.619  0.00  0.00     0.001 A 
HETATM   24  C   UNK N   1      25.579  28.252  -4.116  0.00  0.00     0.000 A 
HETATM   25  C   UNK N   1      25.084  27.495  -5.180  0.00  0.00     0.001 A 
HETATM   26  C   UNK N   1      25.861  26.474  -5.742  0.00  0.00     0.008 A 
ENDBRANCH   1  21
TORSDOF 9
ENDMDL
MODEL 7
REMARK VINA RESULT:      -5.6     12.029     14.787
REMARK  9 active torsions:
REMARK  status: ('A' for Active; 'I' for Inactive)
REMARK    1  A    between atoms: O_1  and  C_6 
REMARK    2  A    between atoms: O_1  and  C_23 
REMARK    3  A    between atoms: N_3  and  C_7 
REMARK    4  A    between atoms: C_4  and  C_5 
REMARK    5  A    between atoms: C_4  and  C_6 
REMARK    6  A    between atoms: C_4  and  C_8 
REMARK    7  A    between atoms: C_4  and  C_9 
REMARK    8  A    between atoms: C_5  and  C_7 
REMARK    9  A    between atoms: C_6  and  C_10 
ROOT
HETATM    1  C   UNK N   1      27.311  24.900  -5.272  0.00  0.00     0.043 C 
ENDROOT
BRANCH   1   2
HETATM    2  C   UNK N   1      26.050  25.433  -4.542  0.00  0.00     0.057 C 
BRANCH   2   3
HETATM    3  C   UNK N   1      25.595  26.899  -4.810  0.00  0.00     0.219 C 
HETATM    4  C   UNK N   1      24.445  27.086  -5.805  0.00  0.00     0.043 C 
BRANCH   3   5
HETATM    5  N   UNK N   1      25.598  27.815  -3.656  0.00  0.00     0.084 N 
HETATM    6  C   UNK N   1      26.411  27.207  -2.617  0.00  0.00     0.309 C 
HETATM    7  C   UNK N   1      26.226  29.097  -3.969  0.00  0.00     0.309 C 
ENDBRANCH   3   5
ENDBRANCH   2   3
ENDBRANCH   1   2
BRANCH   1   8
HETATM    8  C   UNK N   1      26.927  23.664  -6.179  0.00  0.00     0.149 C 
BRANCH   8   9
HETATM    9  O   UNK N   1      25.668  23.813  -6.750  0.00  0.00    -0.315 OA
BRANCH   9  10
HETATM   10  C   UNK N   1      25.085  23.006  -7.674  0.00  0.00     0.255 C 
HETATM   11  O   UNK N   1      24.669  23.451  -8.739  0.00  0.00    -0.266 OA
HETATM   12  C   UNK N   1      24.869  21.571  -7.354  0.00  0.00     0.126 C 
ENDBRANCH   9  10
ENDBRANCH   8   9
BRANCH   8  13
HETATM   13  C   UNK N   1      27.993  23.401  -7.255  0.00  0.00     0.029 C 
HETATM   14  C   UNK N   1      28.587  22.019  -7.040  0.00  0.00     0.007 C 
ENDBRANCH   8  13
ENDBRANCH   1   8
BRANCH   1  15
HETATM   15  C   UNK N   1      28.259  24.329  -4.201  0.00  0.00    -0.042 A 
HETATM   16  C   UNK N   1      29.654  24.291  -4.353  0.00  0.00     0.008 A 
HETATM   17  C   UNK N   1      30.463  23.704  -3.377  0.00  0.00     0.001 A 
HETATM   18  C   UNK N   1      29.889  23.144  -2.233  0.00  0.00     0.000 A 
HETATM   19  C   UNK N   1      28.504  23.168  -2.066  0.00  0.00     0.001 A 
HETATM   20  C   UNK N   1      27.696  23.749  -3.044  0.00  0.00     0.008 A 
ENDBRANCH   1  15
BRANCH   1  21
HETATM   21  C   UNK N   1      27.805  26.071  -6.164  0.00  0.00    -0.042 A 
HETATM   22  C   UNK N   1      28.777  26.960  -5.651  0.00  0.00     0.008 A 
HETATM   23  C   UNK N   1      29.296  28.002  -6.417  0.00  0.00     0.001 A 
HETATM   24  C   UNK N   1      28.885  28.155  -7.738  0.00  0.00     0.000 A 
HETATM   25  C   UNK N   1      27.941  27.279  -8.279  0.00  0.00     0.001 A 
HETATM   26  C   UNK N   1      27.398  26.255  -7.495  0.00  0.00     0.008 A 
ENDBRANCH   1  21
TORSDOF 9
ENDMDL
MODEL 8
REMARK VINA RESULT:      -5.5     12.279     14.770
REMARK  9 active torsions:
REMARK  status: ('A' for Active; 'I' for Inactive)
REMARK    1  A    between atoms: O_1  and  C_6 
REMARK    2  A    between atoms: O_1  and  C_23 
REMARK    3  A    between atoms: N_3  and  C_7 
REMARK    4  A    between atoms: C_4  and  C_5 
REMARK    5  A    between atoms: C_4  and  C_6 
REMARK    6  A    between atoms: C_4  and  C_8 
REMARK    7  A    between atoms: C_4  and  C_9 
REMARK    8  A    between atoms: C_5  and  C_7 
REMARK    9  A    between atoms: C_6  and  C_10 
ROOT
HETATM    1  C   UNK N   1      27.507  24.274  -6.427  0.00  0.00     0.043 C 
ENDROOT
BRANCH   1   2
HETATM    2  C   UNK N   1      26.466  24.843  -5.426  0.00  0.00     0.057 C 
BRANCH   2   3
HETATM    3  C   UNK N   1      26.278  26.387  -5.341  0.00  0.00     0.219 C 
HETATM    4  C   UNK N   1      24.890  26.928  -5.699  0.00  0.00     0.043 C 
BRANCH   3   5
HETATM    5  N   UNK N   1      26.969  27.079  -4.239  0.00  0.00     0.084 N 
HETATM    6  C   UNK N   1      27.523  28.311  -4.776  0.00  0.00     0.309 C 
HETATM    7  C   UNK N   1      26.052  27.474  -3.173  0.00  0.00     0.309 C 
ENDBRANCH   3   5
ENDBRANCH   2   3
ENDBRANCH   1   2
BRANCH   1   8
HETATM    8  C   UNK N   1      28.814  23.838  -5.653  0.00  0.00     0.149 C 
BRANCH   8   9
HETATM    9  O   UNK N   1      28.740  24.143  -4.299  0.00  0.00    -0.315 OA
BRANCH   9  10
HETATM   10  C   UNK N   1      29.761  24.520  -3.486  0.00  0.00     0.255 C 
HETATM   11  O   UNK N   1      30.113  23.824  -2.539  0.00  0.00    -0.266 OA
HETATM   12  C   UNK N   1      30.407  25.842  -3.694  0.00  0.00     0.126 C 
ENDBRANCH   9  10
ENDBRANCH   8   9
BRANCH   8  13
HETATM   13  C   UNK N   1      29.125  22.347  -5.867  0.00  0.00     0.029 C 
HETATM   14  C   UNK N   1      30.583  22.196  -6.273  0.00  0.00     0.007 C 
ENDBRANCH   8  13
ENDBRANCH   1   8
BRANCH   1  15
HETATM   15  C   UNK N   1      27.951  25.432  -7.340  0.00  0.00    -0.042 A 
HETATM   16  C   UNK N   1      27.171  25.911  -8.404  0.00  0.00     0.008 A 
HETATM   17  C   UNK N   1      27.650  26.922  -9.241  0.00  0.00     0.001 A 
HETATM   18  C   UNK N   1      28.916  27.470  -9.027  0.00  0.00     0.000 A 
HETATM   19  C   UNK N   1      29.708  27.005  -7.977  0.00  0.00     0.001 A 
HETATM   20  C   UNK N   1      29.232  25.990  -7.146  0.00  0.00     0.008 A 
ENDBRANCH   1  15
BRANCH   1  21
HETATM   21  C   UNK N   1      26.836  23.028  -7.066  0.00  0.00    -0.042 A 
HETATM   22  C   UNK N   1      25.585  22.596  -6.573  0.00  0.00     0.008 A 
HETATM   23  C   UNK N   1      24.908  21.515  -7.135  0.00  0.00     0.001 A 
HETATM   24  C   UNK N   1      25.451  20.862  -8.239  0.00  0.00     0.000 A 
HETATM   25  C   UNK N   1      26.677  21.280  -8.760  0.00  0.00     0.001 A 
HETATM   26  C   UNK N   1      27.368  22.346  -8.171  0.00  0.00     0.008 A 
ENDBRANCH   1  21
TORSDOF 9
ENDMDL
MODEL 9
REMARK VINA RESULT:      -5.5     15.283     17.875
REMARK  9 active torsions:
REMARK  status: ('A' for Active; 'I' for Inactive)
REMARK    1  A    between atoms: O_1  and  C_6 
REMARK    2  A    between atoms: O_1  and  C_23 
REMARK    3  A    between atoms: N_3  and  C_7 
REMARK    4  A    between atoms: C_4  and  C_5 
REMARK    5  A    between atoms: C_4  and  C_6 
REMARK    6  A    between atoms: C_4  and  C_8 
REMARK    7  A    between atoms: C_4  and  C_9 
REMARK    8  A    between atoms: C_5  and  C_7 
REMARK    9  A    between atoms: C_6  and  C_10 
ROOT
HETATM    1  C   UNK N   1      34.740   9.657  20.004  0.00  0.00     0.043 C 
ENDROOT
BRANCH   1   2
HETATM    2  C   UNK N   1      33.676   8.847  19.218  0.00  0.00     0.057 C 
BRANCH   2   3
HETATM    3  C   UNK N   1      32.701   7.926  20.011  0.00  0.00     0.219 C 
HETATM    4  C   UNK N   1      31.213   8.285  19.942  0.00  0.00     0.043 C 
BRANCH   3   5
HETATM    5  N   UNK N   1      33.012   6.486  20.023  0.00  0.00     0.084 N 
HETATM    6  C   UNK N   1      33.009   6.050  21.409  0.00  0.00     0.309 C 
HETATM    7  C   UNK N   1      31.990   5.694  19.343  0.00  0.00     0.309 C 
ENDBRANCH   3   5
ENDBRANCH   2   3
ENDBRANCH   1   2
BRANCH   1   8
HETATM    8  C   UNK N   1      36.079   8.825  20.112  0.00  0.00     0.149 C 
BRANCH   8   9
HETATM    9  O   UNK N   1      36.067   7.715  19.277  0.00  0.00    -0.315 OA
BRANCH   9  10
HETATM   10  C   UNK N   1      36.789   6.573  19.418  0.00  0.00     0.255 C 
HETATM   11  O   UNK N   1      37.483   6.139  18.503  0.00  0.00    -0.266 OA
HETATM   12  C   UNK N   1      36.671   5.788  20.674  0.00  0.00     0.126 C 
ENDBRANCH   9  10
ENDBRANCH   8   9
BRANCH   8  13
HETATM   13  C   UNK N   1      37.312   9.704  19.844  0.00  0.00     0.029 C 
HETATM   14  C   UNK N   1      38.230   9.658  21.054  0.00  0.00     0.007 C 
ENDBRANCH   8  13
ENDBRANCH   1   8
BRANCH   1  15
HETATM   15  C   UNK N   1      34.238   9.794  21.454  0.00  0.00    -0.042 A 
HETATM   16  C   UNK N   1      33.172  10.630  21.820  0.00  0.00     0.008 A 
HETATM   17  C   UNK N   1      32.797  10.765  23.159  0.00  0.00     0.001 A 
HETATM   18  C   UNK N   1      33.485  10.067  24.154  0.00  0.00     0.000 A 
HETATM   19  C   UNK N   1      34.549   9.234  23.811  0.00  0.00     0.001 A 
HETATM   20  C   UNK N   1      34.927   9.104  22.474  0.00  0.00     0.008 A 
ENDBRANCH   1  15
BRANCH   1  21
HETATM   21  C   UNK N   1      34.987  10.944  19.171  0.00  0.00    -0.042 A 
HETATM   22  C   UNK N   1      35.021  10.850  17.762  0.00  0.00     0.008 A 
HETATM   23  C   UNK N   1      35.191  11.975  16.956  0.00  0.00     0.001 A 
HETATM   24  C   UNK N   1      35.289  13.233  17.542  0.00  0.00     0.000 A 
HETATM   25  C   UNK N   1      35.240  13.358  18.932  0.00  0.00     0.001 A 
HETATM   26  C   UNK N   1      35.102  12.222  19.739  0.00  0.00     0.008 A 
ENDBRANCH   1  21
TORSDOF 9
ENDMDL
