REMARK  0 active torsions:
REMARK  status: ('A' for Active; 'I' for Inactive)
ROOT
HETATM    1  C   UNK N   1      15.515  -8.679  -0.319  0.00  0.00     0.021 C 
HETATM    2  C   UNK N   1      16.572  -8.331   0.668  0.00  0.00     0.135 C 
HETATM    3  C   UNK N   1      15.388 -10.206  -0.111  0.00  0.00     0.006 C 
HETATM    4  C   UNK N   1      14.191  -7.938  -0.097  0.00  0.00     0.018 C 
HETATM    5  C   UNK N   1      16.038  -8.353  -1.713  0.00  0.00     0.024 C 
HETATM    6  C   UNK N   1      17.293  -9.507   1.223  0.00  0.00     0.079 C 
HETATM    7  C   UNK N   1      14.340 -10.587   0.992  0.00  0.00    -0.004 C 
HETATM    8  C   UNK N   1      16.788 -10.645   0.332  0.00  0.00     0.013 C 
HETATM    9  C   UNK N   1      13.008  -8.864  -0.369  0.00  0.00     0.007 C 
HETATM   10  C   UNK N   1      12.943  -9.884   0.779  0.00  0.00    -0.002 C 
HETATM   11  C   UNK N   1      14.207 -12.120   1.038  0.00  0.00     0.010 C 
HETATM   12  C   UNK N   1      11.747 -10.872   0.668  0.00  0.00     0.019 C 
HETATM   13  C   UNK N   1      13.456 -12.628  -0.198  0.00  0.00     0.035 C 
HETATM   14  C   UNK N   1      12.066 -12.064  -0.210  0.00  0.00    -0.072 C 
HETATM   15  C   UNK N   1      10.456 -10.178   0.215  0.00  0.00     0.017 C 
HETATM   16  C   UNK N   1      11.072 -12.861  -0.630  0.00  0.00     0.053 C 
HETATM   17  C   UNK N   1       9.273 -11.147   0.132  0.00  0.00     0.084 C 
HETATM   18  C   UNK N   1       9.654 -12.486  -0.441  0.00  0.00     0.149 C 
HETATM   19  O   UNK N   1       8.781 -13.294  -0.707  0.00  0.00    -0.293 OA
HETATM   20  O   UNK N   1      16.921  -7.183   0.898  0.00  0.00    -0.297 OA
ENDROOT
TORSDOF 0
