MODEL 1
REMARK VINA RESULT:      -7.3      0.000      0.000
REMARK  0 active torsions:
REMARK  status: ('A' for Active; 'I' for Inactive)
ROOT
HETATM    1  C   UNK N   1      25.934  22.535  -7.545  0.00  0.00     0.021 C 
HETATM    2  C   UNK N   1      25.729  23.055  -8.923  0.00  0.00     0.135 C 
HETATM    3  C   UNK N   1      27.256  21.749  -7.704  0.00  0.00     0.006 C 
HETATM    4  C   UNK N   1      26.021  23.631  -6.475  0.00  0.00     0.018 C 
HETATM    5  C   UNK N   1      24.775  21.604  -7.208  0.00  0.00     0.024 C 
HETATM    6  C   UNK N   1      26.609  22.428  -9.944  0.00  0.00     0.079 C 
HETATM    7  C   UNK N   1      28.527  22.633  -7.450  0.00  0.00    -0.004 C 
HETATM    8  C   UNK N   1      27.240  21.274  -9.161  0.00  0.00     0.013 C 
HETATM    9  C   UNK N   1      27.076  23.276  -5.431  0.00  0.00     0.007 C 
HETATM   10  C   UNK N   1      28.455  23.433  -6.091  0.00  0.00    -0.002 C 
HETATM   11  C   UNK N   1      29.775  21.735  -7.519  0.00  0.00     0.010 C 
HETATM   12  C   UNK N   1      29.643  23.154  -5.128  0.00  0.00     0.019 C 
HETATM   13  C   UNK N   1      29.853  20.834  -6.281  0.00  0.00     0.035 C 
HETATM   14  C   UNK N   1      29.985  21.681  -5.050  0.00  0.00    -0.072 C 
HETATM   15  C   UNK N   1      29.415  23.746  -3.731  0.00  0.00     0.017 C 
HETATM   16  C   UNK N   1      30.791  21.240  -4.072  0.00  0.00     0.053 C 
HETATM   17  C   UNK N   1      30.598  23.493  -2.792  0.00  0.00     0.084 C 
HETATM   18  C   UNK N   1      31.179  22.113  -2.943  0.00  0.00     0.149 C 
HETATM   19  O   UNK N   1      32.020  21.727  -2.150  0.00  0.00    -0.293 OA
HETATM   20  O   UNK N   1      24.824  23.819  -9.222  0.00  0.00    -0.297 OA
ENDROOT
TORSDOF 0
ENDMDL
MODEL 2
REMARK VINA RESULT:      -7.1     12.998     14.829
REMARK  0 active torsions:
REMARK  status: ('A' for Active; 'I' for Inactive)
ROOT
HETATM    1  C   UNK N   1      28.751  17.748   7.599  0.00  0.00     0.021 C 
HETATM    2  C   UNK N   1      28.478  17.563   9.049  0.00  0.00     0.135 C 
HETATM    3  C   UNK N   1      30.289  17.907   7.591  0.00  0.00     0.006 C 
HETATM    4  C   UNK N   1      28.272  16.583   6.724  0.00  0.00     0.018 C 
HETATM    5  C   UNK N   1      28.061  19.027   7.143  0.00  0.00     0.024 C 
HETATM    6  C   UNK N   1      29.632  17.889   9.929  0.00  0.00     0.079 C 
HETATM    7  C   UNK N   1      31.045  16.540   7.455  0.00  0.00    -0.004 C 
HETATM    8  C   UNK N   1      30.610  18.542   8.949  0.00  0.00     0.013 C 
HETATM    9  C   UNK N   1      29.276  16.304   5.608  0.00  0.00     0.007 C 
HETATM   10  C   UNK N   1      30.518  15.666   6.250  0.00  0.00    -0.002 C 
HETATM   11  C   UNK N   1      32.555  16.819   7.341  0.00  0.00     0.010 C 
HETATM   12  C   UNK N   1      31.619  15.275   5.223  0.00  0.00     0.019 C 
HETATM   13  C   UNK N   1      32.885  17.418   5.969  0.00  0.00     0.035 C 
HETATM   14  C   UNK N   1      32.535  16.434   4.892  0.00  0.00    -0.072 C 
HETATM   15  C   UNK N   1      31.034  14.648   3.951  0.00  0.00     0.017 C 
HETATM   16  C   UNK N   1      33.355  16.348   3.834  0.00  0.00     0.053 C 
HETATM   17  C   UNK N   1      32.120  14.238   2.952  0.00  0.00     0.084 C 
HETATM   18  C   UNK N   1      33.235  15.245   2.856  0.00  0.00     0.149 C 
HETATM   19  O   UNK N   1      34.082  15.120   1.989  0.00  0.00    -0.293 OA
HETATM   20  O   UNK N   1      27.370  17.308   9.495  0.00  0.00    -0.297 OA
ENDROOT
TORSDOF 0
ENDMDL
MODEL 3
REMARK VINA RESULT:      -7.1      3.739      5.275
REMARK  0 active torsions:
REMARK  status: ('A' for Active; 'I' for Inactive)
ROOT
HETATM    1  C   UNK N   1      26.681  22.894  -7.253  0.00  0.00     0.021 C 
HETATM    2  C   UNK N   1      25.884  22.129  -8.250  0.00  0.00     0.135 C 
HETATM    3  C   UNK N   1      27.033  24.170  -8.052  0.00  0.00     0.006 C 
HETATM    4  C   UNK N   1      25.923  23.196  -5.955  0.00  0.00     0.018 C 
HETATM    5  C   UNK N   1      27.931  22.087  -6.921  0.00  0.00     0.024 C 
HETATM    6  C   UNK N   1      25.973  22.664  -9.635  0.00  0.00     0.079 C 
HETATM    7  C   UNK N   1      25.954  25.299  -7.905  0.00  0.00    -0.004 C 
HETATM    8  C   UNK N   1      27.093  23.700  -9.509  0.00  0.00     0.013 C 
HETATM    9  C   UNK N   1      26.261  24.598  -5.453  0.00  0.00     0.007 C 
HETATM   10  C   UNK N   1      25.588  25.605  -6.400  0.00  0.00    -0.002 C 
HETATM   11  C   UNK N   1      26.453  26.557  -8.638  0.00  0.00     0.010 C 
HETATM   12  C   UNK N   1      25.801  27.089  -5.985  0.00  0.00     0.019 C 
HETATM   13  C   UNK N   1      27.599  27.211  -7.857  0.00  0.00     0.035 C 
HETATM   14  C   UNK N   1      27.105  27.651  -6.511  0.00  0.00    -0.072 C 
HETATM   15  C   UNK N   1      25.677  27.295  -4.470  0.00  0.00     0.017 C 
HETATM   16  C   UNK N   1      27.568  28.812  -6.024  0.00  0.00     0.053 C 
HETATM   17  C   UNK N   1      25.860  28.761  -4.066  0.00  0.00     0.084 C 
HETATM   18  C   UNK N   1      26.956  29.447  -4.837  0.00  0.00     0.149 C 
HETATM   19  O   UNK N   1      27.311  30.566  -4.507  0.00  0.00    -0.293 OA
HETATM   20  O   UNK N   1      25.325  21.074  -7.992  0.00  0.00    -0.297 OA
ENDROOT
TORSDOF 0
ENDMDL
MODEL 4
REMARK VINA RESULT:      -7.0      4.315      7.223
REMARK  0 active torsions:
REMARK  status: ('A' for Active; 'I' for Inactive)
ROOT
HETATM    1  C   UNK N   1      27.953  28.695  -5.367  0.00  0.00     0.021 C 
HETATM    2  C   UNK N   1      27.367  29.924  -4.770  0.00  0.00     0.135 C 
HETATM    3  C   UNK N   1      26.987  27.606  -4.846  0.00  0.00     0.006 C 
HETATM    4  C   UNK N   1      28.038  28.730  -6.898  0.00  0.00     0.018 C 
HETATM    5  C   UNK N   1      29.355  28.509  -4.797  0.00  0.00     0.024 C 
HETATM    6  C   UNK N   1      26.348  29.660  -3.720  0.00  0.00     0.079 C 
HETATM    7  C   UNK N   1      25.767  27.365  -5.801  0.00  0.00    -0.004 C 
HETATM    8  C   UNK N   1      26.492  28.151  -3.502  0.00  0.00     0.013 C 
HETATM    9  C   UNK N   1      27.708  27.358  -7.483  0.00  0.00     0.007 C 
HETATM   10  C   UNK N   1      26.199  27.127  -7.301  0.00  0.00    -0.002 C 
HETATM   11  C   UNK N   1      24.936  26.190  -5.253  0.00  0.00     0.010 C 
HETATM   12  C   UNK N   1      25.699  25.781  -7.899  0.00  0.00     0.019 C 
HETATM   13  C   UNK N   1      25.678  24.866  -5.466  0.00  0.00     0.035 C 
HETATM   14  C   UNK N   1      25.868  24.626  -6.935  0.00  0.00    -0.072 C 
HETATM   15  C   UNK N   1      26.341  25.471  -9.257  0.00  0.00     0.017 C 
HETATM   16  C   UNK N   1      25.745  23.367  -7.383  0.00  0.00     0.053 C 
HETATM   17  C   UNK N   1      25.826  24.159  -9.857  0.00  0.00     0.084 C 
HETATM   18  C   UNK N   1      25.665  23.071  -8.830  0.00  0.00     0.149 C 
HETATM   19  O   UNK N   1      25.413  21.935  -9.194  0.00  0.00    -0.293 OA
HETATM   20  O   UNK N   1      27.782  31.048  -5.009  0.00  0.00    -0.297 OA
ENDROOT
TORSDOF 0
ENDMDL
MODEL 5
REMARK VINA RESULT:      -6.9     23.971     26.260
REMARK  0 active torsions:
REMARK  status: ('A' for Active; 'I' for Inactive)
ROOT
HETATM    1  C   UNK N   1      36.733   8.709  13.698  0.00  0.00     0.021 C 
HETATM    2  C   UNK N   1      36.034   7.685  12.876  0.00  0.00     0.135 C 
HETATM    3  C   UNK N   1      35.730   9.884  13.649  0.00  0.00     0.006 C 
HETATM    4  C   UNK N   1      37.041   8.251  15.129  0.00  0.00     0.018 C 
HETATM    5  C   UNK N   1      38.040   9.068  13.001  0.00  0.00     0.024 C 
HETATM    6  C   UNK N   1      34.879   8.215  12.104  0.00  0.00     0.079 C 
HETATM    7  C   UNK N   1      34.669   9.831  14.803  0.00  0.00    -0.004 C 
HETATM    8  C   UNK N   1      35.029   9.727  12.295  0.00  0.00     0.013 C 
HETATM    9  C   UNK N   1      36.835   9.399  16.114  0.00  0.00     0.007 C 
HETATM   10  C   UNK N   1      35.323   9.648  16.228  0.00  0.00    -0.002 C 
HETATM   11  C   UNK N   1      33.798  11.098  14.732  0.00  0.00     0.010 C 
HETATM   12  C   UNK N   1      34.950  10.766  17.244  0.00  0.00     0.019 C 
HETATM   13  C   UNK N   1      34.598  12.322  15.192  0.00  0.00     0.035 C 
HETATM   14  C   UNK N   1      35.007  12.147  16.625  0.00  0.00    -0.072 C 
HETATM   15  C   UNK N   1      35.792  10.696  18.524  0.00  0.00     0.017 C 
HETATM   16  C   UNK N   1      34.984  13.228  17.418  0.00  0.00     0.053 C 
HETATM   17  C   UNK N   1      35.406  11.780  19.534  0.00  0.00     0.084 C 
HETATM   18  C   UNK N   1      35.124  13.109  18.885  0.00  0.00     0.149 C 
HETATM   19  O   UNK N   1      34.958  14.094  19.584  0.00  0.00    -0.293 OA
HETATM   20  O   UNK N   1      36.450   6.546  12.729  0.00  0.00    -0.297 OA
ENDROOT
TORSDOF 0
ENDMDL
MODEL 6
REMARK VINA RESULT:      -6.8     20.767     24.260
REMARK  0 active torsions:
REMARK  status: ('A' for Active; 'I' for Inactive)
ROOT
HETATM    1  C   UNK N   1      36.129  13.168  11.518  0.00  0.00     0.021 C 
HETATM    2  C   UNK N   1      37.253  13.650  10.670  0.00  0.00     0.135 C 
HETATM    3  C   UNK N   1      36.768  11.943  12.211  0.00  0.00     0.006 C 
HETATM    4  C   UNK N   1      35.613  14.212  12.515  0.00  0.00     0.018 C 
HETATM    5  C   UNK N   1      34.985  12.750  10.601  0.00  0.00     0.024 C 
HETATM    6  C   UNK N   1      38.380  12.687  10.554  0.00  0.00     0.079 C 
HETATM    7  C   UNK N   1      37.489  12.309  13.555  0.00  0.00    -0.004 C 
HETATM    8  C   UNK N   1      37.794  11.426  11.197  0.00  0.00     0.013 C 
HETATM    9  C   UNK N   1      35.261  13.552  13.846  0.00  0.00     0.007 C 
HETATM   10  C   UNK N   1      36.578  13.153  14.529  0.00  0.00    -0.002 C 
HETATM   11  C   UNK N   1      37.986  11.011  14.218  0.00  0.00     0.010 C 
HETATM   12  C   UNK N   1      36.383  12.509  15.931  0.00  0.00     0.019 C 
HETATM   13  C   UNK N   1      36.804  10.215  14.784  0.00  0.00     0.035 C 
HETATM   14  C   UNK N   1      36.118  11.020  15.848  0.00  0.00    -0.072 C 
HETATM   15  C   UNK N   1      35.303  13.220  16.756  0.00  0.00     0.017 C 
HETATM   16  C   UNK N   1      35.661  10.368  16.927  0.00  0.00     0.053 C 
HETATM   17  C   UNK N   1      35.130  12.601  18.146  0.00  0.00     0.084 C 
HETATM   18  C   UNK N   1      35.203  11.098  18.129  0.00  0.00     0.149 C 
HETATM   19  O   UNK N   1      34.927  10.474  19.139  0.00  0.00    -0.293 OA
HETATM   20  O   UNK N   1      37.200  14.676  10.010  0.00  0.00    -0.297 OA
ENDROOT
TORSDOF 0
ENDMDL
MODEL 7
REMARK VINA RESULT:      -6.8     25.112     29.084
REMARK  0 active torsions:
REMARK  status: ('A' for Active; 'I' for Inactive)
ROOT
HETATM    1  C   UNK N   1      33.317   8.785  20.356  0.00  0.00     0.021 C 
HETATM    2  C   UNK N   1      33.752   8.137  21.622  0.00  0.00     0.135 C 
HETATM    3  C   UNK N   1      33.838  10.227  20.552  0.00  0.00     0.006 C 
HETATM    4  C   UNK N   1      33.878   8.118  19.094  0.00  0.00     0.018 C 
HETATM    5  C   UNK N   1      31.795   8.750  20.301  0.00  0.00     0.024 C 
HETATM    6  C   UNK N   1      34.204   9.093  22.668  0.00  0.00     0.079 C 
HETATM    7  C   UNK N   1      35.304  10.424  20.030  0.00  0.00    -0.004 C 
HETATM    8  C   UNK N   1      33.797  10.442  22.069  0.00  0.00     0.013 C 
HETATM    9  C   UNK N   1      34.247   9.171  18.052  0.00  0.00     0.007 C 
HETATM   10  C   UNK N   1      35.504   9.900  18.554  0.00  0.00    -0.002 C 
HETATM   11  C   UNK N   1      35.681  11.910  20.164  0.00  0.00     0.010 C 
HETATM   12  C   UNK N   1      36.036  10.978  17.566  0.00  0.00     0.019 C 
HETATM   13  C   UNK N   1      34.935  12.747  19.119  0.00  0.00     0.035 C 
HETATM   14  C   UNK N   1      35.341  12.311  17.742  0.00  0.00    -0.072 C 
HETATM   15  C   UNK N   1      35.980  10.510  16.106  0.00  0.00     0.017 C 
HETATM   16  C   UNK N   1      35.481  13.259  16.803  0.00  0.00     0.053 C 
HETATM   17  C   UNK N   1      36.529  11.561  15.137  0.00  0.00     0.084 C 
HETATM   18  C   UNK N   1      36.115  12.962  15.500  0.00  0.00     0.149 C 
HETATM   19  O   UNK N   1      36.351  13.876  14.728  0.00  0.00    -0.293 OA
HETATM   20  O   UNK N   1      33.616   6.943  21.844  0.00  0.00    -0.297 OA
ENDROOT
TORSDOF 0
ENDMDL
MODEL 8
REMARK VINA RESULT:      -6.8      3.374      4.502
REMARK  0 active torsions:
REMARK  status: ('A' for Active; 'I' for Inactive)
ROOT
HETATM    1  C   UNK N   1      26.394  26.993  -4.913  0.00  0.00     0.021 C 
HETATM    2  C   UNK N   1      26.557  28.469  -4.825  0.00  0.00     0.135 C 
HETATM    3  C   UNK N   1      27.510  26.618  -5.915  0.00  0.00     0.006 C 
HETATM    4  C   UNK N   1      26.539  26.272  -3.567  0.00  0.00     0.018 C 
HETATM    5  C   UNK N   1      25.014  26.699  -5.487  0.00  0.00     0.024 C 
HETATM    6  C   UNK N   1      27.436  29.045  -5.876  0.00  0.00     0.079 C 
HETATM    7  C   UNK N   1      28.884  26.323  -5.218  0.00  0.00    -0.004 C 
HETATM    8  C   UNK N   1      27.642  27.853  -6.814  0.00  0.00     0.013 C 
HETATM    9  C   UNK N   1      27.287  24.953  -3.746  0.00  0.00     0.007 C 
HETATM   10  C   UNK N   1      28.759  25.289  -4.032  0.00  0.00    -0.002 C 
HETATM   11  C   UNK N   1      29.888  25.850  -6.285  0.00  0.00     0.010 C 
HETATM   12  C   UNK N   1      29.666  24.034  -4.188  0.00  0.00     0.019 C 
HETATM   13  C   UNK N   1      29.541  24.432  -6.753  0.00  0.00     0.035 C 
HETATM   14  C   UNK N   1      29.644  23.481  -5.597  0.00  0.00    -0.072 C 
HETATM   15  C   UNK N   1      29.337  22.945  -3.159  0.00  0.00     0.017 C 
HETATM   16  C   UNK N   1      30.145  22.260  -5.836  0.00  0.00     0.053 C 
HETATM   17  C   UNK N   1      30.248  21.722  -3.296  0.00  0.00     0.084 C 
HETATM   18  C   UNK N   1      30.518  21.352  -4.730  0.00  0.00     0.149 C 
HETATM   19  O   UNK N   1      31.097  20.309  -4.981  0.00  0.00    -0.293 OA
HETATM   20  O   UNK N   1      25.916  29.168  -4.054  0.00  0.00    -0.297 OA
ENDROOT
TORSDOF 0
ENDMDL
MODEL 9
REMARK VINA RESULT:      -6.7      3.359      6.479
REMARK  0 active torsions:
REMARK  status: ('A' for Active; 'I' for Inactive)
ROOT
HETATM    1  C   UNK N   1      34.008  20.754  -4.689  0.00  0.00     0.021 C 
HETATM    2  C   UNK N   1      34.462  19.387  -5.063  0.00  0.00     0.135 C 
HETATM    3  C   UNK N   1      32.812  20.955  -5.648  0.00  0.00     0.006 C 
HETATM    4  C   UNK N   1      33.617  20.895  -3.214  0.00  0.00     0.018 C 
HETATM    5  C   UNK N   1      35.135  21.732  -5.000  0.00  0.00     0.024 C 
HETATM    6  C   UNK N   1      33.866  18.876  -6.326  0.00  0.00     0.079 C 
HETATM    7  C   UNK N   1      31.455  20.451  -5.044  0.00  0.00    -0.004 C 
HETATM    8  C   UNK N   1      33.171  20.121  -6.882  0.00  0.00     0.013 C 
HETATM    9  C   UNK N   1      32.393  21.797  -3.069  0.00  0.00     0.007 C 
HETATM   10  C   UNK N   1      31.178  21.019  -3.598  0.00  0.00    -0.002 C 
HETATM   11  C   UNK N   1      30.319  20.802  -6.023  0.00  0.00     0.010 C 
HETATM   12  C   UNK N   1      29.836  21.795  -3.468  0.00  0.00     0.019 C 
HETATM   13  C   UNK N   1      30.047  22.310  -6.007  0.00  0.00     0.035 C 
HETATM   14  C   UNK N   1      29.596  22.726  -4.638  0.00  0.00    -0.072 C 
HETATM   15  C   UNK N   1      29.719  22.540  -2.132  0.00  0.00     0.017 C 
HETATM   16  C   UNK N   1      28.636  23.660  -4.554  0.00  0.00     0.053 C 
HETATM   17  C   UNK N   1      28.387  23.282  -1.994  0.00  0.00     0.084 C 
HETATM   18  C   UNK N   1      27.955  23.948  -3.273  0.00  0.00     0.149 C 
HETATM   19  O   UNK N   1      26.995  24.700  -3.262  0.00  0.00    -0.293 OA
HETATM   20  O   UNK N   1      35.351  18.792  -4.473  0.00  0.00    -0.297 OA
ENDROOT
TORSDOF 0
ENDMDL
