MODEL 1
REMARK VINA RESULT:      -6.2      0.000      0.000
REMARK  2 active torsions:
REMARK  status: ('A' for Active; 'I' for Inactive)
REMARK    1  A    between atoms: C_4  and  C_6 
REMARK    2  A    between atoms: C_4  and  C_7 
ROOT
HETATM    1  O   UNK N   1      38.060  11.446  14.697  0.00  0.00    -0.272 OA
HETATM    2  O   UNK N   1      37.030  13.190  10.734  0.00  0.00    -0.273 OA
HETATM    3  N   UNK N   1      37.549  12.293  12.707  0.00  0.00    -0.297 N 
HETATM    4  C   UNK N   1      35.884  12.427  14.609  0.00  0.00     0.068 C 
HETATM    5  C   UNK N   1      34.941  12.990  13.527  0.00  0.00     0.033 C 
HETATM    6  C   UNK N   1      35.657  13.871  12.520  0.00  0.00     0.105 C 
HETATM    7  C   UNK N   1      37.241  12.029  14.005  0.00  0.00     0.237 C 
HETATM    8  C   UNK N   1      36.778  13.083  11.922  0.00  0.00     0.224 C 
HETATM    9  H   UNK N   1      38.364  11.896  12.324  0.00  0.00     0.171 HD
ENDROOT
BRANCH   4  10
HETATM   10  C   UNK N   1      35.143  11.161  15.097  0.00  0.00     0.020 C 
HETATM   11  C   UNK N   1      33.825  10.854  14.399  0.00  0.00     0.006 C 
ENDBRANCH   4  10
BRANCH   4  12
HETATM   12  C   UNK N   1      36.085  13.466  15.715  0.00  0.00    -0.040 A 
HETATM   13  C   UNK N   1      37.017  14.512  15.579  0.00  0.00     0.008 A 
HETATM   14  C   UNK N   1      37.189  15.455  16.596  0.00  0.00     0.001 A 
HETATM   15  C   UNK N   1      36.443  15.358  17.771  0.00  0.00     0.000 A 
HETATM   16  C   UNK N   1      35.518  14.323  17.926  0.00  0.00     0.001 A 
HETATM   17  C   UNK N   1      35.335  13.387  16.903  0.00  0.00     0.008 A 
ENDBRANCH   4  12
TORSDOF 2
ENDMDL
MODEL 2
REMARK VINA RESULT:      -6.1      7.376      9.553
REMARK  2 active torsions:
REMARK  status: ('A' for Active; 'I' for Inactive)
REMARK    1  A    between atoms: C_4  and  C_6 
REMARK    2  A    between atoms: C_4  and  C_7 
ROOT
HETATM    1  O   UNK N   1      32.021  15.006   9.355  0.00  0.00    -0.272 OA
HETATM    2  O   UNK N   1      35.583  17.620   9.883  0.00  0.00    -0.273 OA
HETATM    3  N   UNK N   1      33.815  16.290   9.620  0.00  0.00    -0.297 N 
HETATM    4  C   UNK N   1      32.389  16.514   7.541  0.00  0.00     0.068 C 
HETATM    5  C   UNK N   1      33.499  17.482   7.083  0.00  0.00     0.033 C 
HETATM    6  C   UNK N   1      34.067  18.310   8.220  0.00  0.00     0.105 C 
HETATM    7  C   UNK N   1      32.729  15.891   8.905  0.00  0.00     0.237 C 
HETATM    8  C   UNK N   1      34.551  17.376   9.284  0.00  0.00     0.224 C 
HETATM    9  H   UNK N   1      34.076  15.770  10.413  0.00  0.00     0.171 HD
ENDROOT
BRANCH   4  10
HETATM   10  C   UNK N   1      32.407  15.417   6.452  0.00  0.00     0.020 C 
HETATM   11  C   UNK N   1      33.421  15.612   5.331  0.00  0.00     0.006 C 
ENDBRANCH   4  10
BRANCH   4  12
HETATM   12  C   UNK N   1      31.053  17.257   7.620  0.00  0.00    -0.040 A 
HETATM   13  C   UNK N   1      30.692  18.000   8.759  0.00  0.00     0.008 A 
HETATM   14  C   UNK N   1      29.470  18.675   8.818  0.00  0.00     0.001 A 
HETATM   15  C   UNK N   1      28.582  18.604   7.743  0.00  0.00     0.000 A 
HETATM   16  C   UNK N   1      28.920  17.866   6.607  0.00  0.00     0.001 A 
HETATM   17  C   UNK N   1      30.150  17.202   6.542  0.00  0.00     0.008 A 
ENDBRANCH   4  12
TORSDOF 2
ENDMDL
MODEL 3
REMARK VINA RESULT:      -5.8      2.072      2.889
REMARK  2 active torsions:
REMARK  status: ('A' for Active; 'I' for Inactive)
REMARK    1  A    between atoms: C_4  and  C_6 
REMARK    2  A    between atoms: C_4  and  C_7 
ROOT
HETATM    1  O   UNK N   1      37.683  11.855  14.773  0.00  0.00    -0.272 OA
HETATM    2  O   UNK N   1      34.188  11.057  12.137  0.00  0.00    -0.273 OA
HETATM    3  N   UNK N   1      35.954  11.444  13.440  0.00  0.00    -0.297 N 
HETATM    4  C   UNK N   1      35.957  10.577  15.818  0.00  0.00     0.068 C 
HETATM    5  C   UNK N   1      34.660   9.864  15.387  0.00  0.00     0.033 C 
HETATM    6  C   UNK N   1      33.820  10.693  14.433  0.00  0.00     0.105 C 
HETATM    7  C   UNK N   1      36.585  11.341  14.641  0.00  0.00     0.237 C 
HETATM    8  C   UNK N   1      34.669  11.058  13.257  0.00  0.00     0.224 C 
HETATM    9  H   UNK N   1      36.450  11.814  12.675  0.00  0.00     0.171 HD
ENDROOT
BRANCH   4  10
HETATM   10  C   UNK N   1      36.882   9.408  16.229  0.00  0.00     0.020 C 
HETATM   11  C   UNK N   1      36.802   8.162  15.357  0.00  0.00     0.006 C 
ENDBRANCH   4  10
BRANCH   4  12
HETATM   12  C   UNK N   1      35.662  11.539  16.972  0.00  0.00    -0.040 A 
HETATM   13  C   UNK N   1      35.407  12.905  16.742  0.00  0.00     0.008 A 
HETATM   14  C   UNK N   1      35.137  13.772  17.804  0.00  0.00     0.001 A 
HETATM   15  C   UNK N   1      35.133  13.291  19.114  0.00  0.00     0.000 A 
HETATM   16  C   UNK N   1      35.390  11.941  19.361  0.00  0.00     0.001 A 
HETATM   17  C   UNK N   1      35.646  11.069  18.297  0.00  0.00     0.008 A 
ENDBRANCH   4  12
TORSDOF 2
ENDMDL
MODEL 4
REMARK VINA RESULT:      -5.7      2.267      3.521
REMARK  2 active torsions:
REMARK  status: ('A' for Active; 'I' for Inactive)
REMARK    1  A    between atoms: C_4  and  C_6 
REMARK    2  A    between atoms: C_4  and  C_7 
ROOT
HETATM    1  O   UNK N   1      33.556  11.014  14.728  0.00  0.00    -0.272 OA
HETATM    2  O   UNK N   1      37.028   8.514  13.506  0.00  0.00    -0.273 OA
HETATM    3  N   UNK N   1      35.282   9.766  14.093  0.00  0.00    -0.297 N 
HETATM    4  C   UNK N   1      35.675  12.036  15.141  0.00  0.00     0.068 C 
HETATM    5  C   UNK N   1      37.151  11.762  14.786  0.00  0.00     0.033 C 
HETATM    6  C   UNK N   1      37.536  10.304  14.947  0.00  0.00     0.105 C 
HETATM    7  C   UNK N   1      34.768  10.899  14.644  0.00  0.00     0.237 C 
HETATM    8  C   UNK N   1      36.605   9.478  14.119  0.00  0.00     0.224 C 
HETATM    9  H   UNK N   1      34.668   9.131  13.659  0.00  0.00     0.171 HD
ENDROOT
BRANCH   4  10
HETATM   10  C   UNK N   1      35.359  13.331  14.358  0.00  0.00     0.020 C 
HETATM   11  C   UNK N   1      36.097  13.504  13.037  0.00  0.00     0.006 C 
ENDBRANCH   4  10
BRANCH   4  12
HETATM   12  C   UNK N   1      35.529  12.202  16.656  0.00  0.00    -0.040 A 
HETATM   13  C   UNK N   1      35.612  11.100  17.527  0.00  0.00     0.008 A 
HETATM   14  C   UNK N   1      35.478  11.266  18.908  0.00  0.00     0.001 A 
HETATM   15  C   UNK N   1      35.243  12.536  19.439  0.00  0.00     0.000 A 
HETATM   16  C   UNK N   1      35.151  13.640  18.589  0.00  0.00     0.001 A 
HETATM   17  C   UNK N   1      35.299  13.476  17.207  0.00  0.00     0.008 A 
ENDBRANCH   4  12
TORSDOF 2
ENDMDL
MODEL 5
REMARK VINA RESULT:      -5.7      7.378      9.710
REMARK  2 active torsions:
REMARK  status: ('A' for Active; 'I' for Inactive)
REMARK    1  A    between atoms: C_4  and  C_6 
REMARK    2  A    between atoms: C_4  and  C_7 
ROOT
HETATM    1  O   UNK N   1      31.884  14.536   7.718  0.00  0.00    -0.272 OA
HETATM    2  O   UNK N   1      35.584  16.300   9.450  0.00  0.00    -0.273 OA
HETATM    3  N   UNK N   1      33.746  15.398   8.571  0.00  0.00    -0.297 N 
HETATM    4  C   UNK N   1      32.298  16.783   7.025  0.00  0.00     0.068 C 
HETATM    5  C   UNK N   1      33.448  17.805   7.131  0.00  0.00     0.033 C 
HETATM    6  C   UNK N   1      34.077  17.845   8.511  0.00  0.00     0.105 C 
HETATM    7  C   UNK N   1      32.629  15.499   7.802  0.00  0.00     0.237 C 
HETATM    8  C   UNK N   1      34.531  16.463   8.860  0.00  0.00     0.224 C 
HETATM    9  H   UNK N   1      33.993  14.517   8.933  0.00  0.00     0.171 HD
ENDROOT
BRANCH   4  10
HETATM   10  C   UNK N   1      32.241  16.473   5.512  0.00  0.00     0.020 C 
HETATM   11  C   UNK N   1      32.902  17.499   4.599  0.00  0.00     0.006 C 
ENDBRANCH   4  10
BRANCH   4  12
HETATM   12  C   UNK N   1      31.003  17.402   7.558  0.00  0.00    -0.040 A 
HETATM   13  C   UNK N   1      30.953  18.030   8.817  0.00  0.00     0.008 A 
HETATM   14  C   UNK N   1      29.765  18.592   9.291  0.00  0.00     0.001 A 
HETATM   15  C   UNK N   1      28.603  18.522   8.519  0.00  0.00     0.000 A 
HETATM   16  C   UNK N   1      28.633  17.897   7.270  0.00  0.00     0.001 A 
HETATM   17  C   UNK N   1      29.826  17.347   6.789  0.00  0.00     0.008 A 
ENDBRANCH   4  12
TORSDOF 2
ENDMDL
MODEL 6
REMARK VINA RESULT:      -5.6      9.366     10.593
REMARK  2 active torsions:
REMARK  status: ('A' for Active; 'I' for Inactive)
REMARK    1  A    between atoms: C_4  and  C_6 
REMARK    2  A    between atoms: C_4  and  C_7 
ROOT
HETATM    1  O   UNK N   1      31.262  14.299   6.513  0.00  0.00    -0.272 OA
HETATM    2  O   UNK N   1      35.397  15.840   5.940  0.00  0.00    -0.273 OA
HETATM    3  N   UNK N   1      33.332  15.049   6.210  0.00  0.00    -0.297 N 
HETATM    4  C   UNK N   1      31.353  16.510   5.615  0.00  0.00     0.068 C 
HETATM    5  C   UNK N   1      32.431  17.458   5.051  0.00  0.00     0.033 C 
HETATM    6  C   UNK N   1      33.700  17.469   5.883  0.00  0.00     0.105 C 
HETATM    7  C   UNK N   1      31.983  15.213   6.149  0.00  0.00     0.237 C 
HETATM    8  C   UNK N   1      34.201  16.064   5.994  0.00  0.00     0.224 C 
HETATM    9  H   UNK N   1      33.690  14.157   6.421  0.00  0.00     0.171 HD
ENDROOT
BRANCH   4  10
HETATM   10  C   UNK N   1      30.483  16.191   4.378  0.00  0.00     0.020 C 
HETATM   11  C   UNK N   1      31.136  16.442   3.025  0.00  0.00     0.006 C 
ENDBRANCH   4  10
BRANCH   4  12
HETATM   12  C   UNK N   1      30.573  17.214   6.728  0.00  0.00    -0.040 A 
HETATM   13  C   UNK N   1      31.153  17.460   7.988  0.00  0.00     0.008 A 
HETATM   14  C   UNK N   1      30.430  18.105   8.995  0.00  0.00     0.001 A 
HETATM   15  C   UNK N   1      29.112  18.501   8.764  0.00  0.00     0.000 A 
HETATM   16  C   UNK N   1      28.519  18.260   7.523  0.00  0.00     0.001 A 
HETATM   17  C   UNK N   1      29.246  17.627   6.509  0.00  0.00     0.008 A 
ENDBRANCH   4  12
TORSDOF 2
ENDMDL
MODEL 7
REMARK VINA RESULT:      -5.5     25.148     26.653
REMARK  2 active torsions:
REMARK  status: ('A' for Active; 'I' for Inactive)
REMARK    1  A    between atoms: C_4  and  C_6 
REMARK    2  A    between atoms: C_4  and  C_7 
ROOT
HETATM    1  O   UNK N   1      28.496  25.310  -4.947  0.00  0.00    -0.272 OA
HETATM    2  O   UNK N   1      25.477  27.871  -2.915  0.00  0.00    -0.273 OA
HETATM    3  N   UNK N   1      27.007  26.605  -3.924  0.00  0.00    -0.297 N 
HETATM    4  C   UNK N   1      26.880  26.259  -6.428  0.00  0.00     0.068 C 
HETATM    5  C   UNK N   1      25.763  27.318  -6.353  0.00  0.00     0.033 C 
HETATM    6  C   UNK N   1      24.917  27.196  -5.099  0.00  0.00     0.105 C 
HETATM    7  C   UNK N   1      27.510  26.023  -5.046  0.00  0.00     0.237 C 
HETATM    8  C   UNK N   1      25.825  27.264  -3.913  0.00  0.00     0.224 C 
HETATM    9  H   UNK N   1      27.523  26.544  -3.088  0.00  0.00     0.171 HD
ENDROOT
BRANCH   4  10
HETATM   10  C   UNK N   1      27.921  26.910  -7.367  0.00  0.00     0.020 C 
HETATM   11  C   UNK N   1      28.081  28.420  -7.234  0.00  0.00     0.006 C 
ENDBRANCH   4  10
BRANCH   4  12
HETATM   12  C   UNK N   1      26.316  24.947  -6.980  0.00  0.00    -0.040 A 
HETATM   13  C   UNK N   1      25.993  24.803  -8.342  0.00  0.00     0.008 A 
HETATM   14  C   UNK N   1      25.480  23.599  -8.834  0.00  0.00     0.001 A 
HETATM   15  C   UNK N   1      25.268  22.526  -7.967  0.00  0.00     0.000 A 
HETATM   16  C   UNK N   1      25.577  22.653  -6.611  0.00  0.00     0.001 A 
HETATM   17  C   UNK N   1      26.104  23.853  -6.122  0.00  0.00     0.008 A 
ENDBRANCH   4  12
TORSDOF 2
ENDMDL
MODEL 8
REMARK VINA RESULT:      -5.4      2.498      3.220
REMARK  2 active torsions:
REMARK  status: ('A' for Active; 'I' for Inactive)
REMARK    1  A    between atoms: C_4  and  C_6 
REMARK    2  A    between atoms: C_4  and  C_7 
ROOT
HETATM    1  O   UNK N   1      35.205   8.666  16.440  0.00  0.00    -0.272 OA
HETATM    2  O   UNK N   1      38.736   9.489  13.860  0.00  0.00    -0.273 OA
HETATM    3  N   UNK N   1      36.961   9.058  15.135  0.00  0.00    -0.297 N 
HETATM    4  C   UNK N   1      35.258  10.883  15.553  0.00  0.00     0.068 C 
HETATM    5  C   UNK N   1      36.079  11.662  14.505  0.00  0.00     0.033 C 
HETATM    6  C   UNK N   1      37.569  11.392  14.603  0.00  0.00     0.105 C 
HETATM    7  C   UNK N   1      35.813   9.462  15.742  0.00  0.00     0.237 C 
HETATM    8  C   UNK N   1      37.786   9.917  14.491  0.00  0.00     0.224 C 
HETATM    9  H   UNK N   1      37.202   8.104  15.166  0.00  0.00     0.171 HD
ENDROOT
BRANCH   4  10
HETATM   10  C   UNK N   1      33.852  10.809  14.915  0.00  0.00     0.020 C 
HETATM   11  C   UNK N   1      33.812  10.437  13.438  0.00  0.00     0.006 C 
ENDBRANCH   4  10
BRANCH   4  12
HETATM   12  C   UNK N   1      35.271  11.635  16.886  0.00  0.00    -0.040 A 
HETATM   13  C   UNK N   1      34.997  13.014  16.954  0.00  0.00     0.008 A 
HETATM   14  C   UNK N   1      35.011  13.688  18.178  0.00  0.00     0.001 A 
HETATM   15  C   UNK N   1      35.312  12.996  19.353  0.00  0.00     0.000 A 
HETATM   16  C   UNK N   1      35.592  11.629  19.304  0.00  0.00     0.001 A 
HETATM   17  C   UNK N   1      35.565  10.951  18.080  0.00  0.00     0.008 A 
ENDBRANCH   4  12
TORSDOF 2
ENDMDL
MODEL 9
REMARK VINA RESULT:      -5.4      8.045      9.840
REMARK  2 active torsions:
REMARK  status: ('A' for Active; 'I' for Inactive)
REMARK    1  A    between atoms: C_4  and  C_6 
REMARK    2  A    between atoms: C_4  and  C_7 
ROOT
HETATM    1  O   UNK N   1      32.169  17.526   5.402  0.00  0.00    -0.272 OA
HETATM    2  O   UNK N   1      33.331  13.374   6.503  0.00  0.00    -0.273 OA
HETATM    3  N   UNK N   1      32.772  15.456   5.940  0.00  0.00    -0.297 N 
HETATM    4  C   UNK N   1      32.251  17.138   7.757  0.00  0.00     0.068 C 
HETATM    5  C   UNK N   1      32.740  16.022   8.703  0.00  0.00     0.033 C 
HETATM    6  C   UNK N   1      32.349  14.635   8.231  0.00  0.00     0.105 C 
HETATM    7  C   UNK N   1      32.390  16.714   6.286  0.00  0.00     0.237 C 
HETATM    8  C   UNK N   1      32.868  14.449   6.841  0.00  0.00     0.224 C 
HETATM    9  H   UNK N   1      32.987  15.269   4.998  0.00  0.00     0.171 HD
ENDROOT
BRANCH   4  10
HETATM   10  C   UNK N   1      33.223  18.303   8.055  0.00  0.00     0.020 C 
HETATM   11  C   UNK N   1      34.670  17.908   8.323  0.00  0.00     0.006 C 
ENDBRANCH   4  10
BRANCH   4  12
HETATM   12  C   UNK N   1      30.793  17.482   8.071  0.00  0.00    -0.040 A 
HETATM   13  C   UNK N   1      30.452  18.330   9.141  0.00  0.00     0.008 A 
HETATM   14  C   UNK N   1      29.117  18.637   9.416  0.00  0.00     0.001 A 
HETATM   15  C   UNK N   1      28.100  18.088   8.632  0.00  0.00     0.000 A 
HETATM   16  C   UNK N   1      28.419  17.240   7.571  0.00  0.00     0.001 A 
HETATM   17  C   UNK N   1      29.756  16.944   7.287  0.00  0.00     0.008 A 
ENDBRANCH   4  12
TORSDOF 2
ENDMDL
