MODEL 1
REMARK VINA RESULT:      -6.6      0.000      0.000
REMARK  6 active torsions:
REMARK  status: ('A' for Active; 'I' for Inactive)
REMARK    1  A    between atoms: N_3  and  C_11 
REMARK    2  A    between atoms: N_4  and  C_5 
REMARK    3  A    between atoms: N_4  and  C_13 
REMARK       I    between atoms: N_4  and  C_14 
REMARK    4  A    between atoms: C_11  and  C_12 
REMARK    5  A    between atoms: C_12  and  C_16 
REMARK    6  A    between atoms: C_14  and  C_15 
ROOT
HETATM    1  N   UNK N   1      34.908  13.663   9.774  0.00  0.00     0.089 N 
HETATM    2  C   UNK N   1      33.631  15.457   8.373  0.00  0.00     0.100 C 
HETATM    3  C   UNK N   1      33.952  15.940   9.808  0.00  0.00     0.033 C 
HETATM    4  C   UNK N   1      32.870  14.130   8.426  0.00  0.00     0.056 C 
HETATM    5  C   UNK N   1      34.469  14.755  10.651  0.00  0.00     0.278 C 
HETATM    6  C   UNK N   1      33.753  13.062   9.090  0.00  0.00     0.274 C 
HETATM    7  C   UNK N   1      35.022  17.016   9.788  0.00  0.00     0.014 C 
ENDROOT
BRANCH   2   8
HETATM    8  N   UNK N   1      33.088  16.368   7.351  0.00  0.00    -0.313 N 
HETATM    9  C   UNK N   1      33.820  16.716   6.222  0.00  0.00     0.224 C 
HETATM   10  O   UNK N   1      34.969  16.316   6.087  0.00  0.00    -0.273 OA
BRANCH   8  11
HETATM   11  C   UNK N   1      31.746  16.869   7.607  0.00  0.00     0.037 A 
HETATM   12  C   UNK N   1      30.614  16.415   6.907  0.00  0.00     0.030 A 
HETATM   13  C   UNK N   1      29.348  16.960   7.145  0.00  0.00     0.002 A 
HETATM   14  C   UNK N   1      29.189  17.976   8.087  0.00  0.00     0.000 A 
HETATM   15  C   UNK N   1      30.293  18.444   8.795  0.00  0.00     0.002 A 
HETATM   16  C   UNK N   1      31.555  17.899   8.556  0.00  0.00     0.030 A 
ENDBRANCH   8  11
BRANCH   9  17
HETATM   17  C   UNK N   1      33.242  17.573   5.117  0.00  0.00     0.099 C 
HETATM   18  C   UNK N   1      32.959  16.812   3.831  0.00  0.00     0.014 C 
ENDBRANCH   9  17
ENDBRANCH   2   8
BRANCH   1  19
HETATM   19  C   UNK N   1      35.697  12.660  10.488  0.00  0.00     0.277 C 
BRANCH  19  20
HETATM   20  C   UNK N   1      36.929  13.234  11.178  0.00  0.00     0.076 C 
BRANCH  20  21
HETATM   21  C   UNK N   1      36.906  12.875  12.619  0.00  0.00    -0.016 A 
HETATM   22  S   UNK N   1      36.266  13.775  13.845  0.00  0.00    -0.106 SA
HETATM   23  C   UNK N   1      36.599  12.783  15.130  0.00  0.00     0.050 A 
HETATM   24  C   UNK N   1      37.254  11.664  14.593  0.00  0.00     0.008 A 
HETATM   25  C   UNK N   1      37.425  11.714  13.179  0.00  0.00     0.015 A 
ENDBRANCH  20  21
ENDBRANCH  19  20
ENDBRANCH   1  19
TORSDOF 6
ENDMDL
MODEL 2
REMARK VINA RESULT:      -6.5      1.275      1.826
REMARK  6 active torsions:
REMARK  status: ('A' for Active; 'I' for Inactive)
REMARK    1  A    between atoms: N_3  and  C_11 
REMARK    2  A    between atoms: N_4  and  C_5 
REMARK    3  A    between atoms: N_4  and  C_13 
REMARK       I    between atoms: N_4  and  C_14 
REMARK    4  A    between atoms: C_11  and  C_12 
REMARK    5  A    between atoms: C_12  and  C_16 
REMARK    6  A    between atoms: C_14  and  C_15 
ROOT
HETATM    1  N   UNK N   1      35.191  15.329   9.370  0.00  0.00     0.089 N 
HETATM    2  C   UNK N   1      33.296  16.505   8.015  0.00  0.00     0.100 C 
HETATM    3  C   UNK N   1      33.977  17.453   9.032  0.00  0.00     0.033 C 
HETATM    4  C   UNK N   1      32.789  15.249   8.729  0.00  0.00     0.056 C 
HETATM    5  C   UNK N   1      34.896  16.638   9.966  0.00  0.00     0.278 C 
HETATM    6  C   UNK N   1      33.980  14.496   9.342  0.00  0.00     0.274 C 
HETATM    7  C   UNK N   1      34.819  18.493   8.319  0.00  0.00     0.014 C 
ENDROOT
BRANCH   2   8
HETATM    8  N   UNK N   1      32.335  17.002   7.015  0.00  0.00    -0.313 N 
HETATM    9  C   UNK N   1      32.667  17.096   5.669  0.00  0.00     0.224 C 
HETATM   10  O   UNK N   1      33.801  16.824   5.296  0.00  0.00    -0.273 OA
BRANCH   8  11
HETATM   11  C   UNK N   1      31.029  17.380   7.534  0.00  0.00     0.037 A 
HETATM   12  C   UNK N   1      30.861  18.284   8.598  0.00  0.00     0.030 A 
HETATM   13  C   UNK N   1      29.591  18.580   9.103  0.00  0.00     0.002 A 
HETATM   14  C   UNK N   1      28.461  17.974   8.555  0.00  0.00     0.000 A 
HETATM   15  C   UNK N   1      28.598  17.077   7.499  0.00  0.00     0.002 A 
HETATM   16  C   UNK N   1      29.866  16.782   6.997  0.00  0.00     0.030 A 
ENDBRANCH   8  11
BRANCH   9  17
HETATM   17  C   UNK N   1      31.664  17.512   4.617  0.00  0.00     0.099 C 
HETATM   18  C   UNK N   1      32.059  17.123   3.200  0.00  0.00     0.014 C 
ENDBRANCH   9  17
ENDBRANCH   2   8
BRANCH   1  19
HETATM   19  C   UNK N   1      36.299  14.651  10.041  0.00  0.00     0.277 C 
BRANCH  19  20
HETATM   20  C   UNK N   1      35.903  13.324  10.678  0.00  0.00     0.076 C 
BRANCH  20  21
HETATM   21  C   UNK N   1      36.189  13.367  12.135  0.00  0.00    -0.016 A 
HETATM   22  S   UNK N   1      36.634  12.093  13.086  0.00  0.00    -0.106 SA
HETATM   23  C   UNK N   1      36.768  12.863  14.548  0.00  0.00     0.050 A 
HETATM   24  C   UNK N   1      36.450  14.208  14.305  0.00  0.00     0.008 A 
HETATM   25  C   UNK N   1      36.126  14.493  12.947  0.00  0.00     0.015 A 
ENDBRANCH  20  21
ENDBRANCH  19  20
ENDBRANCH   1  19
TORSDOF 6
ENDMDL
MODEL 3
REMARK VINA RESULT:      -6.4      1.762      3.276
REMARK  6 active torsions:
REMARK  status: ('A' for Active; 'I' for Inactive)
REMARK    1  A    between atoms: N_3  and  C_11 
REMARK    2  A    between atoms: N_4  and  C_5 
REMARK    3  A    between atoms: N_4  and  C_13 
REMARK       I    between atoms: N_4  and  C_14 
REMARK    4  A    between atoms: C_11  and  C_12 
REMARK    5  A    between atoms: C_12  and  C_16 
REMARK    6  A    between atoms: C_14  and  C_15 
ROOT
HETATM    1  N   UNK N   1      35.149  15.265   9.327  0.00  0.00     0.089 N 
HETATM    2  C   UNK N   1      33.045  16.209   8.105  0.00  0.00     0.100 C 
HETATM    3  C   UNK N   1      33.747  17.270   8.987  0.00  0.00     0.033 C 
HETATM    4  C   UNK N   1      32.709  14.973   8.943  0.00  0.00     0.056 C 
HETATM    5  C   UNK N   1      34.814  16.588   9.869  0.00  0.00     0.278 C 
HETATM    6  C   UNK N   1      34.008  14.349   9.475  0.00  0.00     0.274 C 
HETATM    7  C   UNK N   1      34.433  18.315   8.128  0.00  0.00     0.014 C 
ENDROOT
BRANCH   2   8
HETATM    8  N   UNK N   1      31.955  16.567   7.182  0.00  0.00    -0.313 N 
HETATM    9  C   UNK N   1      30.743  17.066   7.642  0.00  0.00     0.224 C 
HETATM   10  O   UNK N   1      30.534  17.159   8.845  0.00  0.00    -0.273 OA
BRANCH   8  11
HETATM   11  C   UNK N   1      32.238  16.364   5.768  0.00  0.00     0.037 A 
HETATM   12  C   UNK N   1      32.656  17.401   4.915  0.00  0.00     0.030 A 
HETATM   13  C   UNK N   1      32.866  17.176   3.551  0.00  0.00     0.002 A 
HETATM   14  C   UNK N   1      32.659  15.907   3.010  0.00  0.00     0.000 A 
HETATM   15  C   UNK N   1      32.247  14.862   3.832  0.00  0.00     0.002 A 
HETATM   16  C   UNK N   1      32.037  15.088   5.193  0.00  0.00     0.030 A 
ENDBRANCH   8  11
BRANCH   9  17
HETATM   17  C   UNK N   1      29.650  17.528   6.704  0.00  0.00     0.099 C 
HETATM   18  C   UNK N   1      28.664  16.435   6.320  0.00  0.00     0.014 C 
ENDBRANCH   9  17
ENDBRANCH   2   8
BRANCH   1  19
HETATM   19  C   UNK N   1      36.366  14.714   9.920  0.00  0.00     0.277 C 
BRANCH  19  20
HETATM   20  C   UNK N   1      36.184  13.312  10.491  0.00  0.00     0.076 C 
BRANCH  20  21
HETATM   21  C   UNK N   1      36.374  13.348  11.964  0.00  0.00    -0.016 A 
HETATM   22  S   UNK N   1      36.950  12.124  12.909  0.00  0.00    -0.106 SA
HETATM   23  C   UNK N   1      36.880  12.854  14.396  0.00  0.00     0.050 A 
HETATM   24  C   UNK N   1      36.377  14.144  14.166  0.00  0.00     0.008 A 
HETATM   25  C   UNK N   1      36.094  14.424  12.798  0.00  0.00     0.015 A 
ENDBRANCH  20  21
ENDBRANCH  19  20
ENDBRANCH   1  19
TORSDOF 6
ENDMDL
MODEL 4
REMARK VINA RESULT:      -6.3      2.573      4.713
REMARK  6 active torsions:
REMARK  status: ('A' for Active; 'I' for Inactive)
REMARK    1  A    between atoms: N_3  and  C_11 
REMARK    2  A    between atoms: N_4  and  C_5 
REMARK    3  A    between atoms: N_4  and  C_13 
REMARK       I    between atoms: N_4  and  C_14 
REMARK    4  A    between atoms: C_11  and  C_12 
REMARK    5  A    between atoms: C_12  and  C_16 
REMARK    6  A    between atoms: C_14  and  C_15 
ROOT
HETATM    1  N   UNK N   1      33.245  16.522   7.396  0.00  0.00     0.089 N 
HETATM    2  C   UNK N   1      30.862  16.929   6.413  0.00  0.00     0.100 C 
HETATM    3  C   UNK N   1      31.985  17.471   5.496  0.00  0.00     0.033 C 
HETATM    4  C   UNK N   1      31.005  17.517   7.819  0.00  0.00     0.056 C 
HETATM    5  C   UNK N   1      33.332  17.431   6.247  0.00  0.00     0.278 C 
HETATM    6  C   UNK N   1      32.349  17.080   8.421  0.00  0.00     0.274 C 
HETATM    7  C   UNK N   1      32.110  16.629   4.241  0.00  0.00     0.014 C 
ENDROOT
BRANCH   2   8
HETATM    8  N   UNK N   1      29.458  16.878   5.972  0.00  0.00    -0.313 N 
HETATM    9  C   UNK N   1      28.843  15.679   5.632  0.00  0.00     0.224 C 
HETATM   10  O   UNK N   1      29.487  14.637   5.632  0.00  0.00    -0.273 OA
BRANCH   8  11
HETATM   11  C   UNK N   1      28.769  18.160   5.922  0.00  0.00     0.037 A 
HETATM   12  C   UNK N   1      28.190  18.761   7.053  0.00  0.00     0.030 A 
HETATM   13  C   UNK N   1      27.490  19.968   6.953  0.00  0.00     0.002 A 
HETATM   14  C   UNK N   1      27.351  20.596   5.716  0.00  0.00     0.000 A 
HETATM   15  C   UNK N   1      27.916  20.023   4.579  0.00  0.00     0.002 A 
HETATM   16  C   UNK N   1      28.613  18.819   4.681  0.00  0.00     0.030 A 
ENDBRANCH   8  11
BRANCH   9  17
HETATM   17  C   UNK N   1      27.377  15.596   5.270  0.00  0.00     0.099 C 
HETATM   18  C   UNK N   1      26.458  15.394   6.465  0.00  0.00     0.014 C 
ENDBRANCH   9  17
ENDBRANCH   2   8
BRANCH   1  19
HETATM   19  C   UNK N   1      34.559  16.195   7.947  0.00  0.00     0.277 C 
BRANCH  19  20
HETATM   20  C   UNK N   1      34.819  16.819   9.313  0.00  0.00     0.076 C 
BRANCH  20  21
HETATM   21  C   UNK N   1      35.455  15.816  10.205  0.00  0.00    -0.016 A 
HETATM   22  S   UNK N   1      36.338  14.504   9.734  0.00  0.00    -0.106 SA
HETATM   23  C   UNK N   1      36.707  13.862  11.217  0.00  0.00     0.050 A 
HETATM   24  C   UNK N   1      36.112  14.712  12.163  0.00  0.00     0.008 A 
HETATM   25  C   UNK N   1      35.410  15.813  11.594  0.00  0.00     0.015 A 
ENDBRANCH  20  21
ENDBRANCH  19  20
ENDBRANCH   1  19
TORSDOF 6
ENDMDL
MODEL 5
REMARK VINA RESULT:      -6.2     11.441     13.720
REMARK  6 active torsions:
REMARK  status: ('A' for Active; 'I' for Inactive)
REMARK    1  A    between atoms: N_3  and  C_11 
REMARK    2  A    between atoms: N_4  and  C_5 
REMARK    3  A    between atoms: N_4  and  C_13 
REMARK       I    between atoms: N_4  and  C_14 
REMARK    4  A    between atoms: C_11  and  C_12 
REMARK    5  A    between atoms: C_12  and  C_16 
REMARK    6  A    between atoms: C_14  and  C_15 
ROOT
HETATM    1  N   UNK N   1      21.251  15.060   6.815  0.00  0.00     0.089 N 
HETATM    2  C   UNK N   1      21.173  15.100   4.207  0.00  0.00     0.100 C 
HETATM    3  C   UNK N   1      20.486  13.848   4.804  0.00  0.00     0.033 C 
HETATM    4  C   UNK N   1      22.606  15.211   4.735  0.00  0.00     0.056 C 
HETATM    5  C   UNK N   1      20.791  13.759   6.314  0.00  0.00     0.278 C 
HETATM    6  C   UNK N   1      22.575  15.381   6.261  0.00  0.00     0.274 C 
HETATM    7  C   UNK N   1      18.981  13.921   4.622  0.00  0.00     0.014 C 
ENDROOT
BRANCH   2   8
HETATM    8  N   UNK N   1      21.082  15.425   2.773  0.00  0.00    -0.313 N 
HETATM    9  C   UNK N   1      20.372  16.529   2.319  0.00  0.00     0.224 C 
HETATM   10  O   UNK N   1      19.748  17.225   3.110  0.00  0.00    -0.273 OA
BRANCH   8  11
HETATM   11  C   UNK N   1      21.785  14.516   1.878  0.00  0.00     0.037 A 
HETATM   12  C   UNK N   1      23.096  14.748   1.428  0.00  0.00     0.030 A 
HETATM   13  C   UNK N   1      23.717  13.879   0.525  0.00  0.00     0.002 A 
HETATM   14  C   UNK N   1      23.035  12.759   0.051  0.00  0.00     0.000 A 
HETATM   15  C   UNK N   1      21.736  12.504   0.481  0.00  0.00     0.002 A 
HETATM   16  C   UNK N   1      21.118  13.373   1.382  0.00  0.00     0.030 A 
ENDBRANCH   8  11
BRANCH   9  17
HETATM   17  C   UNK N   1      20.348  16.931   0.861  0.00  0.00     0.099 C 
HETATM   18  C   UNK N   1      19.196  16.326   0.074  0.00  0.00     0.014 C 
ENDBRANCH   9  17
ENDBRANCH   2   8
BRANCH   1  19
HETATM   19  C   UNK N   1      21.244  15.126   8.276  0.00  0.00     0.277 C 
BRANCH  19  20
HETATM   20  C   UNK N   1      20.678  13.875   8.938  0.00  0.00     0.076 C 
BRANCH  20  21
HETATM   21  C   UNK N   1      21.739  13.213   9.740  0.00  0.00    -0.016 A 
HETATM   22  S   UNK N   1      23.351  13.174   9.391  0.00  0.00    -0.106 SA
HETATM   23  C   UNK N   1      23.899  12.284  10.678  0.00  0.00     0.050 A 
HETATM   24  C   UNK N   1      22.765  11.986  11.450  0.00  0.00     0.008 A 
HETATM   25  C   UNK N   1      21.549  12.510  10.924  0.00  0.00     0.015 A 
ENDBRANCH  20  21
ENDBRANCH  19  20
ENDBRANCH   1  19
TORSDOF 6
ENDMDL
MODEL 6
REMARK VINA RESULT:      -6.2      2.033      2.935
REMARK  6 active torsions:
REMARK  status: ('A' for Active; 'I' for Inactive)
REMARK    1  A    between atoms: N_3  and  C_11 
REMARK    2  A    between atoms: N_4  and  C_5 
REMARK    3  A    between atoms: N_4  and  C_13 
REMARK       I    between atoms: N_4  and  C_14 
REMARK    4  A    between atoms: C_11  and  C_12 
REMARK    5  A    between atoms: C_12  and  C_16 
REMARK    6  A    between atoms: C_14  and  C_15 
ROOT
HETATM    1  N   UNK N   1      35.777  12.738  11.937  0.00  0.00     0.089 N 
HETATM    2  C   UNK N   1      35.102  14.114   9.826  0.00  0.00     0.100 C 
HETATM    3  C   UNK N   1      34.910  14.908  11.140  0.00  0.00     0.033 C 
HETATM    4  C   UNK N   1      34.347  12.785   9.903  0.00  0.00     0.056 C 
HETATM    5  C   UNK N   1      35.078  13.962  12.347  0.00  0.00     0.278 C 
HETATM    6  C   UNK N   1      34.923  11.937  11.047  0.00  0.00     0.274 C 
HETATM    7  C   UNK N   1      35.938  16.018  11.255  0.00  0.00     0.014 C 
ENDROOT
BRANCH   2   8
HETATM    8  N   UNK N   1      34.967  14.754   8.506  0.00  0.00    -0.313 N 
HETATM    9  C   UNK N   1      35.800  14.422   7.445  0.00  0.00     0.224 C 
HETATM   10  O   UNK N   1      36.716  13.626   7.610  0.00  0.00    -0.273 OA
BRANCH   8  11
HETATM   11  C   UNK N   1      33.907  15.747   8.396  0.00  0.00     0.037 A 
HETATM   12  C   UNK N   1      32.546  15.406   8.308  0.00  0.00     0.030 A 
HETATM   13  C   UNK N   1      31.562  16.387   8.149  0.00  0.00     0.002 A 
HETATM   14  C   UNK N   1      31.921  17.732   8.071  0.00  0.00     0.000 A 
HETATM   15  C   UNK N   1      33.262  18.098   8.157  0.00  0.00     0.002 A 
HETATM   16  C   UNK N   1      34.242  17.118   8.315  0.00  0.00     0.030 A 
ENDBRANCH   8  11
BRANCH   9  17
HETATM   17  C   UNK N   1      35.614  14.999   6.060  0.00  0.00     0.099 C 
HETATM   18  C   UNK N   1      34.702  14.172   5.166  0.00  0.00     0.014 C 
ENDBRANCH   9  17
ENDBRANCH   2   8
BRANCH   1  19
HETATM   19  C   UNK N   1      36.248  11.958  13.081  0.00  0.00     0.277 C 
BRANCH  19  20
HETATM   20  C   UNK N   1      36.860  12.810  14.187  0.00  0.00     0.076 C 
BRANCH  20  21
HETATM   21  C   UNK N   1      36.278  12.419  15.496  0.00  0.00    -0.016 A 
HETATM   22  S   UNK N   1      36.312  10.915  16.175  0.00  0.00    -0.106 SA
HETATM   23  C   UNK N   1      35.489  11.219  17.582  0.00  0.00     0.050 A 
HETATM   24  C   UNK N   1      35.154  12.582  17.544  0.00  0.00     0.008 A 
HETATM   25  C   UNK N   1      35.599  13.258  16.372  0.00  0.00     0.015 A 
ENDBRANCH  20  21
ENDBRANCH  19  20
ENDBRANCH   1  19
TORSDOF 6
ENDMDL
MODEL 7
REMARK VINA RESULT:      -6.1      6.454     11.586
REMARK  6 active torsions:
REMARK  status: ('A' for Active; 'I' for Inactive)
REMARK    1  A    between atoms: N_3  and  C_11 
REMARK    2  A    between atoms: N_4  and  C_5 
REMARK    3  A    between atoms: N_4  and  C_13 
REMARK       I    between atoms: N_4  and  C_14 
REMARK    4  A    between atoms: C_11  and  C_12 
REMARK    5  A    between atoms: C_12  and  C_16 
REMARK    6  A    between atoms: C_14  and  C_15 
ROOT
HETATM    1  N   UNK N   1      25.519  17.606   4.900  0.00  0.00     0.089 N 
HETATM    2  C   UNK N   1      28.054  17.224   5.389  0.00  0.00     0.100 C 
HETATM    3  C   UNK N   1      27.815  18.234   4.240  0.00  0.00     0.033 C 
HETATM    4  C   UNK N   1      27.328  15.910   5.090  0.00  0.00     0.056 C 
HETATM    5  C   UNK N   1      26.325  18.216   3.836  0.00  0.00     0.278 C 
HETATM    6  C   UNK N   1      25.817  16.170   5.006  0.00  0.00     0.274 C 
HETATM    7  C   UNK N   1      28.177  19.641   4.675  0.00  0.00     0.014 C 
ENDROOT
BRANCH   2   8
HETATM    8  N   UNK N   1      29.394  17.002   5.959  0.00  0.00    -0.313 N 
HETATM    9  C   UNK N   1      29.625  17.073   7.327  0.00  0.00     0.224 C 
HETATM   10  O   UNK N   1      28.718  17.388   8.087  0.00  0.00    -0.273 OA
BRANCH   8  11
HETATM   11  C   UNK N   1      30.444  16.705   4.996  0.00  0.00     0.037 A 
HETATM   12  C   UNK N   1      31.347  17.674   4.526  0.00  0.00     0.030 A 
HETATM   13  C   UNK N   1      32.308  17.361   3.559  0.00  0.00     0.002 A 
HETATM   14  C   UNK N   1      32.383  16.069   3.040  0.00  0.00     0.000 A 
HETATM   15  C   UNK N   1      31.503  15.088   3.489  0.00  0.00     0.002 A 
HETATM   16  C   UNK N   1      30.544  15.403   4.453  0.00  0.00     0.030 A 
ENDBRANCH   8  11
BRANCH   9  17
HETATM   17  C   UNK N   1      30.971  16.754   7.937  0.00  0.00     0.099 C 
HETATM   18  C   UNK N   1      31.711  17.971   8.469  0.00  0.00     0.014 C 
ENDBRANCH   9  17
ENDBRANCH   2   8
BRANCH   1  19
HETATM   19  C   UNK N   1      24.088  17.851   4.723  0.00  0.00     0.277 C 
BRANCH  19  20
HETATM   20  C   UNK N   1      23.783  19.083   3.877  0.00  0.00     0.076 C 
BRANCH  20  21
HETATM   21  C   UNK N   1      22.349  19.076   3.490  0.00  0.00    -0.016 A 
HETATM   22  S   UNK N   1      21.325  17.783   3.540  0.00  0.00    -0.106 SA
HETATM   23  C   UNK N   1      19.939  18.496   2.974  0.00  0.00     0.050 A 
HETATM   24  C   UNK N   1      20.272  19.836   2.722  0.00  0.00     0.008 A 
HETATM   25  C   UNK N   1      21.627  20.164   3.014  0.00  0.00     0.015 A 
ENDBRANCH  20  21
ENDBRANCH  19  20
ENDBRANCH   1  19
TORSDOF 6
ENDMDL
MODEL 8
REMARK VINA RESULT:      -6.1     10.566     13.847
REMARK  6 active torsions:
REMARK  status: ('A' for Active; 'I' for Inactive)
REMARK    1  A    between atoms: N_3  and  C_11 
REMARK    2  A    between atoms: N_4  and  C_5 
REMARK    3  A    between atoms: N_4  and  C_13 
REMARK       I    between atoms: N_4  and  C_14 
REMARK    4  A    between atoms: C_11  and  C_12 
REMARK    5  A    between atoms: C_12  and  C_16 
REMARK    6  A    between atoms: C_14  and  C_15 
ROOT
HETATM    1  N   UNK N   1      23.475  15.906   5.396  0.00  0.00     0.089 N 
HETATM    2  C   UNK N   1      23.252  13.753   6.853  0.00  0.00     0.100 C 
HETATM    3  C   UNK N   1      22.104  14.762   7.102  0.00  0.00     0.033 C 
HETATM    4  C   UNK N   1      24.605  14.440   7.058  0.00  0.00     0.056 C 
HETATM    5  C   UNK N   1      22.433  16.102   6.411  0.00  0.00     0.278 C 
HETATM    6  C   UNK N   1      24.757  15.579   6.038  0.00  0.00     0.274 C 
HETATM    7  C   UNK N   1      20.797  14.240   6.537  0.00  0.00     0.014 C 
ENDROOT
BRANCH   2   8
HETATM    8  N   UNK N   1      23.228  12.395   7.422  0.00  0.00    -0.313 N 
HETATM    9  C   UNK N   1      23.207  11.266   6.613  0.00  0.00     0.224 C 
HETATM   10  O   UNK N   1      23.144  11.384   5.396  0.00  0.00    -0.273 OA
BRANCH   8  11
HETATM   11  C   UNK N   1      23.228  12.324   8.876  0.00  0.00     0.037 A 
HETATM   12  C   UNK N   1      24.405  12.196   9.635  0.00  0.00     0.030 A 
HETATM   13  C   UNK N   1      24.360  12.076  11.027  0.00  0.00     0.002 A 
HETATM   14  C   UNK N   1      23.133  12.078  11.691  0.00  0.00     0.000 A 
HETATM   15  C   UNK N   1      21.952  12.204  10.964  0.00  0.00     0.002 A 
HETATM   16  C   UNK N   1      21.999  12.323   9.575  0.00  0.00     0.030 A 
ENDBRANCH   8  11
BRANCH   9  17
HETATM   17  C   UNK N   1      23.278   9.865   7.178  0.00  0.00     0.099 C 
HETATM   18  C   UNK N   1      24.382   9.012   6.573  0.00  0.00     0.014 C 
ENDBRANCH   9  17
ENDBRANCH   2   8
BRANCH   1  19
HETATM   19  C   UNK N   1      23.597  17.053   4.497  0.00  0.00     0.277 C 
BRANCH  19  20
HETATM   20  C   UNK N   1      22.738  18.243   4.910  0.00  0.00     0.076 C 
BRANCH  20  21
HETATM   21  C   UNK N   1      21.839  18.620   3.790  0.00  0.00    -0.016 A 
HETATM   22  S   UNK N   1      21.896  20.016   2.912  0.00  0.00    -0.106 SA
HETATM   23  C   UNK N   1      20.628  19.754   1.876  0.00  0.00     0.050 A 
HETATM   24  C   UNK N   1      20.108  18.496   2.217  0.00  0.00     0.008 A 
HETATM   25  C   UNK N   1      20.789  17.856   3.292  0.00  0.00     0.015 A 
ENDBRANCH  20  21
ENDBRANCH  19  20
ENDBRANCH   1  19
TORSDOF 6
ENDMDL
MODEL 9
REMARK VINA RESULT:      -6.1      6.073     11.182
REMARK  6 active torsions:
REMARK  status: ('A' for Active; 'I' for Inactive)
REMARK    1  A    between atoms: N_3  and  C_11 
REMARK    2  A    between atoms: N_4  and  C_5 
REMARK    3  A    between atoms: N_4  and  C_13 
REMARK       I    between atoms: N_4  and  C_14 
REMARK    4  A    between atoms: C_11  and  C_12 
REMARK    5  A    between atoms: C_12  and  C_16 
REMARK    6  A    between atoms: C_14  and  C_15 
ROOT
HETATM    1  N   UNK N   1      26.619  18.149   4.125  0.00  0.00     0.089 N 
HETATM    2  C   UNK N   1      28.730  17.538   5.532  0.00  0.00     0.100 C 
HETATM    3  C   UNK N   1      27.449  16.839   6.047  0.00  0.00     0.033 C 
HETATM    4  C   UNK N   1      28.509  19.051   5.466  0.00  0.00     0.056 C 
HETATM    5  C   UNK N   1      26.213  17.436   5.342  0.00  0.00     0.278 C 
HETATM    6  C   UNK N   1      27.379  19.358   4.471  0.00  0.00     0.274 C 
HETATM    7  C   UNK N   1      27.493  15.350   5.756  0.00  0.00     0.014 C 
ENDROOT
BRANCH   2   8
HETATM    8  N   UNK N   1      30.064  17.193   6.052  0.00  0.00    -0.313 N 
HETATM    9  C   UNK N   1      30.369  17.298   7.404  0.00  0.00     0.224 C 
HETATM   10  O   UNK N   1      29.540  17.745   8.187  0.00  0.00    -0.273 OA
BRANCH   8  11
HETATM   11  C   UNK N   1      31.027  16.739   5.059  0.00  0.00     0.037 A 
HETATM   12  C   UNK N   1      31.905  17.611   4.391  0.00  0.00     0.030 A 
HETATM   13  C   UNK N   1      32.778  17.143   3.404  0.00  0.00     0.002 A 
HETATM   14  C   UNK N   1      32.789  15.791   3.063  0.00  0.00     0.000 A 
HETATM   15  C   UNK N   1      31.931  14.905   3.710  0.00  0.00     0.002 A 
HETATM   16  C   UNK N   1      31.060  15.374   4.694  0.00  0.00     0.030 A 
ENDBRANCH   8  11
BRANCH   9  17
HETATM   17  C   UNK N   1      31.701  16.858   7.969  0.00  0.00     0.099 C 
HETATM   18  C   UNK N   1      32.661  18.004   8.247  0.00  0.00     0.014 C 
ENDBRANCH   9  17
ENDBRANCH   2   8
BRANCH   1  19
HETATM   19  C   UNK N   1      25.484  18.453   3.254  0.00  0.00     0.277 C 
BRANCH  19  20
HETATM   20  C   UNK N   1      24.828  19.796   3.558  0.00  0.00     0.076 C 
BRANCH  20  21
HETATM   21  C   UNK N   1      23.351  19.646   3.524  0.00  0.00    -0.016 A 
HETATM   22  S   UNK N   1      22.458  18.529   4.348  0.00  0.00    -0.106 SA
HETATM   23  C   UNK N   1      20.938  18.944   3.834  0.00  0.00     0.050 A 
HETATM   24  C   UNK N   1      21.111  20.028   2.958  0.00  0.00     0.008 A 
HETATM   25  C   UNK N   1      22.468  20.424   2.785  0.00  0.00     0.015 A 
ENDBRANCH  20  21
ENDBRANCH  19  20
ENDBRANCH   1  19
TORSDOF 6
ENDMDL
