MODEL 1
REMARK VINA RESULT:      -4.1      0.000      0.000
REMARK  4 active torsions:
REMARK  status: ('A' for Active; 'I' for Inactive)
REMARK    1  A    between atoms: O_1  and  C_6 
REMARK    2  A    between atoms: C_4  and  C_5 
REMARK    3  A    between atoms: C_4  and  C_6 
REMARK    4  A    between atoms: C_5  and  C_7 
ROOT
HETATM    1  C   UNK N   1      35.053  16.179   9.391  0.00  0.00     0.036 C 
ENDROOT
BRANCH   1   2
HETATM    2  C   UNK N   1      34.059  17.290   9.085  0.00  0.00     0.115 C 
BRANCH   2   3
HETATM    3  C   UNK N   1      34.618  18.279   8.103  0.00  0.00     0.172 C 
HETATM    4  O   UNK N   1      35.362  19.308   8.547  0.00  0.00    -0.648 OA
HETATM    5  O   UNK N   1      34.407  18.161   6.904  0.00  0.00    -0.648 OA
ENDBRANCH   2   3
ENDBRANCH   1   2
BRANCH   1   6
HETATM    6  C   UNK N   1      35.501  16.242  10.834  0.00  0.00     0.164 C 
BRANCH   6   7
HETATM    7  O   UNK N   1      36.888  16.107  10.880  0.00  0.00    -0.401 OA
HETATM    8  H   UNK N   1      37.408  16.151  10.062  0.00  0.00     0.209 HD
ENDBRANCH   6   7
ENDBRANCH   1   6
TORSDOF 4
ENDMDL
MODEL 2
REMARK VINA RESULT:      -3.9     13.075     13.625
REMARK  4 active torsions:
REMARK  status: ('A' for Active; 'I' for Inactive)
REMARK    1  A    between atoms: O_1  and  C_6 
REMARK    2  A    between atoms: C_4  and  C_5 
REMARK    3  A    between atoms: C_4  and  C_6 
REMARK    4  A    between atoms: C_5  and  C_7 
ROOT
HETATM    1  C   UNK N   1      30.713  21.282  -3.503  0.00  0.00     0.036 C 
ENDROOT
BRANCH   1   2
HETATM    2  C   UNK N   1      29.946  22.595  -3.472  0.00  0.00     0.115 C 
BRANCH   2   3
HETATM    3  C   UNK N   1      29.489  22.936  -2.083  0.00  0.00     0.172 C 
HETATM    4  O   UNK N   1      28.175  23.051  -1.825  0.00  0.00    -0.648 OA
HETATM    5  O   UNK N   1      30.298  23.113  -1.182  0.00  0.00    -0.648 OA
ENDBRANCH   2   3
ENDBRANCH   1   2
BRANCH   1   6
HETATM    6  C   UNK N   1      32.201  21.526  -3.385  0.00  0.00     0.164 C 
BRANCH   6   7
HETATM    7  O   UNK N   1      32.596  21.265  -2.073  0.00  0.00    -0.401 OA
HETATM    8  H   UNK N   1      31.981  20.839  -1.457  0.00  0.00     0.209 HD
ENDBRANCH   6   7
ENDBRANCH   1   6
TORSDOF 4
ENDMDL
MODEL 3
REMARK VINA RESULT:      -3.7      2.374      3.544
REMARK  4 active torsions:
REMARK  status: ('A' for Active; 'I' for Inactive)
REMARK    1  A    between atoms: O_1  and  C_6 
REMARK    2  A    between atoms: C_4  and  C_5 
REMARK    3  A    between atoms: C_4  and  C_6 
REMARK    4  A    between atoms: C_5  and  C_7 
ROOT
HETATM    1  C   UNK N   1      32.049  17.381   7.629  0.00  0.00     0.036 C 
ENDROOT
BRANCH   1   2
HETATM    2  C   UNK N   1      33.169  17.771   8.582  0.00  0.00     0.115 C 
BRANCH   2   3
HETATM    3  C   UNK N   1      34.371  18.284   7.843  0.00  0.00     0.172 C 
HETATM    4  O   UNK N   1      35.231  19.109   8.466  0.00  0.00    -0.648 OA
HETATM    5  O   UNK N   1      34.579  17.963   6.681  0.00  0.00    -0.648 OA
ENDBRANCH   2   3
ENDBRANCH   1   2
BRANCH   1   6
HETATM    6  C   UNK N   1      30.762  17.139   8.384  0.00  0.00     0.164 C 
BRANCH   6   7
HETATM    7  O   UNK N   1      30.722  17.986   9.491  0.00  0.00    -0.401 OA
HETATM    8  H   UNK N   1      31.377  18.696   9.582  0.00  0.00     0.209 HD
ENDBRANCH   6   7
ENDBRANCH   1   6
TORSDOF 4
ENDMDL
MODEL 4
REMARK VINA RESULT:      -3.7     13.532     13.952
REMARK  4 active torsions:
REMARK  status: ('A' for Active; 'I' for Inactive)
REMARK    1  A    between atoms: O_1  and  C_6 
REMARK    2  A    between atoms: C_4  and  C_5 
REMARK    3  A    between atoms: C_4  and  C_6 
REMARK    4  A    between atoms: C_5  and  C_7 
ROOT
HETATM    1  C   UNK N   1      23.473  12.011  11.460  0.00  0.00     0.036 C 
ENDROOT
BRANCH   1   2
HETATM    2  C   UNK N   1      22.378  11.732  10.442  0.00  0.00     0.115 C 
BRANCH   2   3
HETATM    3  C   UNK N   1      21.414  12.878  10.337  0.00  0.00     0.172 C 
HETATM    4  O   UNK N   1      21.838  14.061   9.859  0.00  0.00    -0.648 OA
HETATM    5  O   UNK N   1      20.247  12.751  10.682  0.00  0.00    -0.648 OA
ENDBRANCH   2   3
ENDBRANCH   1   2
BRANCH   1   6
HETATM    6  C   UNK N   1      22.952  11.839  12.869  0.00  0.00     0.164 C 
BRANCH   6   7
HETATM    7  O   UNK N   1      23.839  12.451  13.754  0.00  0.00    -0.401 OA
HETATM    8  H   UNK N   1      24.326  11.917  14.400  0.00  0.00     0.209 HD
ENDBRANCH   6   7
ENDBRANCH   1   6
TORSDOF 4
ENDMDL
MODEL 5
REMARK VINA RESULT:      -3.6      2.131      2.329
REMARK  4 active torsions:
REMARK  status: ('A' for Active; 'I' for Inactive)
REMARK    1  A    between atoms: O_1  and  C_6 
REMARK    2  A    between atoms: C_4  and  C_5 
REMARK    3  A    between atoms: C_4  and  C_6 
REMARK    4  A    between atoms: C_5  and  C_7 
ROOT
HETATM    1  C   UNK N   1      32.960  16.142   8.276  0.00  0.00     0.036 C 
ENDROOT
BRANCH   1   2
HETATM    2  C   UNK N   1      33.146  17.617   8.600  0.00  0.00     0.115 C 
BRANCH   2   3
HETATM    3  C   UNK N   1      34.289  18.213   7.831  0.00  0.00     0.172 C 
HETATM    4  O   UNK N   1      35.070  19.141   8.413  0.00  0.00    -0.648 OA
HETATM    5  O   UNK N   1      34.521  17.867   6.681  0.00  0.00    -0.648 OA
ENDBRANCH   2   3
ENDBRANCH   1   2
BRANCH   1   6
HETATM    6  C   UNK N   1      33.332  15.281   9.462  0.00  0.00     0.164 C 
BRANCH   6   7
HETATM    7  O   UNK N   1      32.211  15.132  10.278  0.00  0.00    -0.401 OA
HETATM    8  H   UNK N   1      31.679  14.322  10.229  0.00  0.00     0.209 HD
ENDBRANCH   6   7
ENDBRANCH   1   6
TORSDOF 4
ENDMDL
MODEL 6
REMARK VINA RESULT:      -3.6     13.461     14.000
REMARK  4 active torsions:
REMARK  status: ('A' for Active; 'I' for Inactive)
REMARK    1  A    between atoms: O_1  and  C_6 
REMARK    2  A    between atoms: C_4  and  C_5 
REMARK    3  A    between atoms: C_4  and  C_6 
REMARK    4  A    between atoms: C_5  and  C_7 
ROOT
HETATM    1  C   UNK N   1      22.986  12.049  10.701  0.00  0.00     0.036 C 
ENDROOT
BRANCH   1   2
HETATM    2  C   UNK N   1      22.138  13.181  10.141  0.00  0.00     0.115 C 
BRANCH   2   3
HETATM    3  C   UNK N   1      20.689  13.019  10.502  0.00  0.00     0.172 C 
HETATM    4  O   UNK N   1      19.752  13.682   9.801  0.00  0.00    -0.648 OA
HETATM    5  O   UNK N   1      20.349  12.291  11.424  0.00  0.00    -0.648 OA
ENDBRANCH   2   3
ENDBRANCH   1   2
BRANCH   1   6
HETATM    6  C   UNK N   1      24.454  12.300  10.444  0.00  0.00     0.164 C 
BRANCH   6   7
HETATM    7  O   UNK N   1      25.108  12.438  11.668  0.00  0.00    -0.401 OA
HETATM    8  H   UNK N   1      25.113  13.296  12.121  0.00  0.00     0.209 HD
ENDBRANCH   6   7
ENDBRANCH   1   6
TORSDOF 4
ENDMDL
MODEL 7
REMARK VINA RESULT:      -3.5      7.473      9.212
REMARK  4 active torsions:
REMARK  status: ('A' for Active; 'I' for Inactive)
REMARK    1  A    between atoms: O_1  and  C_6 
REMARK    2  A    between atoms: C_4  and  C_5 
REMARK    3  A    between atoms: C_4  and  C_6 
REMARK    4  A    between atoms: C_5  and  C_7 
ROOT
HETATM    1  C   UNK N   1      36.010  12.798  16.138  0.00  0.00     0.036 C 
ENDROOT
BRANCH   1   2
HETATM    2  C   UNK N   1      34.859  13.380  16.945  0.00  0.00     0.115 C 
BRANCH   2   3
HETATM    3  C   UNK N   1      35.338  13.993  18.229  0.00  0.00     0.172 C 
HETATM    4  O   UNK N   1      36.010  15.157  18.200  0.00  0.00    -0.648 OA
HETATM    5  O   UNK N   1      35.125  13.447  19.303  0.00  0.00    -0.648 OA
ENDBRANCH   2   3
ENDBRANCH   1   2
BRANCH   1   6
HETATM    6  C   UNK N   1      36.458  13.766  15.067  0.00  0.00     0.164 C 
BRANCH   6   7
HETATM    7  O   UNK N   1      37.551  14.490  15.543  0.00  0.00    -0.401 OA
HETATM    8  H   UNK N   1      37.688  15.406  15.256  0.00  0.00     0.209 HD
ENDBRANCH   6   7
ENDBRANCH   1   6
TORSDOF 4
ENDMDL
MODEL 8
REMARK VINA RESULT:      -3.5     15.431     16.303
REMARK  4 active torsions:
REMARK  status: ('A' for Active; 'I' for Inactive)
REMARK    1  A    between atoms: O_1  and  C_6 
REMARK    2  A    between atoms: C_4  and  C_5 
REMARK    3  A    between atoms: C_4  and  C_6 
REMARK    4  A    between atoms: C_5  and  C_7 
ROOT
HETATM    1  C   UNK N   1      20.717  18.440   3.124  0.00  0.00     0.036 C 
ENDROOT
BRANCH   1   2
HETATM    2  C   UNK N   1      20.265  19.861   2.822  0.00  0.00     0.115 C 
BRANCH   2   3
HETATM    3  C   UNK N   1      21.326  20.636   2.095  0.00  0.00     0.172 C 
HETATM    4  O   UNK N   1      21.370  20.602   0.751  0.00  0.00    -0.648 OA
HETATM    5  O   UNK N   1      22.151  21.299   2.708  0.00  0.00    -0.648 OA
ENDBRANCH   2   3
ENDBRANCH   1   2
BRANCH   1   6
HETATM    6  C   UNK N   1      20.269  17.491   2.035  0.00  0.00     0.164 C 
BRANCH   6   7
HETATM    7  O   UNK N   1      19.011  17.887   1.583  0.00  0.00    -0.401 OA
HETATM    8  H   UNK N   1      18.221  17.395   1.856  0.00  0.00     0.209 HD
ENDBRANCH   6   7
ENDBRANCH   1   6
TORSDOF 4
ENDMDL
MODEL 9
REMARK VINA RESULT:      -3.3     10.961     11.713
REMARK  4 active torsions:
REMARK  status: ('A' for Active; 'I' for Inactive)
REMARK    1  A    between atoms: O_1  and  C_6 
REMARK    2  A    between atoms: C_4  and  C_5 
REMARK    3  A    between atoms: C_4  and  C_6 
REMARK    4  A    between atoms: C_5  and  C_7 
ROOT
HETATM    1  C   UNK N   1      42.583  22.379   1.788  0.00  0.00     0.036 C 
ENDROOT
BRANCH   1   2
HETATM    2  C   UNK N   1      42.902  21.805   3.160  0.00  0.00     0.115 C 
BRANCH   2   3
HETATM    3  C   UNK N   1      43.622  22.801   4.023  0.00  0.00     0.172 C 
HETATM    4  O   UNK N   1      43.889  24.028   3.541  0.00  0.00    -0.648 OA
HETATM    5  O   UNK N   1      43.970  22.512   5.159  0.00  0.00    -0.648 OA
ENDBRANCH   2   3
ENDBRANCH   1   2
BRANCH   1   6
HETATM    6  C   UNK N   1      41.153  22.865   1.728  0.00  0.00     0.164 C 
BRANCH   6   7
HETATM    7  O   UNK N   1      41.134  24.238   1.975  0.00  0.00    -0.401 OA
HETATM    8  H   UNK N   1      40.470  24.799   1.545  0.00  0.00     0.209 HD
ENDBRANCH   6   7
ENDBRANCH   1   6
TORSDOF 4
ENDMDL
