MODEL 1
REMARK VINA RESULT:      -5.7      0.000      0.000
REMARK  6 active torsions:
REMARK  status: ('A' for Active; 'I' for Inactive)
REMARK    1  A    between atoms: O_1  and  C_18 
REMARK    2  A    between atoms: N_2  and  C_4 
REMARK    3  A    between atoms: N_2  and  C_5 
REMARK    4  A    between atoms: N_2  and  C_6 
REMARK    5  A    between atoms: C_4  and  C_7 
REMARK    6  A    between atoms: C_7  and  C_8 
ROOT
HETATM    1  N   UNK N   1      25.410  24.525  -5.941  0.00  0.00    -0.365 N 
HETATM    2  C   UNK N   1      26.696  24.325  -4.114  0.00  0.00    -0.029 A 
HETATM    3  C   UNK N   1      26.301  25.632  -4.217  0.00  0.00     0.001 A 
HETATM    4  C   UNK N   1      25.523  25.723  -5.334  0.00  0.00     0.043 A 
HETATM    5  C   UNK N   1      26.129  23.652  -5.191  0.00  0.00     0.096 A 
HETATM    6  C   UNK N   1      26.560  26.737  -3.407  0.00  0.00     0.051 A 
HETATM    7  C   UNK N   1      24.949  26.922  -5.735  0.00  0.00     0.033 A 
HETATM    8  C   UNK N   1      25.990  27.971  -3.769  0.00  0.00     0.069 A 
HETATM    9  C   UNK N   1      25.185  28.058  -4.938  0.00  0.00     0.039 A 
HETATM   10  H   UNK N   1      24.906  24.324  -6.762  0.00  0.00     0.165 HD
ENDROOT
BRANCH   2  11
HETATM   11  C   UNK N   1      27.562  23.729  -3.062  0.00  0.00     0.071 C 
BRANCH  11  12
HETATM   12  C   UNK N   1      28.996  24.212  -3.267  0.00  0.00     0.278 C 
BRANCH  12  13
HETATM   13  N   UNK N   1      29.605  23.733  -4.524  0.00  0.00     0.096 N 
BRANCH  13  14
HETATM   14  C   UNK N   1      30.135  24.874  -5.312  0.00  0.00     0.215 C 
HETATM   15  C   UNK N   1      30.137  26.186  -4.530  0.00  0.00     0.042 C 
HETATM   16  C   UNK N   1      29.295  25.125  -6.552  0.00  0.00     0.042 C 
ENDBRANCH  13  14
BRANCH  13  17
HETATM   17  C   UNK N   1      30.670  22.729  -4.268  0.00  0.00     0.215 C 
HETATM   18  C   UNK N   1      31.053  22.625  -2.794  0.00  0.00     0.042 C 
HETATM   19  C   UNK N   1      30.228  21.338  -4.693  0.00  0.00     0.042 C 
ENDBRANCH  13  17
ENDBRANCH  12  13
ENDBRANCH  11  12
ENDBRANCH   2  11
BRANCH   8  20
HETATM   20  O   UNK N   1      26.214  29.050  -2.982  0.00  0.00    -0.356 OA
HETATM   21  C   UNK N   1      26.510  30.297  -3.481  0.00  0.00     0.210 C 
ENDBRANCH   8  20
TORSDOF 6
ENDMDL
MODEL 2
REMARK VINA RESULT:      -5.7     10.854     13.141
REMARK  6 active torsions:
REMARK  status: ('A' for Active; 'I' for Inactive)
REMARK    1  A    between atoms: O_1  and  C_18 
REMARK    2  A    between atoms: N_2  and  C_4 
REMARK    3  A    between atoms: N_2  and  C_5 
REMARK    4  A    between atoms: N_2  and  C_6 
REMARK    5  A    between atoms: C_4  and  C_7 
REMARK    6  A    between atoms: C_7  and  C_8 
ROOT
HETATM    1  N   UNK N   1      27.968  19.019   8.420  0.00  0.00    -0.365 N 
HETATM    2  C   UNK N   1      28.647  17.614   6.809  0.00  0.00    -0.029 A 
HETATM    3  C   UNK N   1      28.018  18.676   6.214  0.00  0.00     0.001 A 
HETATM    4  C   UNK N   1      27.618  19.509   7.216  0.00  0.00     0.043 A 
HETATM    5  C   UNK N   1      28.609  17.847   8.179  0.00  0.00     0.096 A 
HETATM    6  C   UNK N   1      27.782  18.968   4.871  0.00  0.00     0.051 A 
HETATM    7  C   UNK N   1      26.945  20.697   6.959  0.00  0.00     0.033 A 
HETATM    8  C   UNK N   1      27.113  20.166   4.563  0.00  0.00     0.069 A 
HETATM    9  C   UNK N   1      26.693  21.028   5.614  0.00  0.00     0.039 A 
HETATM   10  H   UNK N   1      27.795  19.428   9.299  0.00  0.00     0.165 HD
ENDROOT
BRANCH   2  11
HETATM   11  C   UNK N   1      29.253  16.436   6.134  0.00  0.00     0.071 C 
BRANCH  11  12
HETATM   12  C   UNK N   1      30.635  16.178   6.732  0.00  0.00     0.278 C 
BRANCH  12  13
HETATM   13  N   UNK N   1      31.592  17.278   6.501  0.00  0.00     0.096 N 
BRANCH  13  14
HETATM   14  C   UNK N   1      32.323  17.601   7.751  0.00  0.00     0.215 C 
HETATM   15  C   UNK N   1      33.775  18.006   7.504  0.00  0.00     0.042 C 
HETATM   16  C   UNK N   1      32.374  16.404   8.685  0.00  0.00     0.042 C 
ENDBRANCH  13  14
BRANCH  13  17
HETATM   17  C   UNK N   1      32.541  16.957   5.404  0.00  0.00     0.215 C 
HETATM   18  C   UNK N   1      32.589  15.467   5.072  0.00  0.00     0.042 C 
HETATM   19  C   UNK N   1      32.156  17.668   4.117  0.00  0.00     0.042 C 
ENDBRANCH  13  17
ENDBRANCH  12  13
ENDBRANCH  11  12
ENDBRANCH   2  11
BRANCH   8  20
HETATM   20  O   UNK N   1      26.895  20.477   3.264  0.00  0.00    -0.356 OA
HETATM   21  C   UNK N   1      25.641  20.517   2.700  0.00  0.00     0.210 C 
ENDBRANCH   8  20
TORSDOF 6
ENDMDL
MODEL 3
REMARK VINA RESULT:      -5.6      0.859      2.286
REMARK  6 active torsions:
REMARK  status: ('A' for Active; 'I' for Inactive)
REMARK    1  A    between atoms: O_1  and  C_18 
REMARK    2  A    between atoms: N_2  and  C_4 
REMARK    3  A    between atoms: N_2  and  C_5 
REMARK    4  A    between atoms: N_2  and  C_6 
REMARK    5  A    between atoms: C_4  and  C_7 
REMARK    6  A    between atoms: C_7  and  C_8 
ROOT
HETATM    1  N   UNK N   1      25.341  24.603  -5.885  0.00  0.00    -0.365 N 
HETATM    2  C   UNK N   1      26.802  24.429  -4.191  0.00  0.00    -0.029 A 
HETATM    3  C   UNK N   1      26.365  25.726  -4.248  0.00  0.00     0.001 A 
HETATM    4  C   UNK N   1      25.481  25.800  -5.284  0.00  0.00     0.043 A 
HETATM    5  C   UNK N   1      26.152  23.746  -5.213  0.00  0.00     0.096 A 
HETATM    6  C   UNK N   1      26.673  26.834  -3.460  0.00  0.00     0.051 A 
HETATM    7  C   UNK N   1      24.839  26.985  -5.620  0.00  0.00     0.033 A 
HETATM    8  C   UNK N   1      26.038  28.054  -3.757  0.00  0.00     0.069 A 
HETATM    9  C   UNK N   1      25.122  28.124  -4.842  0.00  0.00     0.039 A 
HETATM   10  H   UNK N   1      24.765  24.391  -6.655  0.00  0.00     0.165 HD
ENDROOT
BRANCH   2  11
HETATM   11  C   UNK N   1      27.781  23.853  -3.232  0.00  0.00     0.071 C 
BRANCH  11  12
HETATM   12  C   UNK N   1      29.032  23.425  -3.997  0.00  0.00     0.278 C 
BRANCH  12  13
HETATM   13  N   UNK N   1      30.287  23.924  -3.399  0.00  0.00     0.096 N 
BRANCH  13  14
HETATM   14  C   UNK N   1      31.253  22.811  -3.217  0.00  0.00     0.215 C 
HETATM   15  C   UNK N   1      32.411  22.860  -4.211  0.00  0.00     0.042 C 
HETATM   16  C   UNK N   1      30.583  21.462  -3.419  0.00  0.00     0.042 C 
ENDBRANCH  13  14
BRANCH  13  17
HETATM   17  C   UNK N   1      30.886  25.013  -4.212  0.00  0.00     0.215 C 
HETATM   18  C   UNK N   1      30.146  25.255  -5.526  0.00  0.00     0.042 C 
HETATM   19  C   UNK N   1      30.864  26.335  -3.462  0.00  0.00     0.042 C 
ENDBRANCH  13  17
ENDBRANCH  12  13
ENDBRANCH  11  12
ENDBRANCH   2  11
BRANCH   8  20
HETATM   20  O   UNK N   1      26.308  29.135  -2.988  0.00  0.00    -0.356 OA
HETATM   21  C   UNK N   1      27.565  29.421  -2.506  0.00  0.00     0.210 C 
ENDBRANCH   8  20
TORSDOF 6
ENDMDL
MODEL 4
REMARK VINA RESULT:      -5.6      2.652      4.218
REMARK  6 active torsions:
REMARK  status: ('A' for Active; 'I' for Inactive)
REMARK    1  A    between atoms: O_1  and  C_18 
REMARK    2  A    between atoms: N_2  and  C_4 
REMARK    3  A    between atoms: N_2  and  C_5 
REMARK    4  A    between atoms: N_2  and  C_6 
REMARK    5  A    between atoms: C_4  and  C_7 
REMARK    6  A    between atoms: C_7  and  C_8 
ROOT
HETATM    1  N   UNK N   1      25.989  28.893  -3.511  0.00  0.00    -0.365 N 
HETATM    2  C   UNK N   1      25.767  27.462  -5.224  0.00  0.00    -0.029 A 
HETATM    3  C   UNK N   1      26.741  28.369  -5.548  0.00  0.00     0.001 A 
HETATM    4  C   UNK N   1      26.852  29.223  -4.491  0.00  0.00     0.043 A 
HETATM    5  C   UNK N   1      25.315  27.801  -3.954  0.00  0.00     0.096 A 
HETATM    6  C   UNK N   1      27.537  28.494  -6.685  0.00  0.00     0.051 A 
HETATM    7  C   UNK N   1      27.761  30.273  -4.486  0.00  0.00     0.033 A 
HETATM    8  C   UNK N   1      28.481  29.538  -6.720  0.00  0.00     0.069 A 
HETATM    9  C   UNK N   1      28.586  30.428  -5.616  0.00  0.00     0.039 A 
HETATM   10  H   UNK N   1      25.871  29.350  -2.647  0.00  0.00     0.165 HD
ENDROOT
BRANCH   2  11
HETATM   11  C   UNK N   1      25.279  26.332  -6.059  0.00  0.00     0.071 C 
BRANCH  11  12
HETATM   12  C   UNK N   1      25.772  25.019  -5.454  0.00  0.00     0.278 C 
BRANCH  12  13
HETATM   13  N   UNK N   1      27.184  24.720  -5.765  0.00  0.00     0.096 N 
BRANCH  13  14
HETATM   14  C   UNK N   1      27.945  24.460  -4.517  0.00  0.00     0.215 C 
HETATM   15  C   UNK N   1      27.044  24.280  -3.297  0.00  0.00     0.042 C 
HETATM   16  C   UNK N   1      28.873  25.617  -4.187  0.00  0.00     0.042 C 
ENDBRANCH  13  14
BRANCH  13  17
HETATM   17  C   UNK N   1      27.308  23.578  -6.706  0.00  0.00     0.215 C 
HETATM   18  C   UNK N   1      28.435  22.616  -6.335  0.00  0.00     0.042 C 
HETATM   19  C   UNK N   1      26.034  22.750  -6.738  0.00  0.00     0.042 C 
ENDBRANCH  13  17
ENDBRANCH  12  13
ENDBRANCH  11  12
ENDBRANCH   2  11
BRANCH   8  20
HETATM   20  O   UNK N   1      29.278  29.662  -7.807  0.00  0.00    -0.356 OA
HETATM   21  C   UNK N   1      29.359  28.707  -8.794  0.00  0.00     0.210 C 
ENDBRANCH   8  20
TORSDOF 6
ENDMDL
MODEL 5
REMARK VINA RESULT:      -5.6     10.822     13.077
REMARK  6 active torsions:
REMARK  status: ('A' for Active; 'I' for Inactive)
REMARK    1  A    between atoms: O_1  and  C_18 
REMARK    2  A    between atoms: N_2  and  C_4 
REMARK    3  A    between atoms: N_2  and  C_5 
REMARK    4  A    between atoms: N_2  and  C_6 
REMARK    5  A    between atoms: C_4  and  C_7 
REMARK    6  A    between atoms: C_7  and  C_8 
ROOT
HETATM    1  N   UNK N   1      27.892  19.185   8.460  0.00  0.00    -0.365 N 
HETATM    2  C   UNK N   1      28.770  17.842   6.893  0.00  0.00    -0.029 A 
HETATM    3  C   UNK N   1      28.048  18.820   6.262  0.00  0.00     0.001 A 
HETATM    4  C   UNK N   1      27.528  19.618   7.238  0.00  0.00     0.043 A 
HETATM    5  C   UNK N   1      28.665  18.088   8.258  0.00  0.00     0.096 A 
HETATM    6  C   UNK N   1      27.823  19.066   4.909  0.00  0.00     0.051 A 
HETATM    7  C   UNK N   1      26.737  20.721   6.942  0.00  0.00     0.033 A 
HETATM    8  C   UNK N   1      27.037  20.180   4.561  0.00  0.00     0.069 A 
HETATM    9  C   UNK N   1      26.493  21.004   5.585  0.00  0.00     0.039 A 
HETATM   10  H   UNK N   1      27.648  19.584   9.327  0.00  0.00     0.165 HD
ENDROOT
BRANCH   2  11
HETATM   11  C   UNK N   1      29.523  16.729   6.256  0.00  0.00     0.071 C 
BRANCH  11  12
HETATM   12  C   UNK N   1      30.822  17.279   5.670  0.00  0.00     0.278 C 
BRANCH  12  13
HETATM   13  N   UNK N   1      32.035  16.714   6.295  0.00  0.00     0.096 N 
BRANCH  13  14
HETATM   14  C   UNK N   1      33.224  16.973   5.445  0.00  0.00     0.215 C 
HETATM   15  C   UNK N   1      32.871  17.632   4.114  0.00  0.00     0.042 C 
HETATM   16  C   UNK N   1      33.943  15.681   5.096  0.00  0.00     0.042 C 
ENDBRANCH  13  14
BRANCH  13  17
HETATM   17  C   UNK N   1      32.242  17.245   7.667  0.00  0.00     0.215 C 
HETATM   18  C   UNK N   1      32.390  16.146   8.718  0.00  0.00     0.042 C 
HETATM   19  C   UNK N   1      33.506  18.085   7.748  0.00  0.00     0.042 C 
ENDBRANCH  13  17
ENDBRANCH  12  13
ENDBRANCH  11  12
ENDBRANCH   2  11
BRANCH   8  20
HETATM   20  O   UNK N   1      26.826  20.448   3.251  0.00  0.00    -0.356 OA
HETATM   21  C   UNK N   1      25.575  20.472   2.679  0.00  0.00     0.210 C 
ENDBRANCH   8  20
TORSDOF 6
ENDMDL
MODEL 6
REMARK VINA RESULT:      -5.5      1.222      2.012
REMARK  6 active torsions:
REMARK  status: ('A' for Active; 'I' for Inactive)
REMARK    1  A    between atoms: O_1  and  C_18 
REMARK    2  A    between atoms: N_2  and  C_4 
REMARK    3  A    between atoms: N_2  and  C_5 
REMARK    4  A    between atoms: N_2  and  C_6 
REMARK    5  A    between atoms: C_4  and  C_7 
REMARK    6  A    between atoms: C_7  and  C_8 
ROOT
HETATM    1  N   UNK N   1      25.502  24.503  -6.223  0.00  0.00    -0.365 N 
HETATM    2  C   UNK N   1      27.106  24.297  -4.668  0.00  0.00    -0.029 A 
HETATM    3  C   UNK N   1      26.556  25.546  -4.553  0.00  0.00     0.001 A 
HETATM    4  C   UNK N   1      25.588  25.641  -5.508  0.00  0.00     0.043 A 
HETATM    5  C   UNK N   1      26.436  23.663  -5.708  0.00  0.00     0.096 A 
HETATM    6  C   UNK N   1      26.831  26.592  -3.673  0.00  0.00     0.051 A 
HETATM    7  C   UNK N   1      24.821  26.788  -5.667  0.00  0.00     0.033 A 
HETATM    8  C   UNK N   1      26.071  27.771  -3.790  0.00  0.00     0.069 A 
HETATM    9  C   UNK N   1      25.067  27.865  -4.793  0.00  0.00     0.039 A 
HETATM   10  H   UNK N   1      24.886  24.317  -6.968  0.00  0.00     0.165 HD
ENDROOT
BRANCH   2  11
HETATM   11  C   UNK N   1      28.206  23.721  -3.850  0.00  0.00     0.071 C 
BRANCH  11  12
HETATM   12  C   UNK N   1      29.421  23.487  -4.746  0.00  0.00     0.278 C 
BRANCH  12  13
HETATM   13  N   UNK N   1      29.990  22.130  -4.625  0.00  0.00     0.096 N 
BRANCH  13  14
HETATM   14  C   UNK N   1      29.751  21.355  -5.868  0.00  0.00     0.215 C 
HETATM   15  C   UNK N   1      30.879  20.376  -6.185  0.00  0.00     0.042 C 
HETATM   16  C   UNK N   1      29.638  22.271  -7.075  0.00  0.00     0.042 C 
ENDBRANCH  13  14
BRANCH  13  17
HETATM   17  C   UNK N   1      31.439  22.170  -4.299  0.00  0.00     0.215 C 
HETATM   18  C   UNK N   1      32.049  23.561  -4.457  0.00  0.00     0.042 C 
HETATM   19  C   UNK N   1      31.691  21.754  -2.860  0.00  0.00     0.042 C 
ENDBRANCH  13  17
ENDBRANCH  12  13
ENDBRANCH  11  12
ENDBRANCH   2  11
BRANCH   8  20
HETATM   20  O   UNK N   1      26.309  28.790  -2.931  0.00  0.00    -0.356 OA
HETATM   21  C   UNK N   1      27.575  29.207  -2.590  0.00  0.00     0.210 C 
ENDBRANCH   8  20
TORSDOF 6
ENDMDL
MODEL 7
REMARK VINA RESULT:      -5.3     11.225     14.187
REMARK  6 active torsions:
REMARK  status: ('A' for Active; 'I' for Inactive)
REMARK    1  A    between atoms: O_1  and  C_18 
REMARK    2  A    between atoms: N_2  and  C_4 
REMARK    3  A    between atoms: N_2  and  C_5 
REMARK    4  A    between atoms: N_2  and  C_6 
REMARK    5  A    between atoms: C_4  and  C_7 
REMARK    6  A    between atoms: C_7  and  C_8 
ROOT
HETATM    1  N   UNK N   1      30.701  18.099   9.405  0.00  0.00    -0.365 N 
HETATM    2  C   UNK N   1      29.356  17.329   7.783  0.00  0.00    -0.029 A 
HETATM    3  C   UNK N   1      30.639  17.346   7.302  0.00  0.00     0.001 A 
HETATM    4  C   UNK N   1      31.430  17.818   8.308  0.00  0.00     0.043 A 
HETATM    5  C   UNK N   1      29.416  17.795   9.091  0.00  0.00     0.096 A 
HETATM    6  C   UNK N   1      31.160  16.973   6.065  0.00  0.00     0.051 A 
HETATM    7  C   UNK N   1      32.804  17.961   8.156  0.00  0.00     0.033 A 
HETATM    8  C   UNK N   1      32.549  17.091   5.870  0.00  0.00     0.069 A 
HETATM    9  C   UNK N   1      33.367  17.589   6.921  0.00  0.00     0.039 A 
HETATM   10  H   UNK N   1      31.034  18.451  10.262  0.00  0.00     0.165 HD
ENDROOT
BRANCH   2  11
HETATM   11  C   UNK N   1      28.131  16.899   7.058  0.00  0.00     0.071 C 
BRANCH  11  12
HETATM   12  C   UNK N   1      27.552  18.097   6.309  0.00  0.00     0.278 C 
BRANCH  12  13
HETATM   13  N   UNK N   1      27.022  17.758   4.973  0.00  0.00     0.096 N 
BRANCH  13  14
HETATM   14  C   UNK N   1      27.235  18.884   4.029  0.00  0.00     0.215 C 
HETATM   15  C   UNK N   1      27.957  20.068   4.669  0.00  0.00     0.042 C 
HETATM   16  C   UNK N   1      25.913  19.427   3.513  0.00  0.00     0.042 C 
ENDBRANCH  13  14
BRANCH  13  17
HETATM   17  C   UNK N   1      27.627  16.507   4.446  0.00  0.00     0.215 C 
HETATM   18  C   UNK N   1      26.602  15.563   3.822  0.00  0.00     0.042 C 
HETATM   19  C   UNK N   1      28.649  16.804   3.361  0.00  0.00     0.042 C 
ENDBRANCH  13  17
ENDBRANCH  12  13
ENDBRANCH  11  12
ENDBRANCH   2  11
BRANCH   8  20
HETATM   20  O   UNK N   1      33.076  16.713   4.682  0.00  0.00    -0.356 OA
HETATM   21  C   UNK N   1      32.634  17.198   3.473  0.00  0.00     0.210 C 
ENDBRANCH   8  20
TORSDOF 6
ENDMDL
MODEL 8
REMARK VINA RESULT:      -5.3     11.467     14.771
REMARK  6 active torsions:
REMARK  status: ('A' for Active; 'I' for Inactive)
REMARK    1  A    between atoms: O_1  and  C_18 
REMARK    2  A    between atoms: N_2  and  C_4 
REMARK    3  A    between atoms: N_2  and  C_5 
REMARK    4  A    between atoms: N_2  and  C_6 
REMARK    5  A    between atoms: C_4  and  C_7 
REMARK    6  A    between atoms: C_7  and  C_8 
ROOT
HETATM    1  N   UNK N   1      31.024  18.098   9.004  0.00  0.00    -0.365 N 
HETATM    2  C   UNK N   1      30.356  17.301   7.017  0.00  0.00    -0.029 A 
HETATM    3  C   UNK N   1      31.720  17.195   7.083  0.00  0.00     0.001 A 
HETATM    4  C   UNK N   1      32.095  17.687   8.298  0.00  0.00     0.043 A 
HETATM    5  C   UNK N   1      29.942  17.860   8.220  0.00  0.00     0.096 A 
HETATM    6  C   UNK N   1      32.647  16.696   6.170  0.00  0.00     0.051 A 
HETATM    7  C   UNK N   1      33.425  17.725   8.697  0.00  0.00     0.033 A 
HETATM    8  C   UNK N   1      34.006  16.704   6.536  0.00  0.00     0.069 A 
HETATM    9  C   UNK N   1      34.390  17.224   7.803  0.00  0.00     0.039 A 
HETATM   10  H   UNK N   1      31.025  18.492   9.906  0.00  0.00     0.165 HD
ENDROOT
BRANCH   2  11
HETATM   11  C   UNK N   1      29.478  16.901   5.884  0.00  0.00     0.071 C 
BRANCH  11  12
HETATM   12  C   UNK N   1      28.239  17.794   5.878  0.00  0.00     0.278 C 
BRANCH  12  13
HETATM   13  N   UNK N   1      27.872  18.283   4.533  0.00  0.00     0.096 N 
BRANCH  13  14
HETATM   14  C   UNK N   1      26.597  17.667   4.088  0.00  0.00     0.215 C 
HETATM   15  C   UNK N   1      25.794  17.064   5.239  0.00  0.00     0.042 C 
HETATM   16  C   UNK N   1      26.846  16.531   3.110  0.00  0.00     0.042 C 
ENDBRANCH  13  14
BRANCH  13  17
HETATM   17  C   UNK N   1      27.783  19.765   4.495  0.00  0.00     0.215 C 
HETATM   18  C   UNK N   1      26.637  20.273   3.623  0.00  0.00     0.042 C 
HETATM   19  C   UNK N   1      27.550  20.339   5.882  0.00  0.00     0.042 C 
ENDBRANCH  13  17
ENDBRANCH  12  13
ENDBRANCH  11  12
ENDBRANCH   2  11
BRANCH   8  20
HETATM   20  O   UNK N   1      34.919  16.203   5.672  0.00  0.00    -0.356 OA
HETATM   21  C   UNK N   1      34.936  14.885   5.275  0.00  0.00     0.210 C 
ENDBRANCH   8  20
TORSDOF 6
ENDMDL
MODEL 9
REMARK VINA RESULT:      -5.2      2.650      6.033
REMARK  6 active torsions:
REMARK  status: ('A' for Active; 'I' for Inactive)
REMARK    1  A    between atoms: O_1  and  C_18 
REMARK    2  A    between atoms: N_2  and  C_4 
REMARK    3  A    between atoms: N_2  and  C_5 
REMARK    4  A    between atoms: N_2  and  C_6 
REMARK    5  A    between atoms: C_4  and  C_7 
REMARK    6  A    between atoms: C_7  and  C_8 
ROOT
HETATM    1  N   UNK N   1      28.062  23.036  -6.325  0.00  0.00    -0.365 N 
HETATM    2  C   UNK N   1      27.831  24.083  -4.355  0.00  0.00    -0.029 A 
HETATM    3  C   UNK N   1      28.912  23.247  -4.270  0.00  0.00     0.001 A 
HETATM    4  C   UNK N   1      29.027  22.626  -5.479  0.00  0.00     0.043 A 
HETATM    5  C   UNK N   1      27.319  23.941  -5.640  0.00  0.00     0.096 A 
HETATM    6  C   UNK N   1      29.801  22.999  -3.225  0.00  0.00     0.051 A 
HETATM    7  C   UNK N   1      30.033  21.704  -5.739  0.00  0.00     0.033 A 
HETATM    8  C   UNK N   1      30.844  22.081  -3.447  0.00  0.00     0.069 A 
HETATM    9  C   UNK N   1      30.953  21.433  -4.709  0.00  0.00     0.039 A 
HETATM   10  H   UNK N   1      27.925  22.739  -7.254  0.00  0.00     0.165 HD
ENDROOT
BRANCH   2  11
HETATM   11  C   UNK N   1      27.297  24.973  -3.290  0.00  0.00     0.071 C 
BRANCH  11  12
HETATM   12  C   UNK N   1      26.370  26.007  -3.925  0.00  0.00     0.278 C 
BRANCH  12  13
HETATM   13  N   UNK N   1      27.073  27.219  -4.394  0.00  0.00     0.096 N 
BRANCH  13  14
HETATM   14  C   UNK N   1      26.368  27.808  -5.560  0.00  0.00     0.215 C 
HETATM   15  C   UNK N   1      25.112  27.032  -5.950  0.00  0.00     0.042 C 
HETATM   16  C   UNK N   1      27.256  27.817  -6.793  0.00  0.00     0.042 C 
ENDBRANCH  13  14
BRANCH  13  17
HETATM   17  C   UNK N   1      27.222  28.220  -3.307  0.00  0.00     0.215 C 
HETATM   18  C   UNK N   1      28.653  28.734  -3.159  0.00  0.00     0.042 C 
HETATM   19  C   UNK N   1      26.355  29.442  -3.561  0.00  0.00     0.042 C 
ENDBRANCH  13  17
ENDBRANCH  12  13
ENDBRANCH  11  12
ENDBRANCH   2  11
BRANCH   8  20
HETATM   20  O   UNK N   1      31.729  21.844  -2.452  0.00  0.00    -0.356 OA
HETATM   21  C   UNK N   1      32.956  21.258  -2.660  0.00  0.00     0.210 C 
ENDBRANCH   8  20
TORSDOF 6
ENDMDL
