REMARK  4 active torsions:
REMARK  status: ('A' for Active; 'I' for Inactive)
REMARK    1  A    between atoms: O_3  and  C_12 
REMARK    2  A    between atoms: N_4  and  C_6 
REMARK    3  A    between atoms: C_5  and  C_6 
REMARK    4  A    between atoms: C_5  and  C_7 
ROOT
HETATM    1  O   UNK N   1       7.597  -1.572  -0.000  0.00  0.00    -0.323 OA
HETATM    2  O   UNK N   1       7.538   0.644   0.000  0.00  0.00    -0.320 OA
HETATM    3  C   UNK N   1       3.925  -1.278  -0.000  0.00  0.00    -0.051 A 
HETATM    4  C   UNK N   1       5.169  -1.946  -0.000  0.00  0.00     0.047 A 
HETATM    5  C   UNK N   1       6.328  -1.168   0.000  0.00  0.00     0.108 A 
HETATM    6  C   UNK N   1       3.902   0.135   0.000  0.00  0.00     0.047 A 
HETATM    7  C   UNK N   1       6.293   0.171   0.000  0.00  0.00     0.138 A 
HETATM    8  C   UNK N   1       5.096   0.881   0.000  0.00  0.00     0.104 A 
HETATM    9  C   UNK N   1       8.422  -0.441  -0.000  0.00  0.00     0.352 A 
ENDROOT
BRANCH   3  10
HETATM   10  C   UNK N   1       2.657  -2.093  -0.000  0.00  0.00     0.062 C 
BRANCH  10  11
HETATM   11  C   UNK N   1       1.305  -1.356   0.000  0.00  0.00     0.074 C 
HETATM   12  C   UNK N   1       1.059   0.144  -0.000  0.00  0.00     0.032 C 
BRANCH  11  13
HETATM   13  N   UNK N   1       0.118  -2.189  -0.000  0.00  0.00    -0.426 N 
HETATM   14  H   UNK N   1      -0.807  -1.759  -0.000  0.00  0.00     0.150 HD
HETATM   15  H   UNK N   1       0.208  -3.205  -0.000  0.00  0.00     0.150 HD
ENDBRANCH  11  13
ENDBRANCH  10  11
ENDBRANCH   3  10
BRANCH   8  16
HETATM   16  O   UNK N   1       5.096   2.234   0.000  0.00  0.00    -0.353 OA
HETATM   17  C   UNK N   1       3.936   2.977   0.000  0.00  0.00     0.210 C 
ENDBRANCH   8  16
TORSDOF 4
