MODEL 1
REMARK VINA RESULT:      -5.6      0.000      0.000
REMARK  4 active torsions:
REMARK  status: ('A' for Active; 'I' for Inactive)
REMARK    1  A    between atoms: O_3  and  C_12 
REMARK    2  A    between atoms: N_4  and  C_6 
REMARK    3  A    between atoms: C_5  and  C_6 
REMARK    4  A    between atoms: C_5  and  C_7 
ROOT
HETATM    1  O   UNK N   1      33.581  18.067   8.914  0.00  0.00    -0.323 OA
HETATM    2  O   UNK N   1      34.529  17.858   6.921  0.00  0.00    -0.320 OA
HETATM    3  C   UNK N   1      30.475  17.325   7.079  0.00  0.00    -0.051 A 
HETATM    4  C   UNK N   1      31.271  17.627   8.206  0.00  0.00     0.047 A 
HETATM    5  C   UNK N   1      32.644  17.784   8.012  0.00  0.00     0.108 A 
HETATM    6  C   UNK N   1      31.092  17.195   5.815  0.00  0.00     0.047 A 
HETATM    7  C   UNK N   1      33.217  17.658   6.808  0.00  0.00     0.138 A 
HETATM    8  C   UNK N   1      32.482  17.361   5.664  0.00  0.00     0.104 A 
HETATM    9  C   UNK N   1      34.819  18.127   8.264  0.00  0.00     0.352 A 
ENDROOT
BRANCH   3  10
HETATM   10  C   UNK N   1      28.988  17.151   7.259  0.00  0.00     0.062 C 
BRANCH  10  11
HETATM   11  C   UNK N   1      28.150  18.365   7.699  0.00  0.00     0.074 C 
HETATM   12  C   UNK N   1      27.786  19.594   6.882  0.00  0.00     0.032 C 
BRANCH  11  13
HETATM   13  N   UNK N   1      27.642  18.339   9.057  0.00  0.00    -0.426 N 
HETATM   14  H   UNK N   1      27.189  17.499   9.416  0.00  0.00     0.150 HD
HETATM   15  H   UNK N   1      27.739  19.161   9.653  0.00  0.00     0.150 HD
ENDBRANCH  11  13
ENDBRANCH  10  11
ENDBRANCH   3  10
BRANCH   8  16
HETATM   16  O   UNK N   1      33.092  17.241   4.463  0.00  0.00    -0.353 OA
HETATM   17  C   UNK N   1      32.407  16.931   3.309  0.00  0.00     0.210 C 
ENDBRANCH   8  16
TORSDOF 4
ENDMDL
MODEL 2
REMARK VINA RESULT:      -5.4      9.502     11.415
REMARK  4 active torsions:
REMARK  status: ('A' for Active; 'I' for Inactive)
REMARK    1  A    between atoms: O_3  and  C_12 
REMARK    2  A    between atoms: N_4  and  C_6 
REMARK    3  A    between atoms: C_5  and  C_6 
REMARK    4  A    between atoms: C_5  and  C_7 
ROOT
HETATM    1  O   UNK N   1      19.233  15.282   9.513  0.00  0.00    -0.323 OA
HETATM    2  O   UNK N   1      20.324  16.168   7.798  0.00  0.00    -0.320 OA
HETATM    3  C   UNK N   1      22.069  12.932   9.596  0.00  0.00    -0.051 A 
HETATM    4  C   UNK N   1      20.840  13.491  10.009  0.00  0.00     0.047 A 
HETATM    5  C   UNK N   1      20.356  14.596   9.307  0.00  0.00     0.108 A 
HETATM    6  C   UNK N   1      22.753  13.507   8.501  0.00  0.00     0.047 A 
HETATM    7  C   UNK N   1      21.015  15.132   8.270  0.00  0.00     0.138 A 
HETATM    8  C   UNK N   1      22.229  14.622   7.821  0.00  0.00     0.104 A 
HETATM    9  C   UNK N   1      19.162  16.310   8.565  0.00  0.00     0.352 A 
ENDROOT
BRANCH   3  10
HETATM   10  C   UNK N   1      22.615  11.738  10.336  0.00  0.00     0.062 C 
BRANCH  10  11
HETATM   11  C   UNK N   1      23.546  11.977  11.539  0.00  0.00     0.074 C 
HETATM   12  C   UNK N   1      23.209  11.869  13.017  0.00  0.00     0.032 C 
BRANCH  11  13
HETATM   13  N   UNK N   1      24.913  12.350  11.230  0.00  0.00    -0.426 N 
HETATM   14  H   UNK N   1      25.680  11.719  11.463  0.00  0.00     0.150 HD
HETATM   15  H   UNK N   1      25.108  13.244  10.780  0.00  0.00     0.150 HD
ENDBRANCH  11  13
ENDBRANCH  10  11
ENDBRANCH   3  10
BRANCH   8  16
HETATM   16  O   UNK N   1      22.868  15.187   6.770  0.00  0.00    -0.353 OA
HETATM   17  C   UNK N   1      23.154  14.494   5.615  0.00  0.00     0.210 C 
ENDBRANCH   8  16
TORSDOF 4
ENDMDL
MODEL 3
REMARK VINA RESULT:      -5.2      7.144      9.733
REMARK  4 active torsions:
REMARK  status: ('A' for Active; 'I' for Inactive)
REMARK    1  A    between atoms: O_3  and  C_12 
REMARK    2  A    between atoms: N_4  and  C_6 
REMARK    3  A    between atoms: C_5  and  C_6 
REMARK    4  A    between atoms: C_5  and  C_7 
ROOT
HETATM    1  O   UNK N   1      22.769  17.528   5.007  0.00  0.00    -0.323 OA
HETATM    2  O   UNK N   1      21.151  18.645   3.983  0.00  0.00    -0.320 OA
HETATM    3  C   UNK N   1      24.964  20.014   3.403  0.00  0.00    -0.051 A 
HETATM    4  C   UNK N   1      24.646  18.895   4.203  0.00  0.00     0.047 A 
HETATM    5  C   UNK N   1      23.302  18.534   4.316  0.00  0.00     0.108 A 
HETATM    6  C   UNK N   1      23.923  20.717   2.756  0.00  0.00     0.047 A 
HETATM    7  C   UNK N   1      22.324  19.209   3.698  0.00  0.00     0.138 A 
HETATM    8  C   UNK N   1      22.580  20.319   2.898  0.00  0.00     0.104 A 
HETATM    9  C   UNK N   1      21.381  17.553   4.827  0.00  0.00     0.352 A 
ENDROOT
BRANCH   3  10
HETATM   10  C   UNK N   1      26.407  20.426   3.263  0.00  0.00     0.062 C 
BRANCH  10  11
HETATM   11  C   UNK N   1      27.330  20.314   4.491  0.00  0.00     0.074 C 
HETATM   12  C   UNK N   1      27.224  21.061   5.810  0.00  0.00     0.032 C 
BRANCH  11  13
HETATM   13  N   UNK N   1      28.438  19.385   4.381  0.00  0.00    -0.426 N 
HETATM   14  H   UNK N   1      28.264  18.380   4.397  0.00  0.00     0.150 HD
HETATM   15  H   UNK N   1      29.391  19.736   4.287  0.00  0.00     0.150 HD
ENDBRANCH  11  13
ENDBRANCH  10  11
ENDBRANCH   3  10
BRANCH   8  16
HETATM   16  O   UNK N   1      21.569  20.978   2.287  0.00  0.00    -0.353 OA
HETATM   17  C   UNK N   1      20.980  20.525   1.127  0.00  0.00     0.210 C 
ENDBRANCH   8  16
TORSDOF 4
ENDMDL
MODEL 4
REMARK VINA RESULT:      -5.2     13.915     15.837
REMARK  4 active torsions:
REMARK  status: ('A' for Active; 'I' for Inactive)
REMARK    1  A    between atoms: O_3  and  C_12 
REMARK    2  A    between atoms: N_4  and  C_6 
REMARK    3  A    between atoms: C_5  and  C_6 
REMARK    4  A    between atoms: C_5  and  C_7 
ROOT
HETATM    1  O   UNK N   1      25.630  28.015  -4.922  0.00  0.00    -0.323 OA
HETATM    2  O   UNK N   1      26.142  26.891  -3.081  0.00  0.00    -0.320 OA
HETATM    3  C   UNK N   1      25.850  24.708  -6.530  0.00  0.00    -0.051 A 
HETATM    4  C   UNK N   1      25.645  26.103  -6.465  0.00  0.00     0.047 A 
HETATM    5  C   UNK N   1      25.776  26.726  -5.223  0.00  0.00     0.108 A 
HETATM    6  C   UNK N   1      26.176  24.004  -5.349  0.00  0.00     0.047 A 
HETATM    7  C   UNK N   1      26.085  26.047  -4.110  0.00  0.00     0.138 A 
HETATM    8  C   UNK N   1      26.298  24.672  -4.115  0.00  0.00     0.104 A 
HETATM    9  C   UNK N   1      25.856  28.178  -3.550  0.00  0.00     0.352 A 
ENDROOT
BRANCH   3  10
HETATM   10  C   UNK N   1      25.715  24.010  -7.859  0.00  0.00     0.062 C 
BRANCH  10  11
HETATM   11  C   UNK N   1      25.545  22.479  -7.876  0.00  0.00     0.074 C 
HETATM   12  C   UNK N   1      26.616  21.423  -8.099  0.00  0.00     0.032 C 
BRANCH  11  13
HETATM   13  N   UNK N   1      24.203  21.978  -7.652  0.00  0.00    -0.426 N 
HETATM   14  H   UNK N   1      24.064  21.028  -7.309  0.00  0.00     0.150 HD
HETATM   15  H   UNK N   1      23.398  22.577  -7.837  0.00  0.00     0.150 HD
ENDBRANCH  11  13
ENDBRANCH  10  11
ENDBRANCH   3  10
BRANCH   8  16
HETATM   16  O   UNK N   1      26.609  24.017  -2.973  0.00  0.00    -0.353 OA
HETATM   17  C   UNK N   1      27.902  23.680  -2.638  0.00  0.00     0.210 C 
ENDBRANCH   8  16
TORSDOF 4
ENDMDL
MODEL 5
REMARK VINA RESULT:      -5.1     13.684     15.607
REMARK  4 active torsions:
REMARK  status: ('A' for Active; 'I' for Inactive)
REMARK    1  A    between atoms: O_3  and  C_12 
REMARK    2  A    between atoms: N_4  and  C_6 
REMARK    3  A    between atoms: C_5  and  C_6 
REMARK    4  A    between atoms: C_5  and  C_7 
ROOT
HETATM    1  O   UNK N   1      25.372  24.461  -7.103  0.00  0.00    -0.323 OA
HETATM    2  O   UNK N   1      26.441  23.091  -5.726  0.00  0.00    -0.320 OA
HETATM    3  C   UNK N   1      25.837  26.914  -4.395  0.00  0.00    -0.051 A 
HETATM    4  C   UNK N   1      25.407  26.445  -5.655  0.00  0.00     0.047 A 
HETATM    5  C   UNK N   1      25.678  25.116  -5.985  0.00  0.00     0.108 A 
HETATM    6  C   UNK N   1      26.518  26.030  -3.527  0.00  0.00     0.047 A 
HETATM    7  C   UNK N   1      26.324  24.288  -5.153  0.00  0.00     0.138 A 
HETATM    8  C   UNK N   1      26.770  24.696  -3.900  0.00  0.00     0.104 A 
HETATM    9  C   UNK N   1      25.842  23.147  -6.989  0.00  0.00     0.352 A 
ENDROOT
BRANCH   3  10
HETATM   10  C   UNK N   1      25.558  28.345  -4.012  0.00  0.00     0.062 C 
BRANCH  10  11
HETATM   11  C   UNK N   1      26.749  29.293  -3.777  0.00  0.00     0.074 C 
HETATM   12  C   UNK N   1      27.459  30.170  -4.796  0.00  0.00     0.032 C 
BRANCH  11  13
HETATM   13  N   UNK N   1      27.259  29.362  -2.422  0.00  0.00    -0.426 N 
HETATM   14  H   UNK N   1      27.210  30.238  -1.902  0.00  0.00     0.150 HD
HETATM   15  H   UNK N   1      27.667  28.534  -1.988  0.00  0.00     0.150 HD
ENDBRANCH  11  13
ENDBRANCH  10  11
ENDBRANCH   3  10
BRANCH   8  16
HETATM   16  O   UNK N   1      27.420  23.835  -3.084  0.00  0.00    -0.353 OA
HETATM   17  C   UNK N   1      28.786  23.660  -3.123  0.00  0.00     0.210 C 
ENDBRANCH   8  16
TORSDOF 4
ENDMDL
MODEL 6
REMARK VINA RESULT:      -4.9      6.975      9.735
REMARK  4 active torsions:
REMARK  status: ('A' for Active; 'I' for Inactive)
REMARK    1  A    between atoms: O_3  and  C_12 
REMARK    2  A    between atoms: N_4  and  C_6 
REMARK    3  A    between atoms: C_5  and  C_6 
REMARK    4  A    between atoms: C_5  and  C_7 
ROOT
HETATM    1  O   UNK N   1      21.384  20.469   2.696  0.00  0.00    -0.323 OA
HETATM    2  O   UNK N   1      20.989  18.757   4.048  0.00  0.00    -0.320 OA
HETATM    3  C   UNK N   1      24.898  19.904   3.647  0.00  0.00    -0.051 A 
HETATM    4  C   UNK N   1      23.823  20.533   2.981  0.00  0.00     0.047 A 
HETATM    5  C   UNK N   1      22.536  20.041   3.208  0.00  0.00     0.108 A 
HETATM    6  C   UNK N   1      24.632  18.813   4.506  0.00  0.00     0.047 A 
HETATM    7  C   UNK N   1      22.298  19.006   4.024  0.00  0.00     0.138 A 
HETATM    8  C   UNK N   1      23.318  18.349   4.706  0.00  0.00     0.104 A 
HETATM    9  C   UNK N   1      20.350  19.674   3.206  0.00  0.00     0.352 A 
ENDROOT
BRANCH   3  10
HETATM   10  C   UNK N   1      26.298  20.414   3.422  0.00  0.00     0.062 C 
BRANCH  10  11
HETATM   11  C   UNK N   1      27.359  20.167   4.510  0.00  0.00     0.074 C 
HETATM   12  C   UNK N   1      27.477  20.839   5.868  0.00  0.00     0.032 C 
BRANCH  11  13
HETATM   13  N   UNK N   1      28.370  19.173   4.209  0.00  0.00    -0.426 N 
HETATM   14  H   UNK N   1      28.796  18.633   4.963  0.00  0.00     0.150 HD
HETATM   15  H   UNK N   1      28.657  19.013   3.243  0.00  0.00     0.150 HD
ENDBRANCH  11  13
ENDBRANCH  10  11
ENDBRANCH   3  10
BRANCH   8  16
HETATM   16  O   UNK N   1      23.042  17.307   5.524  0.00  0.00    -0.353 OA
HETATM   17  C   UNK N   1      23.112  15.996   5.106  0.00  0.00     0.210 C 
ENDBRANCH   8  16
TORSDOF 4
ENDMDL
MODEL 7
REMARK VINA RESULT:      -4.7      8.108     10.195
REMARK  4 active torsions:
REMARK  status: ('A' for Active; 'I' for Inactive)
REMARK    1  A    between atoms: O_3  and  C_12 
REMARK    2  A    between atoms: N_4  and  C_6 
REMARK    3  A    between atoms: C_5  and  C_6 
REMARK    4  A    between atoms: C_5  and  C_7 
ROOT
HETATM    1  O   UNK N   1      34.440  11.341  15.575  0.00  0.00    -0.323 OA
HETATM    2  O   UNK N   1      35.940  12.444  16.778  0.00  0.00    -0.320 OA
HETATM    3  C   UNK N   1      35.456  13.663  12.901  0.00  0.00    -0.051 A 
HETATM    4  C   UNK N   1      34.730  12.602  13.487  0.00  0.00     0.047 A 
HETATM    5  C   UNK N   1      34.994  12.289  14.821  0.00  0.00     0.108 A 
HETATM    6  C   UNK N   1      36.409  14.357  13.680  0.00  0.00     0.047 A 
HETATM    7  C   UNK N   1      35.900  12.955  15.549  0.00  0.00     0.138 A 
HETATM    8  C   UNK N   1      36.644  14.008  15.023  0.00  0.00     0.104 A 
HETATM    9  C   UNK N   1      35.015  11.396  16.850  0.00  0.00     0.352 A 
ENDROOT
BRANCH   3  10
HETATM   10  C   UNK N   1      35.192  14.023  11.462  0.00  0.00     0.062 C 
BRANCH  10  11
HETATM   11  C   UNK N   1      35.937  15.224  10.852  0.00  0.00     0.074 C 
HETATM   12  C   UNK N   1      35.429  16.645  10.671  0.00  0.00     0.032 C 
BRANCH  11  13
HETATM   13  N   UNK N   1      37.290  14.976  10.392  0.00  0.00    -0.426 N 
HETATM   14  H   UNK N   1      37.656  14.024  10.372  0.00  0.00     0.150 HD
HETATM   15  H   UNK N   1      37.876  15.754  10.088  0.00  0.00     0.150 HD
ENDBRANCH  11  13
ENDBRANCH  10  11
ENDBRANCH   3  10
BRANCH   8  16
HETATM   16  O   UNK N   1      37.552  14.659  15.786  0.00  0.00    -0.353 OA
HETATM   17  C   UNK N   1      37.345  15.936  16.259  0.00  0.00     0.210 C 
ENDBRANCH   8  16
TORSDOF 4
ENDMDL
MODEL 8
REMARK VINA RESULT:      -4.7      3.046      4.062
REMARK  4 active torsions:
REMARK  status: ('A' for Active; 'I' for Inactive)
REMARK    1  A    between atoms: O_3  and  C_12 
REMARK    2  A    between atoms: N_4  and  C_6 
REMARK    3  A    between atoms: C_5  and  C_6 
REMARK    4  A    between atoms: C_5  and  C_7 
ROOT
HETATM    1  O   UNK N   1      34.318  17.545   9.396  0.00  0.00    -0.323 OA
HETATM    2  O   UNK N   1      35.383  15.611   9.192  0.00  0.00    -0.320 OA
HETATM    3  C   UNK N   1      33.707  17.141   5.786  0.00  0.00    -0.051 A 
HETATM    4  C   UNK N   1      33.638  17.773   7.047  0.00  0.00     0.047 A 
HETATM    5  C   UNK N   1      34.254  17.142   8.129  0.00  0.00     0.108 A 
HETATM    6  C   UNK N   1      34.389  15.909   5.670  0.00  0.00     0.047 A 
HETATM    7  C   UNK N   1      34.897  15.973   8.006  0.00  0.00     0.138 A 
HETATM    8  C   UNK N   1      34.997  15.306   6.788  0.00  0.00     0.104 A 
HETATM    9  C   UNK N   1      35.037  16.592  10.128  0.00  0.00     0.352 A 
ENDROOT
BRANCH   3  10
HETATM   10  C   UNK N   1      33.050  17.800   4.600  0.00  0.00     0.062 C 
BRANCH  10  11
HETATM   11  C   UNK N   1      31.624  17.369   4.211  0.00  0.00     0.074 C 
HETATM   12  C   UNK N   1      30.425  17.176   5.124  0.00  0.00     0.032 C 
BRANCH  11  13
HETATM   13  N   UNK N   1      31.391  17.114   2.802  0.00  0.00    -0.426 N 
HETATM   14  H   UNK N   1      31.550  16.182   2.419  0.00  0.00     0.150 HD
HETATM   15  H   UNK N   1      31.067  17.867   2.195  0.00  0.00     0.150 HD
ENDBRANCH  11  13
ENDBRANCH  10  11
ENDBRANCH   3  10
BRANCH   8  16
HETATM   16  O   UNK N   1      35.654  14.127   6.698  0.00  0.00    -0.353 OA
HETATM   17  C   UNK N   1      36.796  13.969   5.944  0.00  0.00     0.210 C 
ENDBRANCH   8  16
TORSDOF 4
ENDMDL
MODEL 9
REMARK VINA RESULT:      -4.7      1.864      2.281
REMARK  4 active torsions:
REMARK  status: ('A' for Active; 'I' for Inactive)
REMARK    1  A    between atoms: O_3  and  C_12 
REMARK    2  A    between atoms: N_4  and  C_6 
REMARK    3  A    between atoms: C_5  and  C_6 
REMARK    4  A    between atoms: C_5  and  C_7 
ROOT
HETATM    1  O   UNK N   1      34.561  17.023   6.988  0.00  0.00    -0.323 OA
HETATM    2  O   UNK N   1      33.740  15.182   6.065  0.00  0.00    -0.320 OA
HETATM    3  C   UNK N   1      31.079  17.564   8.063  0.00  0.00    -0.051 A 
HETATM    4  C   UNK N   1      32.455  17.856   7.941  0.00  0.00     0.047 A 
HETATM    5  C   UNK N   1      33.253  16.957   7.231  0.00  0.00     0.108 A 
HETATM    6  C   UNK N   1      30.569  16.387   7.470  0.00  0.00     0.047 A 
HETATM    7  C   UNK N   1      32.758  15.844   6.673  0.00  0.00     0.138 A 
HETATM    8  C   UNK N   1      31.411  15.507   6.762  0.00  0.00     0.104 A 
HETATM    9  C   UNK N   1      34.929  15.900   6.238  0.00  0.00     0.352 A 
ENDROOT
BRANCH   3  10
HETATM   10  C   UNK N   1      30.193  18.517   8.824  0.00  0.00     0.062 C 
BRANCH  10  11
HETATM   11  C   UNK N   1      28.718  18.652   8.402  0.00  0.00     0.074 C 
HETATM   12  C   UNK N   1      28.162  19.291   7.140  0.00  0.00     0.032 C 
BRANCH  11  13
HETATM   13  N   UNK N   1      27.735  18.104   9.317  0.00  0.00    -0.426 N 
HETATM   14  H   UNK N   1      26.944  18.673   9.617  0.00  0.00     0.150 HD
HETATM   15  H   UNK N   1      27.835  17.149   9.661  0.00  0.00     0.150 HD
ENDBRANCH  11  13
ENDBRANCH  10  11
ENDBRANCH   3  10
BRANCH   8  16
HETATM   16  O   UNK N   1      30.943  14.375   6.187  0.00  0.00    -0.353 OA
HETATM   17  C   UNK N   1      30.209  14.383   5.021  0.00  0.00     0.210 C 
ENDBRANCH   8  16
TORSDOF 4
ENDMDL
