MODEL 1
REMARK VINA RESULT:      -5.2      0.000      0.000
REMARK  4 active torsions:
REMARK  status: ('A' for Active; 'I' for Inactive)
REMARK    1  A    between atoms: N_3  and  C_4 
REMARK    2  A    between atoms: C_4  and  C_5 
REMARK    3  A    between atoms: C_6  and  C_10 
REMARK    4  A    between atoms: C_6  and  C_11 
ROOT
HETATM    1  C   UNK N   1      30.612  17.301   7.161  0.00  0.00     0.022 C 
HETATM    2  C   UNK N   1      31.916  16.972   6.927  0.00  0.00    -0.004 C 
ENDROOT
BRANCH   2   3
HETATM    3  C   UNK N   1      32.954  16.731   7.989  0.00  0.00     0.016 A 
HETATM    4  S   UNK N   1      34.223  17.742   8.367  0.00  0.00    -0.101 SA
HETATM    5  C   UNK N   1      34.942  16.896   9.594  0.00  0.00     0.050 A 
HETATM    6  C   UNK N   1      34.170  15.743   9.759  0.00  0.00     0.008 A 
HETATM    7  C   UNK N   1      33.069  15.654   8.864  0.00  0.00     0.020 A 
ENDBRANCH   2   3
BRANCH   2   8
HETATM    8  C   UNK N   1      32.282  16.824   5.485  0.00  0.00     0.016 A 
HETATM    9  S   UNK N   1      33.354  15.723   4.853  0.00  0.00    -0.101 SA
HETATM   10  C   UNK N   1      33.252  16.093   3.240  0.00  0.00     0.050 A 
HETATM   11  C   UNK N   1      32.327  17.139   3.146  0.00  0.00     0.008 A 
HETATM   12  C   UNK N   1      31.781  17.547   4.394  0.00  0.00     0.020 A 
ENDBRANCH   2   8
BRANCH   1  13
HETATM   13  C   UNK N   1      29.657  17.547   8.328  0.00  0.00     0.241 C 
HETATM   14  C   UNK N   1      30.048  18.626   9.323  0.00  0.00     0.047 C 
BRANCH  13  15
HETATM   15  N   UNK N   1      28.272  17.740   7.862  0.00  0.00     0.087 N 
HETATM   16  C   UNK N   1      28.028  16.903   6.692  0.00  0.00     0.310 C 
HETATM   17  C   UNK N   1      28.101  19.106   7.387  0.00  0.00     0.310 C 
ENDBRANCH  13  15
ENDBRANCH   1  13
TORSDOF 4
ENDMDL
MODEL 2
REMARK VINA RESULT:      -5.0      1.183      4.352
REMARK  4 active torsions:
REMARK  status: ('A' for Active; 'I' for Inactive)
REMARK    1  A    between atoms: N_3  and  C_4 
REMARK    2  A    between atoms: C_4  and  C_5 
REMARK    3  A    between atoms: C_6  and  C_10 
REMARK    4  A    between atoms: C_6  and  C_11 
ROOT
HETATM    1  C   UNK N   1      30.978  17.290   8.018  0.00  0.00     0.022 C 
HETATM    2  C   UNK N   1      32.154  16.796   7.531  0.00  0.00    -0.004 C 
ENDROOT
BRANCH   2   3
HETATM    3  C   UNK N   1      32.464  16.569   6.076  0.00  0.00     0.016 A 
HETATM    4  S   UNK N   1      32.593  15.089   5.321  0.00  0.00    -0.101 SA
HETATM    5  C   UNK N   1      32.930  15.558   3.770  0.00  0.00     0.050 A 
HETATM    6  C   UNK N   1      32.946  16.955   3.795  0.00  0.00     0.008 A 
HETATM    7  C   UNK N   1      32.689  17.513   5.077  0.00  0.00     0.020 A 
ENDBRANCH   2   3
BRANCH   2   8
HETATM    8  C   UNK N   1      33.193  16.501   8.565  0.00  0.00     0.016 A 
HETATM    9  S   UNK N   1      33.322  15.104   9.454  0.00  0.00    -0.101 SA
HETATM   10  C   UNK N   1      34.674  15.442  10.354  0.00  0.00     0.050 A 
HETATM   11  C   UNK N   1      35.084  16.722   9.961  0.00  0.00     0.008 A 
HETATM   12  C   UNK N   1      34.263  17.314   8.961  0.00  0.00     0.020 A 
ENDBRANCH   2   8
BRANCH   1  13
HETATM   13  C   UNK N   1      29.624  17.794   7.521  0.00  0.00     0.241 C 
HETATM   14  C   UNK N   1      28.795  16.834   6.686  0.00  0.00     0.047 C 
BRANCH  13  15
HETATM   15  N   UNK N   1      28.822  18.361   8.621  0.00  0.00     0.087 N 
HETATM   16  C   UNK N   1      29.696  18.705   9.737  0.00  0.00     0.310 C 
HETATM   17  C   UNK N   1      27.925  17.341   9.148  0.00  0.00     0.310 C 
ENDBRANCH  13  15
ENDBRANCH   1  13
TORSDOF 4
ENDMDL
MODEL 3
REMARK VINA RESULT:      -5.0      2.771      6.209
REMARK  4 active torsions:
REMARK  status: ('A' for Active; 'I' for Inactive)
REMARK    1  A    between atoms: N_3  and  C_4 
REMARK    2  A    between atoms: C_4  and  C_5 
REMARK    3  A    between atoms: C_6  and  C_10 
REMARK    4  A    between atoms: C_6  and  C_11 
ROOT
HETATM    1  C   UNK N   1      31.624  17.036   6.077  0.00  0.00     0.022 C 
HETATM    2  C   UNK N   1      30.266  16.965   6.186  0.00  0.00    -0.004 C 
ENDROOT
BRANCH   2   3
HETATM    3  C   UNK N   1      29.335  16.436   5.129  0.00  0.00     0.016 A 
HETATM    4  S   UNK N   1      28.789  14.867   4.999  0.00  0.00    -0.101 SA
HETATM    5  C   UNK N   1      27.823  14.983   3.661  0.00  0.00     0.050 A 
HETATM    6  C   UNK N   1      27.895  16.319   3.259  0.00  0.00     0.008 A 
HETATM    7  C   UNK N   1      28.737  17.122   4.075  0.00  0.00     0.020 A 
ENDBRANCH   2   3
BRANCH   2   8
HETATM    8  C   UNK N   1      29.712  17.436   7.493  0.00  0.00     0.016 A 
HETATM    9  S   UNK N   1      30.583  18.082   8.752  0.00  0.00    -0.101 SA
HETATM   10  C   UNK N   1      29.364  18.399   9.831  0.00  0.00     0.050 A 
HETATM   11  C   UNK N   1      28.182  17.991   9.203  0.00  0.00     0.008 A 
HETATM   12  C   UNK N   1      28.370  17.457   7.898  0.00  0.00     0.020 A 
ENDBRANCH   2   8
BRANCH   1  13
HETATM   13  C   UNK N   1      32.738  16.700   5.086  0.00  0.00     0.241 C 
HETATM   14  C   UNK N   1      32.667  17.359   3.719  0.00  0.00     0.047 C 
BRANCH  13  15
HETATM   15  N   UNK N   1      34.071  16.885   5.689  0.00  0.00     0.087 N 
HETATM   16  C   UNK N   1      34.642  15.584   6.019  0.00  0.00     0.310 C 
HETATM   17  C   UNK N   1      33.939  17.572   6.966  0.00  0.00     0.310 C 
ENDBRANCH  13  15
ENDBRANCH   1  13
TORSDOF 4
ENDMDL
MODEL 4
REMARK VINA RESULT:      -4.9     12.751     15.376
REMARK  4 active torsions:
REMARK  status: ('A' for Active; 'I' for Inactive)
REMARK    1  A    between atoms: N_3  and  C_4 
REMARK    2  A    between atoms: C_4  and  C_5 
REMARK    3  A    between atoms: C_6  and  C_10 
REMARK    4  A    between atoms: C_6  and  C_11 
ROOT
HETATM    1  C   UNK N   1      27.988  25.777  -4.692  0.00  0.00     0.022 C 
HETATM    2  C   UNK N   1      28.141  24.435  -4.888  0.00  0.00    -0.004 C 
ENDROOT
BRANCH   2   3
HETATM    3  C   UNK N   1      27.337  23.600  -5.848  0.00  0.00     0.016 A 
HETATM    4  S   UNK N   1      27.951  22.627  -7.052  0.00  0.00    -0.101 SA
HETATM    5  C   UNK N   1      26.557  22.012  -7.698  0.00  0.00     0.050 A 
HETATM    6  C   UNK N   1      25.518  22.571  -6.951  0.00  0.00     0.008 A 
HETATM    7  C   UNK N   1      25.954  23.454  -5.925  0.00  0.00     0.020 A 
ENDBRANCH   2   3
BRANCH   2   8
HETATM    8  C   UNK N   1      29.227  23.798  -4.081  0.00  0.00     0.016 A 
HETATM    9  S   UNK N   1      30.801  23.571  -4.561  0.00  0.00    -0.101 SA
HETATM   10  C   UNK N   1      31.431  22.858  -3.202  0.00  0.00     0.050 A 
HETATM   11  C   UNK N   1      30.374  22.777  -2.288  0.00  0.00     0.008 A 
HETATM   12  C   UNK N   1      29.144  23.303  -2.772  0.00  0.00     0.020 A 
ENDBRANCH   2   8
BRANCH   1  13
HETATM   13  C   UNK N   1      27.145  26.946  -5.200  0.00  0.00     0.241 C 
HETATM   14  C   UNK N   1      27.054  27.129  -6.705  0.00  0.00     0.047 C 
BRANCH  13  15
HETATM   15  N   UNK N   1      25.803  26.949  -4.589  0.00  0.00     0.087 N 
HETATM   16  C   UNK N   1      24.793  27.099  -5.630  0.00  0.00     0.310 C 
HETATM   17  C   UNK N   1      25.652  28.127  -3.746  0.00  0.00     0.310 C 
ENDBRANCH  13  15
ENDBRANCH   1  13
TORSDOF 4
ENDMDL
MODEL 5
REMARK VINA RESULT:      -4.9      2.076      4.524
REMARK  4 active torsions:
REMARK  status: ('A' for Active; 'I' for Inactive)
REMARK    1  A    between atoms: N_3  and  C_4 
REMARK    2  A    between atoms: C_4  and  C_5 
REMARK    3  A    between atoms: C_6  and  C_10 
REMARK    4  A    between atoms: C_6  and  C_11 
ROOT
HETATM    1  C   UNK N   1      32.215  17.183   6.063  0.00  0.00     0.022 C 
HETATM    2  C   UNK N   1      31.951  17.037   7.394  0.00  0.00    -0.004 C 
ENDROOT
BRANCH   2   3
HETATM    3  C   UNK N   1      32.929  16.546   8.426  0.00  0.00     0.016 A 
HETATM    4  S   UNK N   1      34.335  17.312   8.886  0.00  0.00    -0.101 SA
HETATM    5  C   UNK N   1      34.903  16.261  10.031  0.00  0.00     0.050 A 
HETATM    6  C   UNK N   1      33.961  15.231  10.097  0.00  0.00     0.008 A 
HETATM    7  C   UNK N   1      32.867  15.392   9.203  0.00  0.00     0.020 A 
ENDBRANCH   2   3
BRANCH   2   8
HETATM    8  C   UNK N   1      30.572  17.438   7.812  0.00  0.00     0.016 A 
HETATM    9  S   UNK N   1      30.178  18.355   9.140  0.00  0.00    -0.101 SA
HETATM   10  C   UNK N   1      28.529  18.430   8.977  0.00  0.00     0.050 A 
HETATM   11  C   UNK N   1      28.226  17.706   7.818  0.00  0.00     0.008 A 
HETATM   12  C   UNK N   1      29.363  17.154   7.163  0.00  0.00     0.020 A 
ENDBRANCH   2   8
BRANCH   1  13
HETATM   13  C   UNK N   1      33.363  17.001   5.070  0.00  0.00     0.241 C 
HETATM   14  C   UNK N   1      34.278  15.809   5.285  0.00  0.00     0.047 C 
BRANCH  13  15
HETATM   15  N   UNK N   1      32.884  17.052   3.676  0.00  0.00     0.087 N 
HETATM   16  C   UNK N   1      31.431  16.936   3.654  0.00  0.00     0.310 C 
HETATM   17  C   UNK N   1      33.365  15.883   2.952  0.00  0.00     0.310 C 
ENDBRANCH  13  15
ENDBRANCH   1  13
TORSDOF 4
ENDMDL
MODEL 6
REMARK VINA RESULT:      -4.9      2.372      4.895
REMARK  4 active torsions:
REMARK  status: ('A' for Active; 'I' for Inactive)
REMARK    1  A    between atoms: N_3  and  C_4 
REMARK    2  A    between atoms: C_4  and  C_5 
REMARK    3  A    between atoms: C_6  and  C_10 
REMARK    4  A    between atoms: C_6  and  C_11 
ROOT
HETATM    1  C   UNK N   1      31.109  16.805   5.833  0.00  0.00     0.022 C 
HETATM    2  C   UNK N   1      31.309  17.146   7.139  0.00  0.00    -0.004 C 
ENDROOT
BRANCH   2   3
HETATM    3  C   UNK N   1      32.647  17.219   7.823  0.00  0.00     0.016 A 
HETATM    4  S   UNK N   1      33.331  16.031   8.769  0.00  0.00    -0.101 SA
HETATM    5  C   UNK N   1      34.766  16.745   9.180  0.00  0.00     0.050 A 
HETATM    6  C   UNK N   1      34.758  17.993   8.553  0.00  0.00     0.008 A 
HETATM    7  C   UNK N   1      33.579  18.254   7.801  0.00  0.00     0.020 A 
ENDBRANCH   2   3
BRANCH   2   8
HETATM    8  C   UNK N   1      30.069  17.494   7.899  0.00  0.00     0.016 A 
HETATM    9  S   UNK N   1      28.673  18.128   7.259  0.00  0.00    -0.101 SA
HETATM   10  C   UNK N   1      27.735  18.231   8.623  0.00  0.00     0.050 A 
HETATM   11  C   UNK N   1      28.528  17.745   9.670  0.00  0.00     0.008 A 
HETATM   12  C   UNK N   1      29.829  17.330   9.269  0.00  0.00     0.020 A 
ENDBRANCH   2   8
BRANCH   1  13
HETATM   13  C   UNK N   1      31.906  16.407   4.591  0.00  0.00     0.241 C 
HETATM   14  C   UNK N   1      32.811  17.465   3.985  0.00  0.00     0.047 C 
BRANCH  13  15
HETATM   15  N   UNK N   1      32.640  15.146   4.801  0.00  0.00     0.087 N 
HETATM   16  C   UNK N   1      34.066  15.424   4.921  0.00  0.00     0.310 C 
HETATM   17  C   UNK N   1      32.519  14.306   3.617  0.00  0.00     0.310 C 
ENDBRANCH  13  15
ENDBRANCH   1  13
TORSDOF 4
ENDMDL
MODEL 7
REMARK VINA RESULT:      -4.9      2.293      5.574
REMARK  4 active torsions:
REMARK  status: ('A' for Active; 'I' for Inactive)
REMARK    1  A    between atoms: N_3  and  C_4 
REMARK    2  A    between atoms: C_4  and  C_5 
REMARK    3  A    between atoms: C_6  and  C_10 
REMARK    4  A    between atoms: C_6  and  C_11 
ROOT
HETATM    1  C   UNK N   1      32.834  16.982   8.159  0.00  0.00     0.022 C 
HETATM    2  C   UNK N   1      31.895  17.078   7.173  0.00  0.00    -0.004 C 
ENDROOT
BRANCH   2   3
HETATM    3  C   UNK N   1      32.130  16.780   5.717  0.00  0.00     0.016 A 
HETATM    4  S   UNK N   1      31.831  15.331   4.952  0.00  0.00    -0.101 SA
HETATM    5  C   UNK N   1      32.292  15.693   3.405  0.00  0.00     0.050 A 
HETATM    6  C   UNK N   1      32.707  17.027   3.438  0.00  0.00     0.008 A 
HETATM    7  C   UNK N   1      32.618  17.627   4.724  0.00  0.00     0.020 A 
ENDBRANCH   2   3
BRANCH   2   8
HETATM    8  C   UNK N   1      30.533  17.488   7.635  0.00  0.00     0.016 A 
HETATM    9  S   UNK N   1      30.181  18.327   9.025  0.00  0.00    -0.101 SA
HETATM   10  C   UNK N   1      28.533  18.457   8.891  0.00  0.00     0.050 A 
HETATM   11  C   UNK N   1      28.196  17.817   7.692  0.00  0.00     0.008 A 
HETATM   12  C   UNK N   1      29.309  17.279   6.987  0.00  0.00     0.020 A 
ENDBRANCH   2   8
BRANCH   1  13
HETATM   13  C   UNK N   1      34.302  16.602   8.344  0.00  0.00     0.241 C 
HETATM   14  C   UNK N   1      34.922  16.881   9.702  0.00  0.00     0.047 C 
BRANCH  13  15
HETATM   15  N   UNK N   1      34.556  15.210   7.928  0.00  0.00     0.087 N 
HETATM   16  C   UNK N   1      35.448  14.568   8.886  0.00  0.00     0.310 C 
HETATM   17  C   UNK N   1      35.289  15.201   6.670  0.00  0.00     0.310 C 
ENDBRANCH  13  15
ENDBRANCH   1  13
TORSDOF 4
ENDMDL
MODEL 8
REMARK VINA RESULT:      -4.9     13.015     15.962
REMARK  4 active torsions:
REMARK  status: ('A' for Active; 'I' for Inactive)
REMARK    1  A    between atoms: N_3  and  C_4 
REMARK    2  A    between atoms: C_4  and  C_5 
REMARK    3  A    between atoms: C_6  and  C_10 
REMARK    4  A    between atoms: C_6  and  C_11 
ROOT
HETATM    1  C   UNK N   1      28.233  23.813  -5.097  0.00  0.00     0.022 C 
HETATM    2  C   UNK N   1      27.055  24.030  -5.751  0.00  0.00    -0.004 C 
ENDROOT
BRANCH   2   3
HETATM    3  C   UNK N   1      26.429  23.093  -6.748  0.00  0.00     0.016 A 
HETATM    4  S   UNK N   1      27.004  22.759  -8.275  0.00  0.00    -0.101 SA
HETATM    5  C   UNK N   1      25.873  21.674  -8.805  0.00  0.00     0.050 A 
HETATM    6  C   UNK N   1      24.970  21.526  -7.749  0.00  0.00     0.008 A 
HETATM    7  C   UNK N   1      25.280  22.317  -6.609  0.00  0.00     0.020 A 
ENDBRANCH   2   3
BRANCH   2   8
HETATM    8  C   UNK N   1      26.357  25.302  -5.390  0.00  0.00     0.016 A 
HETATM    9  S   UNK N   1      26.575  26.179  -3.996  0.00  0.00    -0.101 SA
HETATM   10  C   UNK N   1      25.536  27.443  -4.268  0.00  0.00     0.050 A 
HETATM   11  C   UNK N   1      24.963  27.203  -5.523  0.00  0.00     0.008 A 
HETATM   12  C   UNK N   1      25.421  26.013  -6.154  0.00  0.00     0.020 A 
ENDBRANCH   2   8
BRANCH   1  13
HETATM   13  C   UNK N   1      29.337  22.762  -4.991  0.00  0.00     0.241 C 
HETATM   14  C   UNK N   1      30.285  22.636  -6.171  0.00  0.00     0.047 C 
BRANCH  13  15
HETATM   15  N   UNK N   1      30.087  22.892  -3.728  0.00  0.00     0.087 N 
HETATM   16  C   UNK N   1      30.682  21.607  -3.378  0.00  0.00     0.310 C 
HETATM   17  C   UNK N   1      29.164  23.186  -2.640  0.00  0.00     0.310 C 
ENDBRANCH  13  15
ENDBRANCH   1  13
TORSDOF 4
ENDMDL
MODEL 9
REMARK VINA RESULT:      -4.9      2.090      5.011
REMARK  4 active torsions:
REMARK  status: ('A' for Active; 'I' for Inactive)
REMARK    1  A    between atoms: N_3  and  C_4 
REMARK    2  A    between atoms: C_4  and  C_5 
REMARK    3  A    between atoms: C_6  and  C_10 
REMARK    4  A    between atoms: C_6  and  C_11 
ROOT
HETATM    1  C   UNK N   1      32.322  16.954   6.187  0.00  0.00     0.022 C 
HETATM    2  C   UNK N   1      31.985  17.084   7.504  0.00  0.00    -0.004 C 
ENDROOT
BRANCH   2   3
HETATM    3  C   UNK N   1      30.654  17.561   8.017  0.00  0.00     0.016 A 
HETATM    4  S   UNK N   1      29.162  17.155   7.397  0.00  0.00    -0.101 SA
HETATM    5  C   UNK N   1      28.162  17.997   8.412  0.00  0.00     0.050 A 
HETATM    6  C   UNK N   1      29.005  18.647   9.316  0.00  0.00     0.008 A 
HETATM    7  C   UNK N   1      30.388  18.405   9.093  0.00  0.00     0.020 A 
ENDBRANCH   2   3
BRANCH   2   8
HETATM    8  C   UNK N   1      33.051  16.680   8.472  0.00  0.00     0.016 A 
HETATM    9  S   UNK N   1      33.144  15.231   9.278  0.00  0.00    -0.101 SA
HETATM   10  C   UNK N   1      34.549  15.450  10.132  0.00  0.00     0.050 A 
HETATM   11  C   UNK N   1      35.009  16.727   9.790  0.00  0.00     0.008 A 
HETATM   12  C   UNK N   1      34.178  17.415   8.862  0.00  0.00     0.020 A 
ENDBRANCH   2   8
BRANCH   1  13
HETATM   13  C   UNK N   1      31.715  17.146   4.799  0.00  0.00     0.241 C 
HETATM   14  C   UNK N   1      32.657  17.570   3.686  0.00  0.00     0.047 C 
BRANCH  13  15
HETATM   15  N   UNK N   1      30.916  15.975   4.392  0.00  0.00     0.087 N 
HETATM   16  C   UNK N   1      31.803  14.855   4.101  0.00  0.00     0.310 C 
HETATM   17  C   UNK N   1      30.241  16.257   3.133  0.00  0.00     0.310 C 
ENDBRANCH  13  15
ENDBRANCH   1  13
TORSDOF 4
ENDMDL
