MODEL 1
REMARK VINA RESULT:      -5.4      0.000      0.000
REMARK  4 active torsions:
REMARK  status: ('A' for Active; 'I' for Inactive)
REMARK    1  A    between atoms: O_1  and  C_12 
REMARK    2  A    between atoms: N_2  and  C_7 
REMARK    3  A    between atoms: C_4  and  C_5 
REMARK    4  A    between atoms: C_4  and  C_7 
ROOT
HETATM    1  N   UNK N   1      25.446  24.465  -5.966  0.00  0.00    -0.365 N 
HETATM    2  C   UNK N   1      26.751  24.364  -4.141  0.00  0.00    -0.029 A 
HETATM    3  C   UNK N   1      26.278  25.645  -4.260  0.00  0.00     0.001 A 
HETATM    4  C   UNK N   1      25.487  25.673  -5.372  0.00  0.00     0.043 A 
HETATM    5  C   UNK N   1      26.223  23.646  -5.209  0.00  0.00     0.096 A 
HETATM    6  C   UNK N   1      26.471  26.772  -3.464  0.00  0.00     0.050 A 
HETATM    7  C   UNK N   1      24.822  26.829  -5.771  0.00  0.00     0.033 A 
HETATM    8  C   UNK N   1      25.820  27.960  -3.841  0.00  0.00     0.066 A 
HETATM    9  C   UNK N   1      24.995  27.987  -4.990  0.00  0.00     0.039 A 
HETATM   10  H   UNK N   1      24.952  24.224  -6.783  0.00  0.00     0.165 HD
ENDROOT
BRANCH   2  11
HETATM   11  C   UNK N   1      27.603  23.840  -3.032  0.00  0.00     0.071 C 
BRANCH  11  12
HETATM   12  C   UNK N   1      29.091  23.943  -3.323  0.00  0.00     0.276 C 
BRANCH  12  13
HETATM   13  N   UNK N   1      29.652  22.602  -3.405  0.00  0.00     0.080 N 
HETATM   14  C   UNK N   1      30.002  22.350  -4.791  0.00  0.00     0.309 C 
HETATM   15  C   UNK N   1      30.889  22.587  -2.643  0.00  0.00     0.309 C 
ENDBRANCH  12  13
ENDBRANCH  11  12
ENDBRANCH   2  11
BRANCH   8  16
HETATM   16  O   UNK N   1      25.981  29.072  -3.105  0.00  0.00    -0.361 OA
HETATM   17  H   UNK N   1      26.496  29.781  -3.434  0.00  0.00     0.217 HD
ENDBRANCH   8  16
TORSDOF 4
ENDMDL
MODEL 2
REMARK VINA RESULT:      -5.2     17.407     19.184
REMARK  4 active torsions:
REMARK  status: ('A' for Active; 'I' for Inactive)
REMARK    1  A    between atoms: O_1  and  C_12 
REMARK    2  A    between atoms: N_2  and  C_7 
REMARK    3  A    between atoms: C_4  and  C_5 
REMARK    4  A    between atoms: C_4  and  C_7 
ROOT
HETATM    1  N   UNK N   1      24.344  13.660   8.150  0.00  0.00    -0.365 N 
HETATM    2  C   UNK N   1      22.124  13.770   8.477  0.00  0.00    -0.029 A 
HETATM    3  C   UNK N   1      22.685  13.129   9.550  0.00  0.00     0.001 A 
HETATM    4  C   UNK N   1      24.030  13.081   9.325  0.00  0.00     0.043 A 
HETATM    5  C   UNK N   1      23.170  14.093   7.618  0.00  0.00     0.096 A 
HETATM    6  C   UNK N   1      22.112  12.605  10.707  0.00  0.00     0.050 A 
HETATM    7  C   UNK N   1      24.909  12.513  10.242  0.00  0.00     0.033 A 
HETATM    8  C   UNK N   1      22.969  12.016  11.654  0.00  0.00     0.066 A 
HETATM    9  C   UNK N   1      24.364  11.973  11.423  0.00  0.00     0.039 A 
HETATM   10  H   UNK N   1      25.241  13.752   7.756  0.00  0.00     0.165 HD
ENDROOT
BRANCH   2  11
HETATM   11  C   UNK N   1      20.680  14.117   8.313  0.00  0.00     0.071 C 
BRANCH  11  12
HETATM   12  C   UNK N   1      20.299  15.419   8.996  0.00  0.00     0.276 C 
BRANCH  12  13
HETATM   13  N   UNK N   1      19.571  16.254   8.051  0.00  0.00     0.080 N 
HETATM   14  C   UNK N   1      18.693  17.124   8.812  0.00  0.00     0.309 C 
HETATM   15  C   UNK N   1      20.534  17.106   7.373  0.00  0.00     0.309 C 
ENDBRANCH  12  13
ENDBRANCH  11  12
ENDBRANCH   2  11
BRANCH   8  16
HETATM   16  O   UNK N   1      22.461  11.495  12.782  0.00  0.00    -0.361 OA
HETATM   17  H   UNK N   1      22.071  10.643  12.771  0.00  0.00     0.217 HD
ENDBRANCH   8  16
TORSDOF 4
ENDMDL
MODEL 3
REMARK VINA RESULT:      -5.2     11.309     13.308
REMARK  4 active torsions:
REMARK  status: ('A' for Active; 'I' for Inactive)
REMARK    1  A    between atoms: O_1  and  C_12 
REMARK    2  A    between atoms: N_2  and  C_7 
REMARK    3  A    between atoms: C_4  and  C_5 
REMARK    4  A    between atoms: C_4  and  C_7 
ROOT
HETATM    1  N   UNK N   1      27.744  19.046   8.689  0.00  0.00    -0.365 N 
HETATM    2  C   UNK N   1      28.959  17.678   7.386  0.00  0.00    -0.029 A 
HETATM    3  C   UNK N   1      28.365  18.619   6.586  0.00  0.00     0.001 A 
HETATM    4  C   UNK N   1      27.640  19.435   7.404  0.00  0.00     0.043 A 
HETATM    5  C   UNK N   1      28.561  17.960   8.689  0.00  0.00     0.096 A 
HETATM    6  C   UNK N   1      28.428  18.822   5.209  0.00  0.00     0.050 A 
HETATM    7  C   UNK N   1      26.926  20.523   6.911  0.00  0.00     0.033 A 
HETATM    8  C   UNK N   1      27.712  19.909   4.674  0.00  0.00     0.066 A 
HETATM    9  C   UNK N   1      26.966  20.759   5.524  0.00  0.00     0.039 A 
HETATM   10  H   UNK N   1      27.315  19.464   9.471  0.00  0.00     0.165 HD
ENDROOT
BRANCH   2  11
HETATM   11  C   UNK N   1      29.906  16.613   6.940  0.00  0.00     0.071 C 
BRANCH  11  12
HETATM   12  C   UNK N   1      31.327  17.120   6.752  0.00  0.00     0.276 C 
BRANCH  12  13
HETATM   13  N   UNK N   1      31.922  17.357   8.059  0.00  0.00     0.080 N 
HETATM   14  C   UNK N   1      32.167  16.067   8.676  0.00  0.00     0.309 C 
HETATM   15  C   UNK N   1      33.216  17.985   7.853  0.00  0.00     0.309 C 
ENDBRANCH  12  13
ENDBRANCH  11  12
ENDBRANCH   2  11
BRANCH   8  16
HETATM   16  O   UNK N   1      27.740  20.141   3.352  0.00  0.00    -0.361 OA
HETATM   17  H   UNK N   1      28.552  20.336   2.927  0.00  0.00     0.217 HD
ENDBRANCH   8  16
TORSDOF 4
ENDMDL
MODEL 4
REMARK VINA RESULT:      -5.1     14.024     15.397
REMARK  4 active torsions:
REMARK  status: ('A' for Active; 'I' for Inactive)
REMARK    1  A    between atoms: O_1  and  C_12 
REMARK    2  A    between atoms: N_2  and  C_7 
REMARK    3  A    between atoms: C_4  and  C_5 
REMARK    4  A    between atoms: C_4  and  C_7 
ROOT
HETATM    1  N   UNK N   1      31.082  16.462   5.623  0.00  0.00    -0.365 N 
HETATM    2  C   UNK N   1      31.930  17.468   7.444  0.00  0.00    -0.029 A 
HETATM    3  C   UNK N   1      30.565  17.438   7.566  0.00  0.00     0.001 A 
HETATM    4  C   UNK N   1      30.080  16.819   6.450  0.00  0.00     0.043 A 
HETATM    5  C   UNK N   1      32.232  16.857   6.230  0.00  0.00     0.096 A 
HETATM    6  C   UNK N   1      29.725  17.892   8.581  0.00  0.00     0.050 A 
HETATM    7  C   UNK N   1      28.719  16.598   6.265  0.00  0.00     0.033 A 
HETATM    8  C   UNK N   1      28.342  17.692   8.424  0.00  0.00     0.066 A 
HETATM    9  C   UNK N   1      27.841  17.044   7.271  0.00  0.00     0.039 A 
HETATM   10  H   UNK N   1      30.998  16.007   4.754  0.00  0.00     0.165 HD
ENDROOT
BRANCH   2  11
HETATM   11  C   UNK N   1      32.894  17.989   8.459  0.00  0.00     0.071 C 
BRANCH  11  12
HETATM   12  C   UNK N   1      34.226  17.257   8.445  0.00  0.00     0.276 C 
BRANCH  12  13
HETATM   13  N   UNK N   1      34.239  16.279   9.524  0.00  0.00     0.080 N 
HETATM   14  C   UNK N   1      34.577  14.990   8.949  0.00  0.00     0.309 C 
HETATM   15  C   UNK N   1      35.313  16.634  10.436  0.00  0.00     0.309 C 
ENDBRANCH  12  13
ENDBRANCH  11  12
ENDBRANCH   2  11
BRANCH   8  16
HETATM   16  O   UNK N   1      27.494  18.116   9.375  0.00  0.00    -0.361 OA
HETATM   17  H   UNK N   1      27.275  19.025   9.436  0.00  0.00     0.217 HD
ENDBRANCH   8  16
TORSDOF 4
ENDMDL
MODEL 5
REMARK VINA RESULT:      -5.1     22.701     26.059
REMARK  4 active torsions:
REMARK  status: ('A' for Active; 'I' for Inactive)
REMARK    1  A    between atoms: O_1  and  C_12 
REMARK    2  A    between atoms: N_2  and  C_7 
REMARK    3  A    between atoms: C_4  and  C_5 
REMARK    4  A    between atoms: C_4  and  C_7 
ROOT
HETATM    1  N   UNK N   1      36.320  10.238  16.421  0.00  0.00    -0.365 N 
HETATM    2  C   UNK N   1      35.869  12.370  15.873  0.00  0.00    -0.029 A 
HETATM    3  C   UNK N   1      35.630  12.211  17.213  0.00  0.00     0.001 A 
HETATM    4  C   UNK N   1      35.916  10.911  17.516  0.00  0.00     0.043 A 
HETATM    5  C   UNK N   1      36.297  11.134  15.398  0.00  0.00     0.096 A 
HETATM    6  C   UNK N   1      35.202  13.116  18.182  0.00  0.00     0.050 A 
HETATM    7  C   UNK N   1      35.805  10.416  18.812  0.00  0.00     0.033 A 
HETATM    8  C   UNK N   1      35.071  12.649  19.503  0.00  0.00     0.066 A 
HETATM    9  C   UNK N   1      35.375  11.303  19.817  0.00  0.00     0.039 A 
HETATM   10  H   UNK N   1      36.579   9.290  16.371  0.00  0.00     0.165 HD
ENDROOT
BRANCH   2  11
HETATM   11  C   UNK N   1      35.761  13.646  15.104  0.00  0.00     0.071 C 
BRANCH  11  12
HETATM   12  C   UNK N   1      36.353  13.552  13.708  0.00  0.00     0.276 C 
BRANCH  12  13
HETATM   13  N   UNK N   1      35.354  13.982  12.740  0.00  0.00     0.080 N 
HETATM   14  C   UNK N   1      35.944  15.032  11.931  0.00  0.00     0.309 C 
HETATM   15  C   UNK N   1      35.080  12.863  11.854  0.00  0.00     0.309 C 
ENDBRANCH  12  13
ENDBRANCH  11  12
ENDBRANCH   2  11
BRANCH   8  16
HETATM   16  O   UNK N   1      34.658  13.485  20.468  0.00  0.00    -0.361 OA
HETATM   17  H   UNK N   1      35.275  14.040  20.904  0.00  0.00     0.217 HD
ENDBRANCH   8  16
TORSDOF 4
ENDMDL
MODEL 6
REMARK VINA RESULT:      -5.0     23.469     26.779
REMARK  4 active torsions:
REMARK  status: ('A' for Active; 'I' for Inactive)
REMARK    1  A    between atoms: O_1  and  C_12 
REMARK    2  A    between atoms: N_2  and  C_7 
REMARK    3  A    between atoms: C_4  and  C_5 
REMARK    4  A    between atoms: C_4  and  C_7 
ROOT
HETATM    1  N   UNK N   1      35.299  13.551  19.285  0.00  0.00    -0.365 N 
HETATM    2  C   UNK N   1      35.277  13.117  17.081  0.00  0.00    -0.029 A 
HETATM    3  C   UNK N   1      35.229  11.925  17.754  0.00  0.00     0.001 A 
HETATM    4  C   UNK N   1      35.239  12.220  19.087  0.00  0.00     0.043 A 
HETATM    5  C   UNK N   1      35.321  14.116  18.049  0.00  0.00     0.096 A 
HETATM    6  C   UNK N   1      35.157  10.613  17.291  0.00  0.00     0.050 A 
HETATM    7  C   UNK N   1      35.171  11.228  20.060  0.00  0.00     0.033 A 
HETATM    8  C   UNK N   1      35.095   9.583  18.247  0.00  0.00     0.066 A 
HETATM    9  C   UNK N   1      35.099   9.890  19.628  0.00  0.00     0.039 A 
HETATM   10  H   UNK N   1      35.323  14.020  20.151  0.00  0.00     0.165 HD
ENDROOT
BRANCH   2  11
HETATM   11  C   UNK N   1      35.217  13.296  15.600  0.00  0.00     0.071 C 
BRANCH  11  12
HETATM   12  C   UNK N   1      36.589  13.353  14.950  0.00  0.00     0.276 C 
BRANCH  12  13
HETATM   13  N   UNK N   1      36.435  13.238  13.506  0.00  0.00     0.080 N 
HETATM   14  C   UNK N   1      35.287  12.388  13.250  0.00  0.00     0.309 C 
HETATM   15  C   UNK N   1      36.116  14.556  12.984  0.00  0.00     0.309 C 
ENDBRANCH  12  13
ENDBRANCH  11  12
ENDBRANCH   2  11
BRANCH   8  16
HETATM   16  O   UNK N   1      35.029   8.303  17.846  0.00  0.00    -0.361 OA
HETATM   17  H   UNK N   1      35.276   7.615  18.431  0.00  0.00     0.217 HD
ENDBRANCH   8  16
TORSDOF 4
ENDMDL
MODEL 7
REMARK VINA RESULT:      -5.0     12.442     14.308
REMARK  4 active torsions:
REMARK  status: ('A' for Active; 'I' for Inactive)
REMARK    1  A    between atoms: O_1  and  C_12 
REMARK    2  A    between atoms: N_2  and  C_7 
REMARK    3  A    between atoms: C_4  and  C_5 
REMARK    4  A    between atoms: C_4  and  C_7 
ROOT
HETATM    1  N   UNK N   1      31.966  17.622   9.037  0.00  0.00    -0.365 N 
HETATM    2  C   UNK N   1      31.735  16.902   6.922  0.00  0.00    -0.029 A 
HETATM    3  C   UNK N   1      30.527  17.394   7.343  0.00  0.00     0.001 A 
HETATM    4  C   UNK N   1      30.700  17.827   8.626  0.00  0.00     0.043 A 
HETATM    5  C   UNK N   1      32.616  17.052   7.988  0.00  0.00     0.096 A 
HETATM    6  C   UNK N   1      29.304  17.508   6.686  0.00  0.00     0.050 A 
HETATM    7  C   UNK N   1      29.667  18.413   9.350  0.00  0.00     0.033 A 
HETATM    8  C   UNK N   1      28.234  18.090   7.390  0.00  0.00     0.066 A 
HETATM    9  C   UNK N   1      28.416  18.544   8.717  0.00  0.00     0.039 A 
HETATM   10  H   UNK N   1      32.345  17.841   9.920  0.00  0.00     0.165 HD
ENDROOT
BRANCH   2  11
HETATM   11  C   UNK N   1      32.047  16.382   5.557  0.00  0.00     0.071 C 
BRANCH  11  12
HETATM   12  C   UNK N   1      32.734  17.408   4.671  0.00  0.00     0.276 C 
BRANCH  12  13
HETATM   13  N   UNK N   1      32.504  17.059   3.277  0.00  0.00     0.080 N 
HETATM   14  C   UNK N   1      33.377  15.947   2.948  0.00  0.00     0.309 C 
HETATM   15  C   UNK N   1      31.138  16.580   3.155  0.00  0.00     0.309 C 
ENDBRANCH  12  13
ENDBRANCH  11  12
ENDBRANCH   2  11
BRANCH   8  16
HETATM   16  O   UNK N   1      27.035  18.216   6.797  0.00  0.00    -0.361 OA
HETATM   17  H   UNK N   1      26.267  18.346   7.317  0.00  0.00     0.217 HD
ENDBRANCH   8  16
TORSDOF 4
ENDMDL
MODEL 8
REMARK VINA RESULT:      -4.8      2.535      5.486
REMARK  4 active torsions:
REMARK  status: ('A' for Active; 'I' for Inactive)
REMARK    1  A    between atoms: O_1  and  C_12 
REMARK    2  A    between atoms: N_2  and  C_7 
REMARK    3  A    between atoms: C_4  and  C_5 
REMARK    4  A    between atoms: C_4  and  C_7 
ROOT
HETATM    1  N   UNK N   1      28.381  23.012  -6.383  0.00  0.00    -0.365 N 
HETATM    2  C   UNK N   1      27.251  24.110  -4.783  0.00  0.00    -0.029 A 
HETATM    3  C   UNK N   1      28.369  23.557  -4.216  0.00  0.00     0.001 A 
HETATM    4  C   UNK N   1      29.035  22.902  -5.211  0.00  0.00     0.043 A 
HETATM    5  C   UNK N   1      27.276  23.761  -6.130  0.00  0.00     0.096 A 
HETATM    6  C   UNK N   1      28.851  23.600  -2.910  0.00  0.00     0.050 A 
HETATM    7  C   UNK N   1      30.240  22.245  -4.980  0.00  0.00     0.033 A 
HETATM    8  C   UNK N   1      30.064  22.941  -2.637  0.00  0.00     0.066 A 
HETATM    9  C   UNK N   1      30.757  22.268  -3.671  0.00  0.00     0.039 A 
HETATM   10  H   UNK N   1      28.650  22.627  -7.249  0.00  0.00     0.165 HD
ENDROOT
BRANCH   2  11
HETATM   11  C   UNK N   1      26.251  24.980  -4.093  0.00  0.00     0.071 C 
BRANCH  11  12
HETATM   12  C   UNK N   1      26.746  26.401  -3.878  0.00  0.00     0.276 C 
BRANCH  12  13
HETATM   13  N   UNK N   1      25.799  27.328  -4.482  0.00  0.00     0.080 N 
HETATM   14  C   UNK N   1      25.911  28.594  -3.781  0.00  0.00     0.309 C 
HETATM   15  C   UNK N   1      26.215  27.562  -5.854  0.00  0.00     0.309 C 
ENDBRANCH  12  13
ENDBRANCH  11  12
ENDBRANCH   2  11
BRANCH   8  16
HETATM   16  O   UNK N   1      30.564  22.952  -1.392  0.00  0.00    -0.361 OA
HETATM   17  H   UNK N   1      31.016  23.709  -1.074  0.00  0.00     0.217 HD
ENDBRANCH   8  16
TORSDOF 4
ENDMDL
MODEL 9
REMARK VINA RESULT:      -4.8     11.934     14.219
REMARK  4 active torsions:
REMARK  status: ('A' for Active; 'I' for Inactive)
REMARK    1  A    between atoms: O_1  and  C_12 
REMARK    2  A    between atoms: N_2  and  C_7 
REMARK    3  A    between atoms: C_4  and  C_5 
REMARK    4  A    between atoms: C_4  and  C_7 
ROOT
HETATM    1  N   UNK N   1      32.203  17.175   8.264  0.00  0.00    -0.365 N 
HETATM    2  C   UNK N   1      30.127  17.357   7.424  0.00  0.00    -0.029 A 
HETATM    3  C   UNK N   1      31.015  17.357   6.380  0.00  0.00     0.001 A 
HETATM    4  C   UNK N   1      32.263  17.241   6.920  0.00  0.00     0.043 A 
HETATM    5  C   UNK N   1      30.884  17.244   8.587  0.00  0.00     0.096 A 
HETATM    6  C   UNK N   1      30.811  17.430   5.004  0.00  0.00     0.050 A 
HETATM    7  C   UNK N   1      33.404  17.182   6.127  0.00  0.00     0.033 A 
HETATM    8  C   UNK N   1      31.943  17.380   4.171  0.00  0.00     0.066 A 
HETATM    9  C   UNK N   1      33.236  17.254   4.731  0.00  0.00     0.039 A 
HETATM   10  H   UNK N   1      32.961  17.094   8.887  0.00  0.00     0.165 HD
ENDROOT
BRANCH   2  11
HETATM   11  C   UNK N   1      28.638  17.394   7.315  0.00  0.00     0.071 C 
BRANCH  11  12
HETATM   12  C   UNK N   1      28.061  18.786   7.518  0.00  0.00     0.276 C 
BRANCH  12  13
HETATM   13  N   UNK N   1      27.824  19.394   6.216  0.00  0.00     0.080 N 
HETATM   14  C   UNK N   1      27.155  18.413   5.383  0.00  0.00     0.309 C 
HETATM   15  C   UNK N   1      26.899  20.500   6.401  0.00  0.00     0.309 C 
ENDBRANCH  12  13
ENDBRANCH  11  12
ENDBRANCH   2  11
BRANCH   8  16
HETATM   16  O   UNK N   1      31.795  17.452   2.838  0.00  0.00    -0.361 OA
HETATM   17  H   UNK N   1      31.404  16.740   2.370  0.00  0.00     0.217 HD
ENDBRANCH   8  16
TORSDOF 4
ENDMDL
