MODEL 1
REMARK VINA RESULT:      -5.2      0.000      0.000
REMARK  3 active torsions:
REMARK  status: ('A' for Active; 'I' for Inactive)
REMARK    1  A    between atoms: N_2  and  C_5 
REMARK    2  A    between atoms: C_3  and  C_4 
REMARK    3  A    between atoms: C_3  and  C_5 
ROOT
HETATM    1  N   UNK N   1      29.826  17.556   4.084  0.00  0.00    -0.365 N 
HETATM    2  C   UNK N   1      29.594  17.304   6.307  0.00  0.00    -0.028 A 
HETATM    3  C   UNK N   1      30.934  17.315   6.010  0.00  0.00    -0.002 A 
HETATM    4  C   UNK N   1      31.039  17.471   4.658  0.00  0.00     0.042 A 
HETATM    5  C   UNK N   1      28.924  17.458   5.093  0.00  0.00     0.096 A 
HETATM    6  C   UNK N   1      32.058  17.212   6.827  0.00  0.00     0.014 A 
HETATM    7  C   UNK N   1      32.273  17.538   4.016  0.00  0.00     0.030 A 
HETATM    8  C   UNK N   1      33.323  17.272   6.212  0.00  0.00     0.001 A 
HETATM    9  C   UNK N   1      33.429  17.436   4.812  0.00  0.00     0.002 A 
HETATM   10  H   UNK N   1      29.630  17.668   3.125  0.00  0.00     0.165 HD
ENDROOT
BRANCH   2  11
HETATM   11  C   UNK N   1      28.994  17.207   7.683  0.00  0.00     0.065 C 
BRANCH  11  12
HETATM   12  C   UNK N   1      28.865  18.539   8.419  0.00  0.00     0.074 C 
HETATM   13  C   UNK N   1      29.885  18.656   9.538  0.00  0.00     0.032 C 
BRANCH  12  14
HETATM   14  N   UNK N   1      27.536  18.629   8.997  0.00  0.00    -0.426 N 
HETATM   15  H   UNK N   1      27.327  19.340   9.697  0.00  0.00     0.150 HD
HETATM   16  H   UNK N   1      26.808  17.979   8.701  0.00  0.00     0.150 HD
ENDBRANCH  12  14
ENDBRANCH  11  12
ENDBRANCH   2  11
TORSDOF 3
ENDMDL
MODEL 2
REMARK VINA RESULT:      -5.2     12.066     13.942
REMARK  3 active torsions:
REMARK  status: ('A' for Active; 'I' for Inactive)
REMARK    1  A    between atoms: N_2  and  C_5 
REMARK    2  A    between atoms: C_3  and  C_4 
REMARK    3  A    between atoms: C_3  and  C_5 
ROOT
HETATM    1  N   UNK N   1      35.276  13.554  19.220  0.00  0.00    -0.365 N 
HETATM    2  C   UNK N   1      35.268  13.091  17.019  0.00  0.00    -0.028 A 
HETATM    3  C   UNK N   1      35.231  11.906  17.710  0.00  0.00    -0.002 A 
HETATM    4  C   UNK N   1      35.236  12.222  19.039  0.00  0.00     0.042 A 
HETATM    5  C   UNK N   1      35.293  14.102  17.978  0.00  0.00     0.096 A 
HETATM    6  C   UNK N   1      35.184  10.584  17.270  0.00  0.00     0.014 A 
HETATM    7  C   UNK N   1      35.191  11.246  20.030  0.00  0.00     0.030 A 
HETATM    8  C   UNK N   1      35.140   9.570  18.245  0.00  0.00     0.001 A 
HETATM    9  C   UNK N   1      35.142   9.900  19.620  0.00  0.00     0.002 A 
HETATM   10  H   UNK N   1      35.290  14.035  20.079  0.00  0.00     0.165 HD
ENDROOT
BRANCH   2  11
HETATM   11  C   UNK N   1      35.226  13.243  15.523  0.00  0.00     0.065 C 
BRANCH  11  12
HETATM   12  C   UNK N   1      36.500  13.809  14.901  0.00  0.00     0.074 C 
HETATM   13  C   UNK N   1      36.229  14.417  13.535  0.00  0.00     0.032 C 
BRANCH  12  14
HETATM   14  N   UNK N   1      37.464  12.735  14.743  0.00  0.00    -0.426 N 
HETATM   15  H   UNK N   1      38.029  12.670  13.897  0.00  0.00     0.150 HD
HETATM   16  H   UNK N   1      37.577  12.041  15.483  0.00  0.00     0.150 HD
ENDBRANCH  12  14
ENDBRANCH  11  12
ENDBRANCH   2  11
TORSDOF 3
ENDMDL
MODEL 3
REMARK VINA RESULT:      -5.1     11.856     13.559
REMARK  3 active torsions:
REMARK  status: ('A' for Active; 'I' for Inactive)
REMARK    1  A    between atoms: N_2  and  C_5 
REMARK    2  A    between atoms: C_3  and  C_4 
REMARK    3  A    between atoms: C_3  and  C_5 
ROOT
HETATM    1  N   UNK N   1      35.492   9.941  16.650  0.00  0.00    -0.365 N 
HETATM    2  C   UNK N   1      35.356  12.080  15.967  0.00  0.00    -0.028 A 
HETATM    3  C   UNK N   1      35.299  12.060  17.337  0.00  0.00    -0.002 A 
HETATM    4  C   UNK N   1      35.386  10.751  17.719  0.00  0.00     0.042 A 
HETATM    5  C   UNK N   1      35.479  10.751  15.561  0.00  0.00     0.096 A 
HETATM    6  C   UNK N   1      35.189  13.090  18.269  0.00  0.00     0.014 A 
HETATM    7  C   UNK N   1      35.372  10.369  19.057  0.00  0.00     0.030 A 
HETATM    8  C   UNK N   1      35.169  12.740  19.633  0.00  0.00     0.001 A 
HETATM    9  C   UNK N   1      35.262  11.385  20.025  0.00  0.00     0.002 A 
HETATM   10  H   UNK N   1      35.566   8.959  16.656  0.00  0.00     0.165 HD
ENDROOT
BRANCH   2  11
HETATM   11  C   UNK N   1      35.349  13.309  15.100  0.00  0.00     0.065 C 
BRANCH  11  12
HETATM   12  C   UNK N   1      36.733  13.847  14.742  0.00  0.00     0.074 C 
HETATM   13  C   UNK N   1      37.175  14.930  15.712  0.00  0.00     0.032 C 
BRANCH  12  14
HETATM   14  N   UNK N   1      36.686  14.416  13.407  0.00  0.00    -0.426 N 
HETATM   15  H   UNK N   1      36.142  15.260  13.227  0.00  0.00     0.150 HD
HETATM   16  H   UNK N   1      37.199  13.970  12.646  0.00  0.00     0.150 HD
ENDBRANCH  12  14
ENDBRANCH  11  12
ENDBRANCH   2  11
TORSDOF 3
ENDMDL
MODEL 4
REMARK VINA RESULT:      -5.0      2.376      4.649
REMARK  3 active torsions:
REMARK  status: ('A' for Active; 'I' for Inactive)
REMARK    1  A    between atoms: N_2  and  C_5 
REMARK    2  A    between atoms: C_3  and  C_4 
REMARK    3  A    between atoms: C_3  and  C_5 
ROOT
HETATM    1  N   UNK N   1      27.366  19.541   8.309  0.00  0.00    -0.365 N 
HETATM    2  C   UNK N   1      28.843  18.121   7.381  0.00  0.00    -0.028 A 
HETATM    3  C   UNK N   1      28.276  18.869   6.381  0.00  0.00    -0.002 A 
HETATM    4  C   UNK N   1      27.388  19.719   6.976  0.00  0.00     0.042 A 
HETATM    5  C   UNK N   1      28.264  18.558   8.572  0.00  0.00     0.096 A 
HETATM    6  C   UNK N   1      28.483  18.871   5.002  0.00  0.00     0.014 A 
HETATM    7  C   UNK N   1      26.641  20.638   6.244  0.00  0.00     0.030 A 
HETATM    8  C   UNK N   1      27.742  19.786   4.230  0.00  0.00     0.001 A 
HETATM    9  C   UNK N   1      26.826  20.667   4.849  0.00  0.00     0.002 A 
HETATM   10  H   UNK N   1      26.811  20.025   8.962  0.00  0.00     0.165 HD
ENDROOT
BRANCH   2  11
HETATM   11  C   UNK N   1      29.920  17.085   7.208  0.00  0.00     0.065 C 
BRANCH  11  12
HETATM   12  C   UNK N   1      31.249  17.426   7.879  0.00  0.00     0.074 C 
HETATM   13  C   UNK N   1      32.417  17.226   6.929  0.00  0.00     0.032 C 
BRANCH  12  14
HETATM   14  N   UNK N   1      31.433  16.554   9.026  0.00  0.00    -0.426 N 
HETATM   15  H   UNK N   1      31.137  15.579   8.983  0.00  0.00     0.150 HD
HETATM   16  H   UNK N   1      31.861  16.918   9.877  0.00  0.00     0.150 HD
ENDBRANCH  12  14
ENDBRANCH  11  12
ENDBRANCH   2  11
TORSDOF 3
ENDMDL
MODEL 5
REMARK VINA RESULT:      -5.0     10.891     12.125
REMARK  3 active torsions:
REMARK  status: ('A' for Active; 'I' for Inactive)
REMARK    1  A    between atoms: N_2  and  C_5 
REMARK    2  A    between atoms: C_3  and  C_4 
REMARK    3  A    between atoms: C_3  and  C_5 
ROOT
HETATM    1  N   UNK N   1      36.826  13.348  14.338  0.00  0.00    -0.365 N 
HETATM    2  C   UNK N   1      35.441  13.170  16.101  0.00  0.00    -0.028 A 
HETATM    3  C   UNK N   1      35.017  12.300  15.129  0.00  0.00    -0.002 A 
HETATM    4  C   UNK N   1      35.877  12.431  14.076  0.00  0.00     0.042 A 
HETATM    5  C   UNK N   1      36.570  13.809  15.588  0.00  0.00     0.096 A 
HETATM    6  C   UNK N   1      33.952  11.402  15.098  0.00  0.00     0.014 A 
HETATM    7  C   UNK N   1      35.744  11.677  12.914  0.00  0.00     0.030 A 
HETATM    8  C   UNK N   1      33.784  10.624  13.937  0.00  0.00     0.001 A 
HETATM    9  C   UNK N   1      34.678  10.760  12.850  0.00  0.00     0.002 A 
HETATM   10  H   UNK N   1      37.560  13.628  13.743  0.00  0.00     0.165 HD
ENDROOT
BRANCH   2  11
HETATM   11  C   UNK N   1      34.830  13.337  17.465  0.00  0.00     0.065 C 
BRANCH  11  12
HETATM   12  C   UNK N   1      35.564  12.605  18.588  0.00  0.00     0.074 C 
HETATM   13  C   UNK N   1      35.232  11.123  18.593  0.00  0.00     0.032 C 
BRANCH  12  14
HETATM   14  N   UNK N   1      35.159  13.173  19.861  0.00  0.00    -0.426 N 
HETATM   15  H   UNK N   1      34.886  12.563  20.633  0.00  0.00     0.150 HD
HETATM   16  H   UNK N   1      35.147  14.185  19.986  0.00  0.00     0.150 HD
ENDBRANCH  12  14
ENDBRANCH  11  12
ENDBRANCH   2  11
TORSDOF 3
ENDMDL
MODEL 6
REMARK VINA RESULT:      -4.8      6.923      8.750
REMARK  3 active torsions:
REMARK  status: ('A' for Active; 'I' for Inactive)
REMARK    1  A    between atoms: N_2  and  C_5 
REMARK    2  A    between atoms: C_3  and  C_4 
REMARK    3  A    between atoms: C_3  and  C_5 
ROOT
HETATM    1  N   UNK N   1      23.764  17.760   5.310  0.00  0.00    -0.365 N 
HETATM    2  C   UNK N   1      22.254  19.013   4.211  0.00  0.00    -0.028 A 
HETATM    3  C   UNK N   1      23.509  19.421   3.836  0.00  0.00    -0.002 A 
HETATM    4  C   UNK N   1      24.399  18.642   4.518  0.00  0.00     0.042 A 
HETATM    5  C   UNK N   1      22.437  17.976   5.126  0.00  0.00     0.096 A 
HETATM    6  C   UNK N   1      23.928  20.406   2.944  0.00  0.00     0.014 A 
HETATM    7  C   UNK N   1      25.775  18.783   4.362  0.00  0.00     0.030 A 
HETATM    8  C   UNK N   1      25.313  20.579   2.763  0.00  0.00     0.001 A 
HETATM    9  C   UNK N   1      26.233  19.770   3.468  0.00  0.00     0.002 A 
HETATM   10  H   UNK N   1      24.177  17.092   5.904  0.00  0.00     0.165 HD
ENDROOT
BRANCH   2  11
HETATM   11  C   UNK N   1      20.953  19.549   3.677  0.00  0.00     0.065 C 
BRANCH  11  12
HETATM   12  C   UNK N   1      20.548  19.000   2.310  0.00  0.00     0.074 C 
HETATM   13  C   UNK N   1      20.720  20.044   1.220  0.00  0.00     0.032 C 
BRANCH  12  14
HETATM   14  N   UNK N   1      19.151  18.609   2.357  0.00  0.00    -0.426 N 
HETATM   15  H   UNK N   1      18.437  19.282   2.639  0.00  0.00     0.150 HD
HETATM   16  H   UNK N   1      18.881  17.658   2.105  0.00  0.00     0.150 HD
ENDBRANCH  12  14
ENDBRANCH  11  12
ENDBRANCH   2  11
TORSDOF 3
ENDMDL
MODEL 7
REMARK VINA RESULT:      -4.8      2.892      3.919
REMARK  3 active torsions:
REMARK  status: ('A' for Active; 'I' for Inactive)
REMARK    1  A    between atoms: N_2  and  C_5 
REMARK    2  A    between atoms: C_3  and  C_4 
REMARK    3  A    between atoms: C_3  and  C_5 
ROOT
HETATM    1  N   UNK N   1      28.358  16.972   5.650  0.00  0.00    -0.365 N 
HETATM    2  C   UNK N   1      28.174  17.990   7.647  0.00  0.00    -0.028 A 
HETATM    3  C   UNK N   1      27.892  18.908   6.666  0.00  0.00    -0.002 A 
HETATM    4  C   UNK N   1      28.010  18.259   5.470  0.00  0.00     0.042 A 
HETATM    5  C   UNK N   1      28.458  16.793   6.991  0.00  0.00     0.096 A 
HETATM    6  C   UNK N   1      27.532  20.252   6.740  0.00  0.00     0.014 A 
HETATM    7  C   UNK N   1      27.777  18.899   4.256  0.00  0.00     0.030 A 
HETATM    8  C   UNK N   1      27.291  20.933   5.531  0.00  0.00     0.001 A 
HETATM    9  C   UNK N   1      27.412  20.258   4.294  0.00  0.00     0.002 A 
HETATM   10  H   UNK N   1      28.508  16.296   4.949  0.00  0.00     0.165 HD
ENDROOT
BRANCH   2  11
HETATM   11  C   UNK N   1      28.119  18.237   9.130  0.00  0.00     0.065 C 
BRANCH  11  12
HETATM   12  C   UNK N   1      29.477  18.237   9.828  0.00  0.00     0.074 C 
HETATM   13  C   UNK N   1      30.604  18.529   8.852  0.00  0.00     0.032 C 
BRANCH  12  14
HETATM   14  N   UNK N   1      29.704  16.928  10.415  0.00  0.00    -0.426 N 
HETATM   15  H   UNK N   1      29.789  16.105   9.819  0.00  0.00     0.150 HD
HETATM   16  H   UNK N   1      29.780  16.832  11.428  0.00  0.00     0.150 HD
ENDBRANCH  12  14
ENDBRANCH  11  12
ENDBRANCH   2  11
TORSDOF 3
ENDMDL
MODEL 8
REMARK VINA RESULT:      -4.8      1.546      3.422
REMARK  3 active torsions:
REMARK  status: ('A' for Active; 'I' for Inactive)
REMARK    1  A    between atoms: N_2  and  C_5 
REMARK    2  A    between atoms: C_3  and  C_4 
REMARK    3  A    between atoms: C_3  and  C_5 
ROOT
HETATM    1  N   UNK N   1      31.014  17.740   9.146  0.00  0.00    -0.365 N 
HETATM    2  C   UNK N   1      30.087  17.253   7.156  0.00  0.00    -0.028 A 
HETATM    3  C   UNK N   1      31.444  17.353   6.986  0.00  0.00    -0.002 A 
HETATM    4  C   UNK N   1      31.976  17.647   8.210  0.00  0.00     0.042 A 
HETATM    5  C   UNK N   1      29.842  17.494   8.507  0.00  0.00     0.096 A 
HETATM    6  C   UNK N   1      32.245  17.198   5.856  0.00  0.00     0.014 A 
HETATM    7  C   UNK N   1      33.345  17.806   8.402  0.00  0.00     0.030 A 
HETATM    8  C   UNK N   1      33.636  17.355   6.012  0.00  0.00     0.001 A 
HETATM    9  C   UNK N   1      34.183  17.656   7.280  0.00  0.00     0.002 A 
HETATM   10  H   UNK N   1      31.136  17.944  10.102  0.00  0.00     0.165 HD
ENDROOT
BRANCH   2  11
HETATM   11  C   UNK N   1      29.088  16.890   6.091  0.00  0.00     0.065 C 
BRANCH  11  12
HETATM   12  C   UNK N   1      28.671  18.047   5.184  0.00  0.00     0.074 C 
HETATM   13  C   UNK N   1      27.184  18.333   5.298  0.00  0.00     0.032 C 
BRANCH  12  14
HETATM   14  N   UNK N   1      28.968  17.695   3.807  0.00  0.00    -0.426 N 
HETATM   15  H   UNK N   1      28.378  18.038   3.050  0.00  0.00     0.150 HD
HETATM   16  H   UNK N   1      29.772  17.103   3.596  0.00  0.00     0.150 HD
ENDBRANCH  12  14
ENDBRANCH  11  12
ENDBRANCH   2  11
TORSDOF 3
ENDMDL
MODEL 9
REMARK VINA RESULT:      -4.8      2.753      4.118
REMARK  3 active torsions:
REMARK  status: ('A' for Active; 'I' for Inactive)
REMARK    1  A    between atoms: N_2  and  C_5 
REMARK    2  A    between atoms: C_3  and  C_4 
REMARK    3  A    between atoms: C_3  and  C_5 
ROOT
HETATM    1  N   UNK N   1      30.652  17.193   7.449  0.00  0.00    -0.365 N 
HETATM    2  C   UNK N   1      32.837  17.669   7.688  0.00  0.00    -0.028 A 
HETATM    3  C   UNK N   1      32.584  17.461   6.356  0.00  0.00    -0.002 A 
HETATM    4  C   UNK N   1      31.252  17.177   6.245  0.00  0.00     0.042 A 
HETATM    5  C   UNK N   1      31.621  17.500   8.349  0.00  0.00     0.096 A 
HETATM    6  C   UNK N   1      33.418  17.512   5.241  0.00  0.00     0.014 A 
HETATM    7  C   UNK N   1      30.650  16.923   5.016  0.00  0.00     0.030 A 
HETATM    8  C   UNK N   1      32.844  17.258   3.981  0.00  0.00     0.001 A 
HETATM    9  C   UNK N   1      31.465  16.966   3.869  0.00  0.00     0.002 A 
HETATM   10  H   UNK N   1      29.702  17.018   7.640  0.00  0.00     0.165 HD
ENDROOT
BRANCH   2  11
HETATM   11  C   UNK N   1      34.161  18.064   8.284  0.00  0.00     0.065 C 
BRANCH  11  12
HETATM   12  C   UNK N   1      34.907  16.932   8.988  0.00  0.00     0.074 C 
HETATM   13  C   UNK N   1      34.528  15.577   8.416  0.00  0.00     0.032 C 
BRANCH  12  14
HETATM   14  N   UNK N   1      34.563  16.949  10.399  0.00  0.00    -0.426 N 
HETATM   15  H   UNK N   1      35.188  17.386  11.076  0.00  0.00     0.150 HD
HETATM   16  H   UNK N   1      33.692  16.521  10.715  0.00  0.00     0.150 HD
ENDBRANCH  12  14
ENDBRANCH  11  12
ENDBRANCH   2  11
TORSDOF 3
ENDMDL
