MODEL 1
REMARK VINA RESULT:      -5.9      0.000      0.000
REMARK  2 active torsions:
REMARK  status: ('A' for Active; 'I' for Inactive)
REMARK    1  A    between atoms: N_4  and  C_9 
REMARK    2  A    between atoms: C_5  and  C_7 
ROOT
HETATM    1  O   UNK N   1      35.968  13.817  14.770  0.00  0.00    -0.310 OA
HETATM    2  N   UNK N   1      35.041  12.819  13.027  0.00  0.00    -0.349 N 
ATOM      3  HN  UNK N   1      34.778  12.636  12.059  1.00  0.00     0.163 HD
HETATM    4  C   UNK N   1      35.320  12.739  15.325  0.00  0.00     0.187 A 
HETATM    5  C   UNK N   1      34.670  12.027  14.160  0.00  0.00     0.115 A 
HETATM    6  C   UNK N   1      33.813  10.784  14.046  0.00  0.00     0.035 C 
HETATM    7  C   UNK N   1      35.761  13.795  13.437  0.00  0.00     0.213 A 
ENDROOT
BRANCH   4   8
HETATM    8  C   UNK N   1      35.353  12.475  16.792  0.00  0.00    -0.027 A 
HETATM    9  C   UNK N   1      35.618  11.190  17.281  0.00  0.00     0.010 A 
HETATM   10  C   UNK N   1      35.646  10.960  18.659  0.00  0.00     0.001 A 
HETATM   11  C   UNK N   1      35.410  12.012  19.550  0.00  0.00     0.000 A 
HETATM   12  C   UNK N   1      35.145  13.295  19.064  0.00  0.00     0.001 A 
HETATM   13  C   UNK N   1      35.118  13.525  17.687  0.00  0.00     0.010 A 
ENDBRANCH   4   8
BRANCH   7  14
HETATM   14  N   UNK N   1      36.292  14.768  12.565  0.00  0.00    -0.365 N 
HETATM   15  H   UNK N   1      35.911  15.675  12.549  0.00  0.00     0.159 HD
HETATM   16  H   UNK N   1      37.044  14.539  11.972  0.00  0.00     0.159 HD
ENDBRANCH   7  14
TORSDOF 2
ENDMDL
MODEL 2
REMARK VINA RESULT:      -5.7      1.399      2.628
REMARK  2 active torsions:
REMARK  status: ('A' for Active; 'I' for Inactive)
REMARK    1  A    between atoms: N_4  and  C_9 
REMARK    2  A    between atoms: C_5  and  C_7 
ROOT
HETATM    1  O   UNK N   1      35.561  12.898  14.388  0.00  0.00    -0.310 OA
HETATM    2  N   UNK N   1      36.649  14.730  13.796  0.00  0.00    -0.349 N 
ATOM      3  HN  UNK N   1      37.040  15.459  13.199  1.00  0.00     0.163 HD
HETATM    4  C   UNK N   1      36.016  13.401  15.584  0.00  0.00     0.187 A 
HETATM    5  C   UNK N   1      36.770  14.661  15.220  0.00  0.00     0.115 A 
HETATM    6  C   UNK N   1      37.518  15.698  16.032  0.00  0.00     0.035 C 
HETATM    7  C   UNK N   1      35.966  13.721  13.401  0.00  0.00     0.213 A 
ENDROOT
BRANCH   4   8
HETATM    8  C   UNK N   1      35.735  12.718  16.880  0.00  0.00    -0.027 A 
HETATM    9  C   UNK N   1      35.343  13.454  18.004  0.00  0.00     0.010 A 
HETATM   10  C   UNK N   1      35.083  12.798  19.211  0.00  0.00     0.001 A 
HETATM   11  C   UNK N   1      35.214  11.409  19.296  0.00  0.00     0.000 A 
HETATM   12  C   UNK N   1      35.605  10.673  18.174  0.00  0.00     0.001 A 
HETATM   13  C   UNK N   1      35.865  11.328  16.968  0.00  0.00     0.010 A 
ENDBRANCH   4   8
BRANCH   7  14
HETATM   14  N   UNK N   1      35.665  13.492  12.041  0.00  0.00    -0.365 N 
HETATM   15  H   UNK N   1      34.812  13.070  11.791  0.00  0.00     0.159 HD
HETATM   16  H   UNK N   1      36.308  13.755  11.344  0.00  0.00     0.159 HD
ENDBRANCH   7  14
TORSDOF 2
ENDMDL
MODEL 3
REMARK VINA RESULT:      -5.6     17.512     19.227
REMARK  2 active torsions:
REMARK  status: ('A' for Active; 'I' for Inactive)
REMARK    1  A    between atoms: N_4  and  C_9 
REMARK    2  A    between atoms: C_5  and  C_7 
ROOT
HETATM    1  O   UNK N   1      22.351  20.651   1.854  0.00  0.00    -0.310 OA
HETATM    2  N   UNK N   1      20.433  19.912   2.672  0.00  0.00    -0.349 N 
ATOM      3  HN  UNK N   1      19.431  19.742   2.752  1.00  0.00     0.163 HD
HETATM    4  C   UNK N   1      22.726  19.984   2.996  0.00  0.00     0.187 A 
HETATM    5  C   UNK N   1      21.436  19.461   3.587  0.00  0.00     0.115 A 
HETATM    6  C   UNK N   1      21.112  18.650   4.825  0.00  0.00     0.035 C 
HETATM    7  C   UNK N   1      21.011  20.566   1.734  0.00  0.00     0.213 A 
ENDROOT
BRANCH   4   8
HETATM    8  C   UNK N   1      24.153  19.892   3.417  0.00  0.00    -0.027 A 
HETATM    9  C   UNK N   1      24.532  19.062   4.479  0.00  0.00     0.010 A 
HETATM   10  C   UNK N   1      25.875  18.987   4.861  0.00  0.00     0.001 A 
HETATM   11  C   UNK N   1      26.839  19.740   4.184  0.00  0.00     0.000 A 
HETATM   12  C   UNK N   1      26.462  20.569   3.124  0.00  0.00     0.001 A 
HETATM   13  C   UNK N   1      25.121  20.644   2.742  0.00  0.00     0.010 A 
ENDBRANCH   4   8
BRANCH   7  14
HETATM   14  N   UNK N   1      20.300  21.149   0.663  0.00  0.00    -0.365 N 
HETATM   15  H   UNK N   1      20.745  21.290  -0.203  0.00  0.00     0.159 HD
HETATM   16  H   UNK N   1      19.360  21.413   0.783  0.00  0.00     0.159 HD
ENDBRANCH   7  14
TORSDOF 2
ENDMDL
MODEL 4
REMARK VINA RESULT:      -5.3     15.050     16.565
REMARK  2 active torsions:
REMARK  status: ('A' for Active; 'I' for Inactive)
REMARK    1  A    between atoms: N_4  and  C_9 
REMARK    2  A    between atoms: C_5  and  C_7 
ROOT
HETATM    1  O   UNK N   1      19.086  15.655   9.410  0.00  0.00    -0.310 OA
HETATM    2  N   UNK N   1      19.559  16.929   7.665  0.00  0.00    -0.349 N 
ATOM      3  HN  UNK N   1      19.456  17.655   6.955  1.00  0.00     0.163 HD
HETATM    4  C   UNK N   1      20.308  15.183   8.991  0.00  0.00     0.187 A 
HETATM    5  C   UNK N   1      20.668  16.034   7.793  0.00  0.00     0.115 A 
HETATM    6  C   UNK N   1      21.857  16.062   6.856  0.00  0.00     0.035 C 
HETATM    7  C   UNK N   1      18.718  16.663   8.594  0.00  0.00     0.213 A 
ENDROOT
BRANCH   4   8
HETATM    8  C   UNK N   1      20.995  14.059   9.688  0.00  0.00    -0.027 A 
HETATM    9  C   UNK N   1      22.360  13.824   9.489  0.00  0.00     0.010 A 
HETATM   10  C   UNK N   1      22.990  12.765  10.151  0.00  0.00     0.001 A 
HETATM   11  C   UNK N   1      22.257  11.942  11.011  0.00  0.00     0.000 A 
HETATM   12  C   UNK N   1      20.893  12.176  11.211  0.00  0.00     0.001 A 
HETATM   13  C   UNK N   1      20.265  13.234  10.550  0.00  0.00     0.010 A 
ENDBRANCH   4   8
BRANCH   7  14
HETATM   14  N   UNK N   1      17.507  17.370   8.749  0.00  0.00    -0.365 N 
HETATM   15  H   UNK N   1      17.504  18.249   9.191  0.00  0.00     0.159 HD
HETATM   16  H   UNK N   1      16.666  16.984   8.415  0.00  0.00     0.159 HD
ENDBRANCH   7  14
TORSDOF 2
ENDMDL
MODEL 5
REMARK VINA RESULT:      -5.2     25.573     26.614
REMARK  2 active torsions:
REMARK  status: ('A' for Active; 'I' for Inactive)
REMARK    1  A    between atoms: N_4  and  C_9 
REMARK    2  A    between atoms: C_5  and  C_7 
ROOT
HETATM    1  O   UNK N   1      25.116  23.470  -6.797  0.00  0.00    -0.310 OA
HETATM    2  N   UNK N   1      26.819  22.123  -7.219  0.00  0.00    -0.349 N 
ATOM      3  HN  UNK N   1      27.343  21.335  -7.599  1.00  0.00     0.163 HD
HETATM    4  C   UNK N   1      26.160  24.052  -6.118  0.00  0.00     0.187 A 
HETATM    5  C   UNK N   1      27.350  23.156  -6.382  0.00  0.00     0.115 A 
HETATM    6  C   UNK N   1      28.800  23.197  -5.950  0.00  0.00     0.035 C 
HETATM    7  C   UNK N   1      25.575  22.360  -7.409  0.00  0.00     0.213 A 
ENDROOT
BRANCH   4   8
HETATM    8  C   UNK N   1      25.982  25.306  -5.331  0.00  0.00    -0.027 A 
HETATM    9  C   UNK N   1      26.519  25.424  -4.044  0.00  0.00     0.010 A 
HETATM   10  C   UNK N   1      26.342  26.607  -3.320  0.00  0.00     0.001 A 
HETATM   11  C   UNK N   1      25.630  27.672  -3.881  0.00  0.00     0.000 A 
HETATM   12  C   UNK N   1      25.094  27.555  -5.167  0.00  0.00     0.001 A 
HETATM   13  C   UNK N   1      25.270  26.374  -5.889  0.00  0.00     0.010 A 
ENDBRANCH   4   8
BRANCH   7  14
HETATM   14  N   UNK N   1      24.754  21.525  -8.195  0.00  0.00    -0.365 N 
HETATM   15  H   UNK N   1      24.826  21.547  -9.176  0.00  0.00     0.159 HD
HETATM   16  H   UNK N   1      24.109  20.920  -7.762  0.00  0.00     0.159 HD
ENDBRANCH   7  14
TORSDOF 2
ENDMDL
MODEL 6
REMARK VINA RESULT:      -5.2      2.583      3.948
REMARK  2 active torsions:
REMARK  status: ('A' for Active; 'I' for Inactive)
REMARK    1  A    between atoms: N_4  and  C_9 
REMARK    2  A    between atoms: C_5  and  C_7 
ROOT
HETATM    1  O   UNK N   1      34.853  14.848  12.225  0.00  0.00    -0.310 OA
HETATM    2  N   UNK N   1      36.631  15.068  10.928  0.00  0.00    -0.349 N 
ATOM      3  HN  UNK N   1      37.291  15.490  10.275  1.00  0.00     0.163 HD
HETATM    4  C   UNK N   1      35.516  13.654  12.385  0.00  0.00     0.187 A 
HETATM    5  C   UNK N   1      36.744  13.766  11.510  0.00  0.00     0.115 A 
HETATM    6  C   UNK N   1      37.898  12.832  11.211  0.00  0.00     0.035 C 
HETATM    7  C   UNK N   1      35.559  15.613  11.368  0.00  0.00     0.213 A 
ENDROOT
BRANCH   4   8
HETATM    8  C   UNK N   1      34.993  12.580  13.277  0.00  0.00    -0.027 A 
HETATM    9  C   UNK N   1      34.495  11.386  12.740  0.00  0.00     0.010 A 
HETATM   10  C   UNK N   1      34.008  10.389  13.590  0.00  0.00     0.001 A 
HETATM   11  C   UNK N   1      34.017  10.583  14.975  0.00  0.00     0.000 A 
HETATM   12  C   UNK N   1      34.513  11.774  15.512  0.00  0.00     0.001 A 
HETATM   13  C   UNK N   1      35.000  12.770  14.663  0.00  0.00     0.010 A 
ENDBRANCH   4   8
BRANCH   7  14
HETATM   14  N   UNK N   1      35.151  16.909  10.986  0.00  0.00    -0.365 N 
HETATM   15  H   UNK N   1      35.326  17.674  11.580  0.00  0.00     0.159 HD
HETATM   16  H   UNK N   1      34.693  17.047  10.126  0.00  0.00     0.159 HD
ENDBRANCH   7  14
TORSDOF 2
ENDMDL
MODEL 7
REMARK VINA RESULT:      -5.2     14.268     16.201
REMARK  2 active torsions:
REMARK  status: ('A' for Active; 'I' for Inactive)
REMARK    1  A    between atoms: N_4  and  C_9 
REMARK    2  A    between atoms: C_5  and  C_7 
ROOT
HETATM    1  O   UNK N   1      20.264  13.177  10.436  0.00  0.00    -0.310 OA
HETATM    2  N   UNK N   1      21.887  11.935  11.284  0.00  0.00    -0.349 N 
ATOM      3  HN  UNK N   1      22.352  11.233  11.859  1.00  0.00     0.163 HD
HETATM    4  C   UNK N   1      21.385  13.619   9.774  0.00  0.00     0.187 A 
HETATM    5  C   UNK N   1      22.522  12.790  10.328  0.00  0.00     0.115 A 
HETATM    6  C   UNK N   1      24.011  12.748  10.052  0.00  0.00     0.035 C 
HETATM    7  C   UNK N   1      20.634  12.203  11.293  0.00  0.00     0.213 A 
ENDROOT
BRANCH   4   8
HETATM    8  C   UNK N   1      21.315  14.701   8.750  0.00  0.00    -0.027 A 
HETATM    9  C   UNK N   1      22.137  14.666   7.618  0.00  0.00     0.010 A 
HETATM   10  C   UNK N   1      22.058  15.689   6.668  0.00  0.00     0.001 A 
HETATM   11  C   UNK N   1      21.160  16.745   6.847  0.00  0.00     0.000 A 
HETATM   12  C   UNK N   1      20.338  16.780   7.977  0.00  0.00     0.001 A 
HETATM   13  C   UNK N   1      20.417  15.759   8.926  0.00  0.00     0.010 A 
ENDBRANCH   4   8
BRANCH   7  14
HETATM   14  N   UNK N   1      19.719  11.533  12.131  0.00  0.00    -0.365 N 
HETATM   15  H   UNK N   1      18.757  11.554  11.925  0.00  0.00     0.159 HD
HETATM   16  H   UNK N   1      20.043  11.044  12.921  0.00  0.00     0.159 HD
ENDBRANCH   7  14
TORSDOF 2
ENDMDL
MODEL 8
REMARK VINA RESULT:      -5.1     25.725     27.309
REMARK  2 active torsions:
REMARK  status: ('A' for Active; 'I' for Inactive)
REMARK    1  A    between atoms: N_4  and  C_9 
REMARK    2  A    between atoms: C_5  and  C_7 
ROOT
HETATM    1  O   UNK N   1      25.340  23.310  -6.385  0.00  0.00    -0.310 OA
HETATM    2  N   UNK N   1      25.596  23.354  -8.581  0.00  0.00    -0.349 N 
ATOM      3  HN  UNK N   1      25.638  23.023  -9.545  1.00  0.00     0.163 HD
HETATM    4  C   UNK N   1      25.630  24.628  -6.647  0.00  0.00     0.187 A 
HETATM    5  C   UNK N   1      25.813  24.700  -8.146  0.00  0.00     0.115 A 
HETATM    6  C   UNK N   1      26.143  25.827  -9.103  0.00  0.00     0.035 C 
HETATM    7  C   UNK N   1      25.338  22.636  -7.552  0.00  0.00     0.213 A 
ENDROOT
BRANCH   4   8
HETATM    8  C   UNK N   1      25.709  25.645  -5.559  0.00  0.00    -0.027 A 
HETATM    9  C   UNK N   1      26.395  25.368  -4.371  0.00  0.00     0.010 A 
HETATM   10  C   UNK N   1      26.460  26.333  -3.362  0.00  0.00     0.001 A 
HETATM   11  C   UNK N   1      25.840  27.574  -3.538  0.00  0.00     0.000 A 
HETATM   12  C   UNK N   1      25.155  27.852  -4.724  0.00  0.00     0.001 A 
HETATM   13  C   UNK N   1      25.091  26.888  -5.732  0.00  0.00     0.010 A 
ENDBRANCH   4   8
BRANCH   7  14
HETATM   14  N   UNK N   1      25.074  21.253  -7.636  0.00  0.00    -0.365 N 
HETATM   15  H   UNK N   1      25.538  20.626  -7.036  0.00  0.00     0.159 HD
HETATM   16  H   UNK N   1      24.425  20.915  -8.295  0.00  0.00     0.159 HD
ENDBRANCH   7  14
TORSDOF 2
ENDMDL
MODEL 9
REMARK VINA RESULT:      -5.1     10.773     11.982
REMARK  2 active torsions:
REMARK  status: ('A' for Active; 'I' for Inactive)
REMARK    1  A    between atoms: N_4  and  C_9 
REMARK    2  A    between atoms: C_5  and  C_7 
ROOT
HETATM    1  O   UNK N   1      28.713  16.610   6.638  0.00  0.00    -0.310 OA
HETATM    2  N   UNK N   1      27.712  17.355   8.464  0.00  0.00    -0.349 N 
ATOM      3  HN  UNK N   1      26.972  17.536   9.143  1.00  0.00     0.163 HD
HETATM    4  C   UNK N   1      29.723  17.248   7.319  0.00  0.00     0.187 A 
HETATM    5  C   UNK N   1      29.076  17.775   8.580  0.00  0.00     0.115 A 
HETATM    6  C   UNK N   1      29.593  18.563   9.765  0.00  0.00     0.035 C 
HETATM    7  C   UNK N   1      27.581  16.714   7.363  0.00  0.00     0.213 A 
ENDROOT
BRANCH   4   8
HETATM    8  C   UNK N   1      31.112  17.314   6.780  0.00  0.00    -0.027 A 
HETATM    9  C   UNK N   1      32.203  17.483   7.639  0.00  0.00     0.010 A 
HETATM   10  C   UNK N   1      33.499  17.543   7.118  0.00  0.00     0.001 A 
HETATM   11  C   UNK N   1      33.705  17.434   5.739  0.00  0.00     0.000 A 
HETATM   12  C   UNK N   1      32.616  17.265   4.880  0.00  0.00     0.001 A 
HETATM   13  C   UNK N   1      31.322  17.205   5.401  0.00  0.00     0.010 A 
ENDBRANCH   4   8
BRANCH   7  14
HETATM   14  N   UNK N   1      26.351  16.163   6.946  0.00  0.00    -0.365 N 
HETATM   15  H   UNK N   1      25.522  16.393   7.423  0.00  0.00     0.159 HD
HETATM   16  H   UNK N   1      26.323  15.548   6.177  0.00  0.00     0.159 HD
ENDBRANCH   7  14
TORSDOF 2
ENDMDL
