REMARK  6 active torsions:
REMARK  status: ('A' for Active; 'I' for Inactive)
REMARK    1  A    between atoms: C_8  and  O_2 
REMARK    2  A    between atoms: C_18  and  O_3 
REMARK    3  A    between atoms: O_4  and  C_26 
REMARK    4  A    between atoms: C_11  and  C_18 
REMARK    5  A    between atoms: C_18  and  C_22 
REMARK    6  A    between atoms: C_22  and  C_29 
ROOT
HETATM    1  O   UNK N   1       3.794  -1.967  -0.741  0.00  0.00    -0.338 OA
HETATM    2  N   UNK N   1       4.660   3.045  -0.281  0.00  0.00     0.090 N 
HETATM    3  C   UNK N   1       5.402   0.900   0.859  0.00  0.00     0.006 C 
HETATM    4  C   UNK N   1       4.610   0.138  -0.203  0.00  0.00     0.031 C 
HETATM    5  C   UNK N   1       6.448  -1.525   0.341  0.00  0.00     0.094 C 
HETATM    6  C   UNK N   1       5.011  -1.347  -0.378  0.00  0.00     0.178 C 
HETATM    7  C   UNK N   1       6.858   1.016   0.376  0.00  0.00     0.023 C 
HETATM    8  C   UNK N   1       7.411  -0.353  -0.133  0.00  0.00     0.057 C 
HETATM    9  C   UNK N   1       4.657   2.285   0.998  0.00  0.00     0.236 C 
HETATM   10  C   UNK N   1       5.497   0.064   2.161  0.00  0.00     0.016 C 
HETATM   11  C   UNK N   1       6.325  -1.243   1.917  0.00  0.00     0.042 C 
HETATM   12  C   UNK N   1       4.692   0.885  -1.550  0.00  0.00     0.048 C 
HETATM   13  C   UNK N   1       3.209  -0.018   0.151  0.00  0.00    -0.003 A 
HETATM   14  C   UNK N   1       3.158   2.115   1.445  0.00  0.00     0.075 C 
HETATM   15  C   UNK N   1       4.119   2.304  -1.431  0.00  0.00     0.273 C 
HETATM   16  C   UNK N   1       2.458   0.896   0.863  0.00  0.00    -0.046 A 
HETATM   17  C   UNK N   1       2.757  -1.221  -0.251  0.00  0.00     0.110 A 
HETATM   18  C   UNK N   1       5.965   3.600  -0.623  0.00  0.00     0.310 C 
HETATM   19  C   UNK N   1       1.114   0.573   1.115  0.00  0.00     0.011 A 
HETATM   20  C   UNK N   1       1.428  -1.582  -0.035  0.00  0.00     0.099 A 
HETATM   21  C   UNK N   1       0.589  -0.659   0.640  0.00  0.00     0.040 A 
ENDROOT
BRANCH   8  22
HETATM   22  C   UNK N   1       8.937  -0.481   0.262  0.00  0.00     0.061 C 
HETATM   23  C   UNK N   1       9.161  -1.192   1.588  0.00  0.00     0.046 C 
BRANCH  22  24
HETATM   24  O   UNK N   1       9.513   0.788   0.395  0.00  0.00    -0.390 OA
HETATM   25  H   UNK N   1      10.474   0.882   0.486  0.00  0.00     0.210 HD
ENDBRANCH  22  24
BRANCH  22  26
HETATM   26  C   UNK N   1       9.731  -1.257  -0.797  0.00  0.00     0.037 C 
BRANCH  26  27
HETATM   27  C   UNK N   1       9.971  -0.445  -2.075  0.00  0.00    -0.002 C 
HETATM   28  C   UNK N   1      11.140   0.514  -1.897  0.00  0.00     0.005 C 
ENDBRANCH  26  27
ENDBRANCH  22  26
ENDBRANCH   8  22
BRANCH   5  29
HETATM   29  O   UNK N   1       7.052  -2.767   0.007  0.00  0.00    -0.382 OA
HETATM   30  C   UNK N   1       6.454  -3.814   0.729  0.00  0.00     0.202 C 
ENDBRANCH   5  29
BRANCH  20  31
HETATM   31  O   UNK N   1       0.962  -2.784  -0.409  0.00  0.00    -0.358 OA
HETATM   32  H   UNK N   1       0.073  -2.922  -0.671  0.00  0.00     0.217 HD
ENDBRANCH  20  31
TORSDOF 6
