MODEL 1
REMARK VINA RESULT:      -7.2      0.000      0.000
REMARK  6 active torsions:
REMARK  status: ('A' for Active; 'I' for Inactive)
REMARK    1  A    between atoms: C_8  and  O_2 
REMARK    2  A    between atoms: C_18  and  O_3 
REMARK    3  A    between atoms: O_4  and  C_26 
REMARK    4  A    between atoms: C_11  and  C_18 
REMARK    5  A    between atoms: C_18  and  C_22 
REMARK    6  A    between atoms: C_22  and  C_29 
ROOT
HETATM    1  O   UNK N   1      31.264  16.831   8.777  0.00  0.00    -0.338 OA
HETATM    2  N   UNK N   1      32.545  16.098   3.888  0.00  0.00     0.090 N 
HETATM    3  C   UNK N   1      30.443  16.008   5.311  0.00  0.00     0.006 C 
HETATM    4  C   UNK N   1      31.289  16.516   6.478  0.00  0.00     0.031 C 
HETATM    5  C   UNK N   1      29.007  17.456   7.067  0.00  0.00     0.094 C 
HETATM    6  C   UNK N   1      30.487  17.150   7.640  0.00  0.00     0.178 C 
HETATM    7  C   UNK N   1      29.794  17.224   4.627  0.00  0.00     0.023 C 
HETATM    8  C   UNK N   1      29.138  18.191   5.664  0.00  0.00     0.057 C 
HETATM    9  C   UNK N   1      31.457  15.218   4.394  0.00  0.00     0.236 C 
HETATM   10  C   UNK N   1      29.242  15.181   5.838  0.00  0.00     0.016 C 
HETATM   11  C   UNK N   1      28.268  16.089   6.663  0.00  0.00     0.042 C 
HETATM   12  C   UNK N   1      32.358  17.498   5.957  0.00  0.00     0.048 C 
HETATM   13  C   UNK N   1      31.960  15.441   7.189  0.00  0.00    -0.003 A 
HETATM   14  C   UNK N   1      32.133  14.015   5.149  0.00  0.00     0.075 C 
HETATM   15  C   UNK N   1      33.282  16.819   4.936  0.00  0.00     0.273 C 
HETATM   16  C   UNK N   1      32.434  14.278   6.617  0.00  0.00    -0.046 A 
HETATM   17  C   UNK N   1      31.993  15.705   8.510  0.00  0.00     0.110 A 
HETATM   18  C   UNK N   1      32.102  17.037   2.863  0.00  0.00     0.310 C 
HETATM   19  C   UNK N   1      33.057  13.346   7.466  0.00  0.00     0.011 A 
HETATM   20  C   UNK N   1      32.610  14.817   9.390  0.00  0.00     0.099 A 
HETATM   21  C   UNK N   1      33.170  13.629   8.853  0.00  0.00     0.040 A 
ENDROOT
BRANCH   8  22
HETATM   22  C   UNK N   1      27.813  18.796   5.049  0.00  0.00     0.061 C 
HETATM   23  C   UNK N   1      27.847  20.311   4.913  0.00  0.00     0.046 C 
BRANCH  22  24
HETATM   24  O   UNK N   1      26.718  18.501   5.869  0.00  0.00    -0.390 OA
HETATM   25  H   UNK N   1      26.677  17.657   6.346  0.00  0.00     0.210 HD
ENDBRANCH  22  24
BRANCH  22  26
HETATM   26  C   UNK N   1      27.529  18.231   3.651  0.00  0.00     0.037 C 
BRANCH  26  27
HETATM   27  C   UNK N   1      26.256  17.380   3.600  0.00  0.00    -0.002 C 
HETATM   28  C   UNK N   1      26.558  15.983   3.076  0.00  0.00     0.005 C 
ENDBRANCH  26  27
ENDBRANCH  22  26
ENDBRANCH   8  22
BRANCH   5  29
HETATM   29  O   UNK N   1      28.266  18.292   7.945  0.00  0.00    -0.382 OA
HETATM   30  C   UNK N   1      27.986  17.618   9.146  0.00  0.00     0.202 C 
ENDBRANCH   5  29
BRANCH  20  31
HETATM   31  O   UNK N   1      32.636  15.050  10.711  0.00  0.00    -0.358 OA
HETATM   32  H   UNK N   1      31.876  14.966  11.254  0.00  0.00     0.217 HD
ENDBRANCH  20  31
TORSDOF 6
ENDMDL
MODEL 2
REMARK VINA RESULT:      -6.7     11.380     15.065
REMARK  6 active torsions:
REMARK  status: ('A' for Active; 'I' for Inactive)
REMARK    1  A    between atoms: C_8  and  O_2 
REMARK    2  A    between atoms: C_18  and  O_3 
REMARK    3  A    between atoms: O_4  and  C_26 
REMARK    4  A    between atoms: C_11  and  C_18 
REMARK    5  A    between atoms: C_18  and  C_22 
REMARK    6  A    between atoms: C_22  and  C_29 
ROOT
HETATM    1  O   UNK N   1      27.148  25.235  -3.177  0.00  0.00    -0.338 OA
HETATM    2  N   UNK N   1      26.344  23.099  -7.745  0.00  0.00     0.090 N 
HETATM    3  C   UNK N   1      28.293  24.092  -6.456  0.00  0.00     0.006 C 
HETATM    4  C   UNK N   1      27.345  24.245  -5.267  0.00  0.00     0.031 C 
HETATM    5  C   UNK N   1      29.574  23.936  -4.094  0.00  0.00     0.094 C 
HETATM    6  C   UNK N   1      28.039  24.403  -3.892  0.00  0.00     0.178 C 
HETATM    7  C   UNK N   1      29.027  22.748  -6.311  0.00  0.00     0.023 C 
HETATM    8  C   UNK N   1      29.593  22.549  -4.869  0.00  0.00     0.057 C 
HETATM    9  C   UNK N   1      27.361  24.184  -7.727  0.00  0.00     0.236 C 
HETATM   10  C   UNK N   1      29.422  25.153  -6.382  0.00  0.00     0.016 C 
HETATM   11  C   UNK N   1      30.325  24.910  -5.126  0.00  0.00     0.042 C 
HETATM   12  C   UNK N   1      26.349  23.067  -5.240  0.00  0.00     0.048 C 
HETATM   13  C   UNK N   1      26.588  25.485  -5.313  0.00  0.00    -0.003 A 
HETATM   14  C   UNK N   1      26.593  25.555  -7.807  0.00  0.00     0.075 C 
HETATM   15  C   UNK N   1      25.519  23.016  -6.530  0.00  0.00     0.273 C 
HETATM   16  C   UNK N   1      26.153  26.114  -6.462  0.00  0.00    -0.046 A 
HETATM   17  C   UNK N   1      26.430  25.982  -4.071  0.00  0.00     0.110 A 
HETATM   18  C   UNK N   1      26.902  21.786  -8.052  0.00  0.00     0.310 C 
HETATM   19  C   UNK N   1      25.434  27.312  -6.312  0.00  0.00     0.011 A 
HETATM   20  C   UNK N   1      25.714  27.161  -3.870  0.00  0.00     0.099 A 
HETATM   21  C   UNK N   1      25.190  27.823  -5.009  0.00  0.00     0.040 A 
ENDROOT
BRANCH   8  22
HETATM   22  C   UNK N   1      30.983  21.799  -4.952  0.00  0.00     0.061 C 
HETATM   23  C   UNK N   1      31.060  20.568  -4.060  0.00  0.00     0.046 C 
BRANCH  22  24
HETATM   24  O   UNK N   1      32.019  22.646  -4.541  0.00  0.00    -0.390 OA
HETATM   25  H   UNK N   1      32.050  23.566  -4.849  0.00  0.00     0.210 HD
ENDBRANCH  22  24
BRANCH  22  26
HETATM   26  C   UNK N   1      31.288  21.331  -6.381  0.00  0.00     0.037 C 
BRANCH  26  27
HETATM   27  C   UNK N   1      31.180  19.810  -6.545  0.00  0.00    -0.002 C 
HETATM   28  C   UNK N   1      30.030  19.445  -7.473  0.00  0.00     0.005 C 
ENDBRANCH  26  27
ENDBRANCH  22  26
ENDBRANCH   8  22
BRANCH   5  29
HETATM   29  O   UNK N   1      30.238  23.766  -2.849  0.00  0.00    -0.382 OA
HETATM   30  C   UNK N   1      29.421  23.063  -1.948  0.00  0.00     0.202 C 
ENDBRANCH   5  29
BRANCH  20  31
HETATM   31  O   UNK N   1      25.562  27.684  -2.643  0.00  0.00    -0.358 OA
HETATM   32  H   UNK N   1      25.833  28.555  -2.428  0.00  0.00     0.217 HD
ENDBRANCH  20  31
TORSDOF 6
ENDMDL
MODEL 3
REMARK VINA RESULT:      -6.7      6.624     10.328
REMARK  6 active torsions:
REMARK  status: ('A' for Active; 'I' for Inactive)
REMARK    1  A    between atoms: C_8  and  O_2 
REMARK    2  A    between atoms: C_18  and  O_3 
REMARK    3  A    between atoms: O_4  and  C_26 
REMARK    4  A    between atoms: C_11  and  C_18 
REMARK    5  A    between atoms: C_18  and  C_22 
REMARK    6  A    between atoms: C_22  and  C_29 
ROOT
HETATM    1  O   UNK N   1      20.087  15.770   3.238  0.00  0.00    -0.338 OA
HETATM    2  N   UNK N   1      24.986  16.501   4.482  0.00  0.00     0.090 N 
HETATM    3  C   UNK N   1      22.774  16.163   5.685  0.00  0.00     0.006 C 
HETATM    4  C   UNK N   1      22.136  15.945   4.313  0.00  0.00     0.031 C 
HETATM    5  C   UNK N   1      20.648  14.517   5.792  0.00  0.00     0.094 C 
HETATM    6  C   UNK N   1      20.776  15.206   4.335  0.00  0.00     0.178 C 
HETATM    7  C   UNK N   1      23.166  14.788   6.252  0.00  0.00     0.023 C 
HETATM    8  C   UNK N   1      22.003  13.754   6.122  0.00  0.00     0.057 C 
HETATM    9  C   UNK N   1      24.000  17.120   5.409  0.00  0.00     0.236 C 
HETATM   10  C   UNK N   1      21.723  16.704   6.687  0.00  0.00     0.016 C 
HETATM   11  C   UNK N   1      20.604  15.638   6.940  0.00  0.00     0.042 C 
HETATM   12  C   UNK N   1      23.132  15.223   3.384  0.00  0.00     0.048 C 
HETATM   13  C   UNK N   1      21.737  17.191   3.679  0.00  0.00    -0.003 A 
HETATM   14  C   UNK N   1      23.557  18.493   4.783  0.00  0.00     0.075 C 
HETATM   15  C   UNK N   1      24.417  16.044   3.205  0.00  0.00     0.273 C 
HETATM   16  C   UNK N   1      22.393  18.399   3.807  0.00  0.00    -0.046 A 
HETATM   17  C   UNK N   1      20.586  17.022   3.001  0.00  0.00     0.110 A 
HETATM   18  C   UNK N   1      25.758  15.424   5.091  0.00  0.00     0.310 C 
HETATM   19  C   UNK N   1      21.859  19.502   3.120  0.00  0.00     0.011 A 
HETATM   20  C   UNK N   1      20.023  18.083   2.294  0.00  0.00     0.099 A 
HETATM   21  C   UNK N   1      20.684  19.337   2.338  0.00  0.00     0.040 A 
ENDROOT
BRANCH   8  22
HETATM   22  C   UNK N   1      21.997  12.810   7.391  0.00  0.00     0.061 C 
HETATM   23  C   UNK N   1      22.430  11.384   7.086  0.00  0.00     0.046 C 
BRANCH  22  24
HETATM   24  O   UNK N   1      20.707  12.722   7.926  0.00  0.00    -0.390 OA
HETATM   25  H   UNK N   1      19.967  12.427   7.373  0.00  0.00     0.210 HD
ENDBRANCH  22  24
BRANCH  22  26
HETATM   26  C   UNK N   1      22.934  13.333   8.488  0.00  0.00     0.037 C 
BRANCH  26  27
HETATM   27  C   UNK N   1      22.232  13.505   9.839  0.00  0.00    -0.002 C 
HETATM   28  C   UNK N   1      22.678  12.433  10.824  0.00  0.00     0.005 C 
ENDBRANCH  26  27
ENDBRANCH  22  26
ENDBRANCH   8  22
BRANCH   5  29
HETATM   29  O   UNK N   1      19.581  13.580   5.837  0.00  0.00    -0.382 OA
HETATM   30  C   UNK N   1      19.554  12.808   4.663  0.00  0.00     0.202 C 
ENDBRANCH   5  29
BRANCH  20  31
HETATM   31  O   UNK N   1      18.866  17.942   1.628  0.00  0.00    -0.358 OA
HETATM   32  H   UNK N   1      18.662  17.178   1.126  0.00  0.00     0.217 HD
ENDBRANCH  20  31
TORSDOF 6
ENDMDL
MODEL 4
REMARK VINA RESULT:      -6.4      2.380      4.141
REMARK  6 active torsions:
REMARK  status: ('A' for Active; 'I' for Inactive)
REMARK    1  A    between atoms: C_8  and  O_2 
REMARK    2  A    between atoms: C_18  and  O_3 
REMARK    3  A    between atoms: O_4  and  C_26 
REMARK    4  A    between atoms: C_11  and  C_18 
REMARK    5  A    between atoms: C_18  and  C_22 
REMARK    6  A    between atoms: C_22  and  C_29 
ROOT
HETATM    1  O   UNK N   1      30.501  13.594   4.825  0.00  0.00    -0.338 OA
HETATM    2  N   UNK N   1      33.643  17.094   6.816  0.00  0.00     0.090 N 
HETATM    3  C   UNK N   1      31.390  17.045   5.644  0.00  0.00     0.006 C 
HETATM    4  C   UNK N   1      31.480  15.519   5.675  0.00  0.00     0.031 C 
HETATM    5  C   UNK N   1      28.968  15.875   5.752  0.00  0.00     0.094 C 
HETATM    6  C   UNK N   1      30.131  14.781   5.498  0.00  0.00     0.178 C 
HETATM    7  C   UNK N   1      30.609  17.502   6.888  0.00  0.00     0.023 C 
HETATM    8  C   UNK N   1      29.297  16.677   7.084  0.00  0.00     0.057 C 
HETATM    9  C   UNK N   1      32.891  17.534   5.610  0.00  0.00     0.236 C 
HETATM   10  C   UNK N   1      30.514  17.507   4.452  0.00  0.00     0.016 C 
HETATM   11  C   UNK N   1      29.033  17.031   4.639  0.00  0.00     0.042 C 
HETATM   12  C   UNK N   1      32.181  15.065   6.972  0.00  0.00     0.048 C 
HETATM   13  C   UNK N   1      32.214  14.980   4.543  0.00  0.00    -0.003 A 
HETATM   14  C   UNK N   1      33.664  17.002   4.348  0.00  0.00     0.075 C 
HETATM   15  C   UNK N   1      33.600  15.645   7.065  0.00  0.00     0.273 C 
HETATM   16  C   UNK N   1      33.282  15.593   3.919  0.00  0.00    -0.046 A 
HETATM   17  C   UNK N   1      31.659  13.824   4.134  0.00  0.00     0.110 A 
HETATM   18  C   UNK N   1      33.269  17.813   8.028  0.00  0.00     0.310 C 
HETATM   19  C   UNK N   1      33.869  14.921   2.833  0.00  0.00     0.011 A 
HETATM   20  C   UNK N   1      32.213  13.114   3.069  0.00  0.00     0.099 A 
HETATM   21  C   UNK N   1      33.350  13.664   2.424  0.00  0.00     0.040 A 
ENDROOT
BRANCH   8  22
HETATM   22  C   UNK N   1      28.161  17.626   7.643  0.00  0.00     0.061 C 
HETATM   23  C   UNK N   1      28.003  17.554   9.155  0.00  0.00     0.046 C 
BRANCH  22  24
HETATM   24  O   UNK N   1      26.920  17.270   7.101  0.00  0.00    -0.390 OA
HETATM   25  H   UNK N   1      26.844  17.043   6.162  0.00  0.00     0.210 HD
ENDBRANCH  22  24
BRANCH  22  26
HETATM   26  C   UNK N   1      28.431  19.095   7.295  0.00  0.00     0.037 C 
BRANCH  26  27
HETATM   27  C   UNK N   1      27.406  19.672   6.312  0.00  0.00    -0.002 C 
HETATM   28  C   UNK N   1      27.352  21.190   6.412  0.00  0.00     0.005 C 
ENDBRANCH  26  27
ENDBRANCH  22  26
ENDBRANCH   8  22
BRANCH   5  29
HETATM   29  O   UNK N   1      27.694  15.264   5.897  0.00  0.00    -0.382 OA
HETATM   30  C   UNK N   1      27.232  14.791   4.657  0.00  0.00     0.202 C 
ENDBRANCH   5  29
BRANCH  20  31
HETATM   31  O   UNK N   1      31.663  11.970   2.632  0.00  0.00    -0.358 OA
HETATM   32  H   UNK N   1      30.807  11.690   2.891  0.00  0.00     0.217 HD
ENDBRANCH  20  31
TORSDOF 6
ENDMDL
MODEL 5
REMARK VINA RESULT:      -6.4      7.305      9.621
REMARK  6 active torsions:
REMARK  status: ('A' for Active; 'I' for Inactive)
REMARK    1  A    between atoms: C_8  and  O_2 
REMARK    2  A    between atoms: C_18  and  O_3 
REMARK    3  A    between atoms: O_4  and  C_26 
REMARK    4  A    between atoms: C_11  and  C_18 
REMARK    5  A    between atoms: C_18  and  C_22 
REMARK    6  A    between atoms: C_22  and  C_29 
ROOT
HETATM    1  O   UNK N   1      20.175  14.218   7.891  0.00  0.00    -0.338 OA
HETATM    2  N   UNK N   1      24.732  14.068   5.592  0.00  0.00     0.090 N 
HETATM    3  C   UNK N   1      22.386  13.192   5.167  0.00  0.00     0.006 C 
HETATM    4  C   UNK N   1      21.943  13.962   6.410  0.00  0.00     0.031 C 
HETATM    5  C   UNK N   1      19.819  13.987   5.022  0.00  0.00     0.094 C 
HETATM    6  C   UNK N   1      20.423  14.242   6.500  0.00  0.00     0.178 C 
HETATM    7  C   UNK N   1      22.153  14.091   3.941  0.00  0.00     0.023 C 
HETATM    8  C   UNK N   1      20.730  14.736   3.956  0.00  0.00     0.057 C 
HETATM    9  C   UNK N   1      23.903  12.843   5.431  0.00  0.00     0.236 C 
HETATM   10  C   UNK N   1      21.457  11.974   4.930  0.00  0.00     0.016 C 
HETATM   11  C   UNK N   1      20.001  12.449   4.599  0.00  0.00     0.042 C 
HETATM   12  C   UNK N   1      22.744  15.276   6.523  0.00  0.00     0.048 C 
HETATM   13  C   UNK N   1      22.134  13.203   7.635  0.00  0.00    -0.003 A 
HETATM   14  C   UNK N   1      24.099  11.965   6.721  0.00  0.00     0.075 C 
HETATM   15  C   UNK N   1      24.250  14.998   6.625  0.00  0.00     0.273 C 
HETATM   16  C   UNK N   1      23.155  12.303   7.866  0.00  0.00    -0.046 A 
HETATM   17  C   UNK N   1      21.126  13.443   8.495  0.00  0.00     0.110 A 
HETATM   18  C   UNK N   1      24.950  14.790   4.343  0.00  0.00     0.310 C 
HETATM   19  C   UNK N   1      23.178  11.656   9.113  0.00  0.00     0.011 A 
HETATM   20  C   UNK N   1      21.111  12.835   9.749  0.00  0.00     0.099 A 
HETATM   21  C   UNK N   1      22.167  11.944  10.070  0.00  0.00     0.040 A 
ENDROOT
BRANCH   8  22
HETATM   22  C   UNK N   1      20.176  14.817   2.477  0.00  0.00     0.061 C 
HETATM   23  C   UNK N   1      20.057  16.241   1.954  0.00  0.00     0.046 C 
BRANCH  22  24
HETATM   24  O   UNK N   1      18.892  14.265   2.408  0.00  0.00    -0.390 OA
HETATM   25  H   UNK N   1      18.148  14.795   2.082  0.00  0.00     0.210 HD
ENDBRANCH  22  24
BRANCH  22  26
HETATM   26  C   UNK N   1      21.076  14.057   1.494  0.00  0.00     0.037 C 
BRANCH  26  27
HETATM   27  C   UNK N   1      20.343  12.921   0.772  0.00  0.00    -0.002 C 
HETATM   28  C   UNK N   1      21.039  11.588   1.010  0.00  0.00     0.005 C 
ENDBRANCH  26  27
ENDBRANCH  22  26
ENDBRANCH   8  22
BRANCH   5  29
HETATM   29  O   UNK N   1      18.492  14.481   4.905  0.00  0.00    -0.382 OA
HETATM   30  C   UNK N   1      18.401  15.777   5.441  0.00  0.00     0.202 C 
ENDBRANCH   5  29
BRANCH  20  31
HETATM   31  O   UNK N   1      20.107  13.045  10.614  0.00  0.00    -0.358 OA
HETATM   32  H   UNK N   1      19.222  12.799  10.430  0.00  0.00     0.217 HD
ENDBRANCH  20  31
TORSDOF 6
ENDMDL
MODEL 6
REMARK VINA RESULT:      -6.4      3.151      7.020
REMARK  6 active torsions:
REMARK  status: ('A' for Active; 'I' for Inactive)
REMARK    1  A    between atoms: C_8  and  O_2 
REMARK    2  A    between atoms: C_18  and  O_3 
REMARK    3  A    between atoms: O_4  and  C_26 
REMARK    4  A    between atoms: C_11  and  C_18 
REMARK    5  A    between atoms: C_18  and  C_22 
REMARK    6  A    between atoms: C_22  and  C_29 
ROOT
HETATM    1  O   UNK N   1      32.235  16.734   4.139  0.00  0.00    -0.338 OA
HETATM    2  N   UNK N   1      33.544  17.242   9.049  0.00  0.00     0.090 N 
HETATM    3  C   UNK N   1      33.356  15.372   7.340  0.00  0.00     0.006 C 
HETATM    4  C   UNK N   1      33.026  16.442   6.301  0.00  0.00     0.031 C 
HETATM    5  C   UNK N   1      34.144  14.675   4.863  0.00  0.00     0.094 C 
HETATM    6  C   UNK N   1      33.233  16.010   4.829  0.00  0.00     0.178 C 
HETATM    7  C   UNK N   1      34.872  15.113   7.293  0.00  0.00     0.023 C 
HETATM    8  C   UNK N   1      35.382  14.919   5.829  0.00  0.00     0.057 C 
HETATM    9  C   UNK N   1      32.848  15.971   8.709  0.00  0.00     0.236 C 
HETATM   10  C   UNK N   1      32.724  14.015   6.934  0.00  0.00     0.016 C 
HETATM   11  C   UNK N   1      33.365  13.485   5.607  0.00  0.00     0.042 C 
HETATM   12  C   UNK N   1      33.820  17.728   6.607  0.00  0.00     0.048 C 
HETATM   13  C   UNK N   1      31.611  16.773   6.271  0.00  0.00    -0.003 A 
HETATM   14  C   UNK N   1      31.302  16.267   8.695  0.00  0.00     0.075 C 
HETATM   15  C   UNK N   1      33.477  18.272   8.001  0.00  0.00     0.273 C 
HETATM   16  C   UNK N   1      30.767  16.771   7.363  0.00  0.00    -0.046 A 
HETATM   17  C   UNK N   1      31.214  17.012   5.007  0.00  0.00     0.110 A 
HETATM   18  C   UNK N   1      34.929  17.051   9.464  0.00  0.00     0.310 C 
HETATM   19  C   UNK N   1      29.423  17.117   7.143  0.00  0.00     0.011 A 
HETATM   20  C   UNK N   1      29.894  17.370   4.739  0.00  0.00     0.099 A 
HETATM   21  C   UNK N   1      28.990  17.445   5.830  0.00  0.00     0.040 A 
ENDROOT
BRANCH   8  22
HETATM   22  C   UNK N   1      36.525  13.826   5.813  0.00  0.00     0.061 C 
HETATM   23  C   UNK N   1      37.872  14.367   5.357  0.00  0.00     0.046 C 
BRANCH  22  24
HETATM   24  O   UNK N   1      36.197  12.793   4.928  0.00  0.00    -0.390 OA
HETATM   25  H   UNK N   1      35.940  11.921   5.267  0.00  0.00     0.210 HD
ENDBRANCH  22  24
BRANCH  22  26
HETATM   26  C   UNK N   1      36.740  13.214   7.203  0.00  0.00     0.037 C 
BRANCH  26  27
HETATM   27  C   UNK N   1      36.385  11.723   7.259  0.00  0.00    -0.002 C 
HETATM   28  C   UNK N   1      35.219  11.478   8.206  0.00  0.00     0.005 C 
ENDBRANCH  26  27
ENDBRANCH  22  26
ENDBRANCH   8  22
BRANCH   5  29
HETATM   29  O   UNK N   1      34.639  14.344   3.573  0.00  0.00    -0.382 OA
HETATM   30  C   UNK N   1      33.607  13.831   2.768  0.00  0.00     0.202 C 
ENDBRANCH   5  29
BRANCH  20  31
HETATM   31  O   UNK N   1      29.472  17.593   3.484  0.00  0.00    -0.358 OA
HETATM   32  H   UNK N   1      30.061  17.777   2.779  0.00  0.00     0.217 HD
ENDBRANCH  20  31
TORSDOF 6
ENDMDL
MODEL 7
REMARK VINA RESULT:      -6.1      3.007      5.177
REMARK  6 active torsions:
REMARK  status: ('A' for Active; 'I' for Inactive)
REMARK    1  A    between atoms: C_8  and  O_2 
REMARK    2  A    between atoms: C_18  and  O_3 
REMARK    3  A    between atoms: O_4  and  C_26 
REMARK    4  A    between atoms: C_11  and  C_18 
REMARK    5  A    between atoms: C_18  and  C_22 
REMARK    6  A    between atoms: C_22  and  C_29 
ROOT
HETATM    1  O   UNK N   1      35.602  15.941  10.411  0.00  0.00    -0.338 OA
HETATM    2  N   UNK N   1      35.288  11.932   7.263  0.00  0.00     0.090 N 
HETATM    3  C   UNK N   1      33.733  13.709   8.199  0.00  0.00     0.006 C 
HETATM    4  C   UNK N   1      34.960  14.344   8.854  0.00  0.00     0.031 C 
HETATM    5  C   UNK N   1      33.483  16.374   8.480  0.00  0.00     0.094 C 
HETATM    6  C   UNK N   1      34.789  15.828   9.261  0.00  0.00     0.178 C 
HETATM    7  C   UNK N   1      33.512  14.391   6.838  0.00  0.00     0.023 C 
HETATM    8  C   UNK N   1      33.580  15.947   6.952  0.00  0.00     0.057 C 
HETATM    9  C   UNK N   1      34.083  12.172   8.101  0.00  0.00     0.236 C 
HETATM   10  C   UNK N   1      32.456  14.048   9.009  0.00  0.00     0.016 C 
HETATM   11  C   UNK N   1      32.169  15.588   8.966  0.00  0.00     0.042 C 
HETATM   12  C   UNK N   1      36.188  14.171   7.938  0.00  0.00     0.048 C 
HETATM   13  C   UNK N   1      35.266  13.760  10.149  0.00  0.00    -0.003 A 
HETATM   14  C   UNK N   1      34.350  11.529   9.511  0.00  0.00     0.075 C 
HETATM   15  C   UNK N   1      36.480  12.686   7.680  0.00  0.00     0.273 C 
HETATM   16  C   UNK N   1      35.065  12.440  10.498  0.00  0.00    -0.046 A 
HETATM   17  C   UNK N   1      35.710  14.709  10.996  0.00  0.00     0.110 A 
HETATM   18  C   UNK N   1      35.053  12.134   5.837  0.00  0.00     0.310 C 
HETATM   19  C   UNK N   1      35.420  12.053  11.802  0.00  0.00     0.011 A 
HETATM   20  C   UNK N   1      36.087  14.372  12.295  0.00  0.00     0.099 A 
HETATM   21  C   UNK N   1      35.959  13.018  12.695  0.00  0.00     0.040 A 
ENDROOT
BRANCH   8  22
HETATM   22  C   UNK N   1      32.525  16.590   5.964  0.00  0.00     0.061 C 
HETATM   23  C   UNK N   1      33.155  17.477   4.901  0.00  0.00     0.046 C 
BRANCH  22  24
HETATM   24  O   UNK N   1      31.629  17.401   6.670  0.00  0.00    -0.390 OA
HETATM   25  H   UNK N   1      31.315  17.135   7.549  0.00  0.00     0.210 HD
ENDBRANCH  22  24
BRANCH  22  26
HETATM   26  C   UNK N   1      31.716  15.517   5.224  0.00  0.00     0.037 C 
BRANCH  26  27
HETATM   27  C   UNK N   1      30.258  15.444   5.690  0.00  0.00    -0.002 C 
HETATM   28  C   UNK N   1      29.546  14.254   5.061  0.00  0.00     0.005 C 
ENDBRANCH  26  27
ENDBRANCH  22  26
ENDBRANCH   8  22
BRANCH   5  29
HETATM   29  O   UNK N   1      33.384  17.790   8.546  0.00  0.00    -0.382 OA
HETATM   30  C   UNK N   1      34.620  18.383   8.239  0.00  0.00     0.202 C 
ENDBRANCH   5  29
BRANCH  20  31
HETATM   31  O   UNK N   1      36.513  15.305  13.161  0.00  0.00    -0.358 OA
HETATM   32  H   UNK N   1      36.149  15.401  14.020  0.00  0.00     0.217 HD
ENDBRANCH  20  31
TORSDOF 6
ENDMDL
MODEL 8
REMARK VINA RESULT:      -6.1      2.678      4.121
REMARK  6 active torsions:
REMARK  status: ('A' for Active; 'I' for Inactive)
REMARK    1  A    between atoms: C_8  and  O_2 
REMARK    2  A    between atoms: C_18  and  O_3 
REMARK    3  A    between atoms: O_4  and  C_26 
REMARK    4  A    between atoms: C_11  and  C_18 
REMARK    5  A    between atoms: C_18  and  C_22 
REMARK    6  A    between atoms: C_22  and  C_29 
ROOT
HETATM    1  O   UNK N   1      32.248  13.454   4.708  0.00  0.00    -0.338 OA
HETATM    2  N   UNK N   1      32.509  17.146   8.227  0.00  0.00     0.090 N 
HETATM    3  C   UNK N   1      32.049  16.956   5.736  0.00  0.00     0.006 C 
HETATM    4  C   UNK N   1      32.124  15.439   5.904  0.00  0.00     0.031 C 
HETATM    5  C   UNK N   1      30.510  15.650   3.957  0.00  0.00     0.094 C 
HETATM    6  C   UNK N   1      31.456  14.622   4.771  0.00  0.00     0.178 C 
HETATM    7  C   UNK N   1      30.575  17.378   5.863  0.00  0.00     0.023 C 
HETATM    8  C   UNK N   1      29.638  16.481   4.994  0.00  0.00     0.057 C 
HETATM    9  C   UNK N   1      32.984  17.532   6.871  0.00  0.00     0.236 C 
HETATM   10  C   UNK N   1      32.438  17.357   4.290  0.00  0.00     0.016 C 
HETATM   11  C   UNK N   1      31.394  16.798   3.265  0.00  0.00     0.042 C 
HETATM   12  C   UNK N   1      31.546  15.037   7.276  0.00  0.00     0.048 C 
HETATM   13  C   UNK N   1      33.483  14.934   5.812  0.00  0.00    -0.003 A 
HETATM   14  C   UNK N   1      34.470  17.034   6.731  0.00  0.00     0.075 C 
HETATM   15  C   UNK N   1      32.327  15.699   8.420  0.00  0.00     0.273 C 
HETATM   16  C   UNK N   1      34.614  15.602   6.238  0.00  0.00    -0.046 A 
HETATM   17  C   UNK N   1      33.498  13.744   5.183  0.00  0.00     0.110 A 
HETATM   18  C   UNK N   1      31.302  17.853   8.642  0.00  0.00     0.310 C 
HETATM   19  C   UNK N   1      35.850  14.956   6.066  0.00  0.00     0.011 A 
HETATM   20  C   UNK N   1      34.698  13.059   5.000  0.00  0.00     0.099 A 
HETATM   21  C   UNK N   1      35.890  13.667   5.469  0.00  0.00     0.040 A 
ENDROOT
BRANCH   8  22
HETATM   22  C   UNK N   1      28.472  17.367   4.396  0.00  0.00     0.061 C 
HETATM   23  C   UNK N   1      27.083  16.857   4.750  0.00  0.00     0.046 C 
BRANCH  22  24
HETATM   24  O   UNK N   1      28.541  17.381   2.998  0.00  0.00    -0.390 OA
HETATM   25  H   UNK N   1      27.763  17.146   2.467  0.00  0.00     0.210 HD
ENDBRANCH  22  24
BRANCH  22  26
HETATM   26  C   UNK N   1      28.553  18.816   4.893  0.00  0.00     0.037 C 
BRANCH  26  27
HETATM   27  C   UNK N   1      27.328  19.649   4.499  0.00  0.00    -0.002 C 
HETATM   28  C   UNK N   1      27.188  20.868   5.401  0.00  0.00     0.005 C 
ENDBRANCH  26  27
ENDBRANCH  22  26
ENDBRANCH   8  22
BRANCH   5  29
HETATM   29  O   UNK N   1      29.630  14.967   3.074  0.00  0.00    -0.382 OA
HETATM   30  C   UNK N   1      29.071  13.845   3.709  0.00  0.00     0.202 C 
ENDBRANCH   5  29
BRANCH  20  31
HETATM   31  O   UNK N   1      34.738  11.881   4.357  0.00  0.00    -0.358 OA
HETATM   32  H   UNK N   1      35.332  11.710   3.653  0.00  0.00     0.217 HD
ENDBRANCH  20  31
TORSDOF 6
ENDMDL
MODEL 9
REMARK VINA RESULT:      -6.0      2.182      5.969
REMARK  6 active torsions:
REMARK  status: ('A' for Active; 'I' for Inactive)
REMARK    1  A    between atoms: C_8  and  O_2 
REMARK    2  A    between atoms: C_18  and  O_3 
REMARK    3  A    between atoms: O_4  and  C_26 
REMARK    4  A    between atoms: C_11  and  C_18 
REMARK    5  A    between atoms: C_18  and  C_22 
REMARK    6  A    between atoms: C_22  and  C_29 
ROOT
HETATM    1  O   UNK N   1      30.003  17.088   7.640  0.00  0.00    -0.338 OA
HETATM    2  N   UNK N   1      29.693  14.559   3.214  0.00  0.00     0.090 N 
HETATM    3  C   UNK N   1      31.316  16.139   4.362  0.00  0.00     0.006 C 
HETATM    4  C   UNK N   1      30.405  16.080   5.588  0.00  0.00     0.031 C 
HETATM    5  C   UNK N   1      32.667  16.488   6.664  0.00  0.00     0.094 C 
HETATM    6  C   UNK N   1      31.071  16.507   6.919  0.00  0.00     0.178 C 
HETATM    7  C   UNK N   1      32.410  15.071   4.530  0.00  0.00     0.023 C 
HETATM    8  C   UNK N   1      33.059  15.123   5.949  0.00  0.00     0.057 C 
HETATM    9  C   UNK N   1      30.354  15.890   3.136  0.00  0.00     0.236 C 
HETATM   10  C   UNK N   1      32.093  17.481   4.334  0.00  0.00     0.016 C 
HETATM   11  C   UNK N   1      33.070  17.576   5.554  0.00  0.00     0.042 C 
HETATM   12  C   UNK N   1      29.792  14.670   5.715  0.00  0.00     0.048 C 
HETATM   13  C   UNK N   1      29.322  17.048   5.526  0.00  0.00    -0.003 A 
HETATM   14  C   UNK N   1      29.222  16.977   3.033  0.00  0.00     0.075 C 
HETATM   15  C   UNK N   1      28.969  14.312   4.470  0.00  0.00     0.273 C 
HETATM   16  C   UNK N   1      28.685  17.461   4.372  0.00  0.00    -0.046 A 
HETATM   17  C   UNK N   1      29.070  17.547   6.751  0.00  0.00     0.110 A 
HETATM   18  C   UNK N   1      30.594  13.446   2.938  0.00  0.00     0.310 C 
HETATM   19  C   UNK N   1      27.657  18.409   4.505  0.00  0.00     0.011 A 
HETATM   20  C   UNK N   1      28.052  18.481   6.935  0.00  0.00     0.099 A 
HETATM   21  C   UNK N   1      27.320  18.901   5.795  0.00  0.00     0.040 A 
ENDROOT
BRANCH   8  22
HETATM   22  C   UNK N   1      34.603  14.798   5.832  0.00  0.00     0.061 C 
HETATM   23  C   UNK N   1      35.073  13.733   6.810  0.00  0.00     0.046 C 
BRANCH  22  24
HETATM   24  O   UNK N   1      35.363  15.943   6.103  0.00  0.00    -0.390 OA
HETATM   25  H   UNK N   1      36.230  16.064   5.686  0.00  0.00     0.210 HD
ENDBRANCH  22  24
BRANCH  22  26
HETATM   26  C   UNK N   1      34.970  14.304   4.427  0.00  0.00     0.037 C 
BRANCH  26  27
HETATM   27  C   UNK N   1      36.304  13.549   4.391  0.00  0.00    -0.002 C 
HETATM   28  C   UNK N   1      36.478  12.816   3.068  0.00  0.00     0.005 C 
ENDBRANCH  26  27
ENDBRANCH  22  26
ENDBRANCH   8  22
BRANCH   5  29
HETATM   29  O   UNK N   1      33.395  16.584   7.880  0.00  0.00    -0.382 OA
HETATM   30  C   UNK N   1      33.528  17.929   8.267  0.00  0.00     0.202 C 
ENDBRANCH   5  29
BRANCH  20  31
HETATM   31  O   UNK N   1      27.798  19.006   8.144  0.00  0.00    -0.358 OA
HETATM   32  H   UNK N   1      28.447  19.060   8.818  0.00  0.00     0.217 HD
ENDBRANCH  20  31
TORSDOF 6
ENDMDL
