MODEL 1
REMARK VINA RESULT:      -8.0      0.000      0.000
REMARK  4 active torsions:
REMARK  status: ('A' for Active; 'I' for Inactive)
REMARK    1  A    between atoms: C_16  and  O_2 
REMARK    2  A    between atoms: O_2  and  C_24 
REMARK    3  A    between atoms: O_3  and  C_22 
REMARK    4  A    between atoms: O_3  and  C_26 
ROOT
HETATM    1  O   UNK N   1      31.060  17.187   7.296  0.00  0.00    -0.338 OA
HETATM    2  N   UNK N   1      30.798  13.780   3.435  0.00  0.00     0.089 N 
HETATM    3  C   UNK N   1      31.457  15.800   5.454  0.00  0.00     0.030 C 
HETATM    4  C   UNK N   1      32.193  15.756   4.117  0.00  0.00     0.057 C 
HETATM    5  C   UNK N   1      31.175  15.164   3.072  0.00  0.00     0.235 C 
HETATM    6  C   UNK N   1      32.129  16.534   6.663  0.00  0.00     0.176 C 
HETATM    7  C   UNK N   1      31.065  14.365   5.856  0.00  0.00     0.048 C 
HETATM    8  C   UNK N   1      30.235  16.603   5.331  0.00  0.00    -0.003 A 
HETATM    9  C   UNK N   1      29.860  16.006   2.938  0.00  0.00     0.075 C 
HETATM   10  C   UNK N   1      30.218  13.668   4.781  0.00  0.00     0.273 C 
HETATM   11  C   UNK N   1      29.411  16.664   4.224  0.00  0.00    -0.046 A 
HETATM   12  C   UNK N   1      33.130  17.627   6.189  0.00  0.00     0.185 C 
HETATM   13  C   UNK N   1      32.713  17.122   3.758  0.00  0.00    -0.020 C 
HETATM   14  C   UNK N   1      30.025  17.309   6.455  0.00  0.00     0.111 A 
HETATM   15  C   UNK N   1      33.204  17.943   4.702  0.00  0.00     0.004 C 
HETATM   16  C   UNK N   1      31.921  12.859   3.307  0.00  0.00     0.310 C 
HETATM   17  C   UNK N   1      28.251  17.448   4.310  0.00  0.00     0.011 A 
HETATM   18  C   UNK N   1      28.873  18.094   6.604  0.00  0.00     0.113 A 
HETATM   19  C   UNK N   1      27.967  18.137   5.512  0.00  0.00     0.041 A 
ENDROOT
BRANCH  12  20
HETATM   20  O   UNK N   1      34.363  17.571   6.820  0.00  0.00    -0.310 OA
BRANCH  20  21
HETATM   21  C   UNK N   1      34.613  18.009   8.080  0.00  0.00     0.255 C 
HETATM   22  O   UNK N   1      34.960  19.161   8.291  0.00  0.00    -0.266 OA
HETATM   23  C   UNK N   1      34.475  17.064   9.223  0.00  0.00     0.126 C 
ENDBRANCH  20  21
ENDBRANCH  12  20
BRANCH  18  24
HETATM   24  O   UNK N   1      28.669  18.785   7.759  0.00  0.00    -0.276 OA
BRANCH  24  25
HETATM   25  C   UNK N   1      28.594  18.267   9.019  0.00  0.00     0.260 C 
HETATM   26  O   UNK N   1      27.667  17.551   9.363  0.00  0.00    -0.265 OA
HETATM   27  C   UNK N   1      29.666  18.587  10.002  0.00  0.00     0.126 C 
ENDBRANCH  24  25
ENDBRANCH  18  24
TORSDOF 4
ENDMDL
MODEL 2
REMARK VINA RESULT:      -7.6      7.975     10.147
REMARK  4 active torsions:
REMARK  status: ('A' for Active; 'I' for Inactive)
REMARK    1  A    between atoms: C_16  and  O_2 
REMARK    2  A    between atoms: O_2  and  C_24 
REMARK    3  A    between atoms: O_3  and  C_22 
REMARK    4  A    between atoms: O_3  and  C_26 
ROOT
HETATM    1  O   UNK N   1      21.832  17.999   6.478  0.00  0.00    -0.338 OA
HETATM    2  N   UNK N   1      23.886  14.567   3.224  0.00  0.00     0.089 N 
HETATM    3  C   UNK N   1      22.547  16.769   4.621  0.00  0.00     0.030 C 
HETATM    4  C   UNK N   1      22.120  16.355   3.215  0.00  0.00     0.057 C 
HETATM    5  C   UNK N   1      22.433  14.817   3.093  0.00  0.00     0.235 C 
HETATM    6  C   UNK N   1      22.174  18.202   5.132  0.00  0.00     0.176 C 
HETATM    7  C   UNK N   1      24.061  16.527   4.775  0.00  0.00     0.048 C 
HETATM    8  C   UNK N   1      21.839  15.962   5.621  0.00  0.00    -0.003 A 
HETATM    9  C   UNK N   1      21.692  13.944   4.163  0.00  0.00     0.075 C 
HETATM   10  C   UNK N   1      24.452  15.071   4.485  0.00  0.00     0.273 C 
HETATM   11  C   UNK N   1      21.499  14.628   5.498  0.00  0.00    -0.046 A 
HETATM   12  C   UNK N   1      20.917  18.764   4.409  0.00  0.00     0.185 C 
HETATM   13  C   UNK N   1      20.675  16.705   2.980  0.00  0.00    -0.020 C 
HETATM   14  C   UNK N   1      21.533  16.712   6.695  0.00  0.00     0.111 A 
HETATM   15  C   UNK N   1      20.152  17.842   3.470  0.00  0.00     0.004 C 
HETATM   16  C   UNK N   1      24.635  15.111   2.098  0.00  0.00     0.310 C 
HETATM   17  C   UNK N   1      20.870  14.007   6.586  0.00  0.00     0.011 A 
HETATM   18  C   UNK N   1      20.921  16.139   7.819  0.00  0.00     0.113 A 
HETATM   19  C   UNK N   1      20.610  14.755   7.758  0.00  0.00     0.041 A 
ENDROOT
BRANCH  12  20
HETATM   20  O   UNK N   1      21.073  20.056   3.933  0.00  0.00    -0.310 OA
BRANCH  20  21
HETATM   21  C   UNK N   1      21.756  20.393   2.808  0.00  0.00     0.255 C 
HETATM   22  O   UNK N   1      22.915  20.773   2.863  0.00  0.00    -0.266 OA
HETATM   23  C   UNK N   1      21.073  20.312   1.487  0.00  0.00     0.126 C 
ENDBRANCH  20  21
ENDBRANCH  12  20
BRANCH  18  24
HETATM   24  O   UNK N   1      20.639  16.912   8.903  0.00  0.00    -0.276 OA
BRANCH  24  25
HETATM   25  C   UNK N   1      19.621  17.812   9.023  0.00  0.00     0.260 C 
HETATM   26  O   UNK N   1      19.834  19.001   9.194  0.00  0.00    -0.265 OA
HETATM   27  C   UNK N   1      18.213  17.331   8.948  0.00  0.00     0.126 C 
ENDBRANCH  24  25
ENDBRANCH  18  24
TORSDOF 4
ENDMDL
MODEL 3
REMARK VINA RESULT:      -7.6     13.538     15.767
REMARK  4 active torsions:
REMARK  status: ('A' for Active; 'I' for Inactive)
REMARK    1  A    between atoms: C_16  and  O_2 
REMARK    2  A    between atoms: O_2  and  C_24 
REMARK    3  A    between atoms: O_3  and  C_22 
REMARK    4  A    between atoms: O_3  and  C_26 
ROOT
HETATM    1  O   UNK N   1      27.583  24.819  -4.412  0.00  0.00    -0.338 OA
HETATM    2  N   UNK N   1      27.498  29.928  -3.722  0.00  0.00     0.089 N 
HETATM    3  C   UNK N   1      27.288  27.134  -4.582  0.00  0.00     0.030 C 
HETATM    4  C   UNK N   1      27.265  28.273  -5.598  0.00  0.00     0.057 C 
HETATM    5  C   UNK N   1      28.118  29.439  -4.974  0.00  0.00     0.235 C 
HETATM    6  C   UNK N   1      26.700  25.742  -4.994  0.00  0.00     0.176 C 
HETATM    7  C   UNK N   1      26.636  27.619  -3.273  0.00  0.00     0.048 C 
HETATM    8  C   UNK N   1      28.672  26.739  -4.298  0.00  0.00    -0.003 A 
HETATM    9  C   UNK N   1      29.596  29.028  -4.655  0.00  0.00     0.075 C 
HETATM   10  C   UNK N   1      27.318  28.875  -2.711  0.00  0.00     0.273 C 
HETATM   11  C   UNK N   1      29.761  27.586  -4.230  0.00  0.00    -0.046 A 
HETATM   12  C   UNK N   1      26.748  25.528  -6.534  0.00  0.00     0.185 C 
HETATM   13  C   UNK N   1      27.768  27.795  -6.934  0.00  0.00    -0.020 C 
HETATM   14  C   UNK N   1      28.753  25.407  -4.130  0.00  0.00     0.111 A 
HETATM   15  C   UNK N   1      27.468  26.565  -7.384  0.00  0.00     0.004 C 
HETATM   16  C   UNK N   1      26.224  30.593  -3.969  0.00  0.00     0.310 C 
HETATM   17  C   UNK N   1      31.004  27.032  -3.890  0.00  0.00     0.011 A 
HETATM   18  C   UNK N   1      29.965  24.802  -3.771  0.00  0.00     0.113 A 
HETATM   19  C   UNK N   1      31.099  25.645  -3.630  0.00  0.00     0.041 A 
ENDROOT
BRANCH  12  20
HETATM   20  O   UNK N   1      25.554  25.080  -7.077  0.00  0.00    -0.310 OA
BRANCH  20  21
HETATM   21  C   UNK N   1      25.370  23.865  -7.655  0.00  0.00     0.255 C 
HETATM   22  O   UNK N   1      24.635  23.730  -8.621  0.00  0.00    -0.266 OA
HETATM   23  C   UNK N   1      26.067  22.675  -7.091  0.00  0.00     0.126 C 
ENDBRANCH  20  21
ENDBRANCH  12  20
BRANCH  18  24
HETATM   24  O   UNK N   1      30.021  23.455  -3.586  0.00  0.00    -0.276 OA
BRANCH  24  25
HETATM   25  C   UNK N   1      30.646  22.795  -2.569  0.00  0.00     0.260 C 
HETATM   26  O   UNK N   1      30.385  23.026  -1.399  0.00  0.00    -0.265 OA
HETATM   27  C   UNK N   1      31.676  21.770  -2.893  0.00  0.00     0.126 C 
ENDBRANCH  24  25
ENDBRANCH  18  24
TORSDOF 4
ENDMDL
MODEL 4
REMARK VINA RESULT:      -7.5      1.557      2.049
REMARK  4 active torsions:
REMARK  status: ('A' for Active; 'I' for Inactive)
REMARK    1  A    between atoms: C_16  and  O_2 
REMARK    2  A    between atoms: O_2  and  C_24 
REMARK    3  A    between atoms: O_3  and  C_22 
REMARK    4  A    between atoms: O_3  and  C_26 
ROOT
HETATM    1  O   UNK N   1      30.704  16.051   8.044  0.00  0.00    -0.338 OA
HETATM    2  N   UNK N   1      33.247  15.058   3.669  0.00  0.00     0.089 N 
HETATM    3  C   UNK N   1      32.291  15.766   6.348  0.00  0.00     0.030 C 
HETATM    4  C   UNK N   1      33.572  16.376   5.784  0.00  0.00     0.057 C 
HETATM    5  C   UNK N   1      33.387  16.424   4.222  0.00  0.00     0.235 C 
HETATM    6  C   UNK N   1      32.072  15.771   7.899  0.00  0.00     0.176 C 
HETATM    7  C   UNK N   1      32.132  14.338   5.793  0.00  0.00     0.048 C 
HETATM    8  C   UNK N   1      31.130  16.562   5.936  0.00  0.00    -0.003 A 
HETATM    9  C   UNK N   1      32.144  17.262   3.767  0.00  0.00     0.075 C 
HETATM   10  C   UNK N   1      32.131  14.304   4.258  0.00  0.00     0.273 C 
HETATM   11  C   UNK N   1      30.971  17.199   4.720  0.00  0.00    -0.046 A 
HETATM   12  C   UNK N   1      32.860  16.920   8.590  0.00  0.00     0.185 C 
HETATM   13  C   UNK N   1      33.835  17.719   6.411  0.00  0.00    -0.020 C 
HETATM   14  C   UNK N   1      30.223  16.614   6.927  0.00  0.00     0.111 A 
HETATM   15  C   UNK N   1      33.572  17.937   7.710  0.00  0.00     0.004 C 
HETATM   16  C   UNK N   1      34.480  14.290   3.798  0.00  0.00     0.310 C 
HETATM   17  C   UNK N   1      29.763  17.871   4.483  0.00  0.00     0.011 A 
HETATM   18  C   UNK N   1      28.990  17.255   6.739  0.00  0.00     0.113 A 
HETATM   19  C   UNK N   1      28.761  17.871   5.481  0.00  0.00     0.041 A 
ENDROOT
BRANCH  12  20
HETATM   20  O   UNK N   1      33.593  16.513   9.694  0.00  0.00    -0.310 OA
BRANCH  20  21
HETATM   21  C   UNK N   1      34.947  16.417   9.737  0.00  0.00     0.255 C 
HETATM   22  O   UNK N   1      35.626  17.290  10.253  0.00  0.00    -0.266 OA
HETATM   23  C   UNK N   1      35.614  15.230   9.131  0.00  0.00     0.126 C 
ENDBRANCH  20  21
ENDBRANCH  12  20
BRANCH  18  24
HETATM   24  O   UNK N   1      28.078  17.277   7.749  0.00  0.00    -0.276 OA
BRANCH  24  25
HETATM   25  C   UNK N   1      28.317  17.571   9.060  0.00  0.00     0.260 C 
HETATM   26  O   UNK N   1      27.842  16.901   9.963  0.00  0.00    -0.265 OA
HETATM   27  C   UNK N   1      29.174  18.740   9.398  0.00  0.00     0.126 C 
ENDBRANCH  24  25
ENDBRANCH  18  24
TORSDOF 4
ENDMDL
MODEL 5
REMARK VINA RESULT:      -7.4     13.661     15.707
REMARK  4 active torsions:
REMARK  status: ('A' for Active; 'I' for Inactive)
REMARK    1  A    between atoms: C_16  and  O_2 
REMARK    2  A    between atoms: O_2  and  C_24 
REMARK    3  A    between atoms: O_3  and  C_22 
REMARK    4  A    between atoms: O_3  and  C_26 
ROOT
HETATM    1  O   UNK N   1      29.324  25.286  -6.139  0.00  0.00    -0.338 OA
HETATM    2  N   UNK N   1      26.255  29.115  -4.554  0.00  0.00     0.089 N 
HETATM    3  C   UNK N   1      27.985  26.779  -4.934  0.00  0.00     0.030 C 
HETATM    4  C   UNK N   1      26.986  26.838  -3.781  0.00  0.00     0.057 C 
HETATM    5  C   UNK N   1      25.793  27.736  -4.276  0.00  0.00     0.235 C 
HETATM    6  C   UNK N   1      29.195  25.789  -4.835  0.00  0.00     0.176 C 
HETATM    7  C   UNK N   1      28.489  28.204  -5.232  0.00  0.00     0.048 C 
HETATM    8  C   UNK N   1      27.335  26.250  -6.138  0.00  0.00    -0.003 A 
HETATM    9  C   UNK N   1      25.095  27.189  -5.568  0.00  0.00     0.075 C 
HETATM   10  C   UNK N   1      27.341  29.175  -5.544  0.00  0.00     0.273 C 
HETATM   11  C   UNK N   1      26.029  26.482  -6.525  0.00  0.00    -0.046 A 
HETATM   12  C   UNK N   1      28.881  24.586  -3.899  0.00  0.00     0.185 C 
HETATM   13  C   UNK N   1      26.576  25.449  -3.368  0.00  0.00    -0.020 C 
HETATM   14  C   UNK N   1      28.187  25.468  -6.824  0.00  0.00     0.111 A 
HETATM   15  C   UNK N   1      27.466  24.442  -3.359  0.00  0.00     0.004 C 
HETATM   16  C   UNK N   1      26.662  29.808  -3.337  0.00  0.00     0.310 C 
HETATM   17  C   UNK N   1      25.597  25.934  -7.742  0.00  0.00     0.011 A 
HETATM   18  C   UNK N   1      27.816  24.911  -8.055  0.00  0.00     0.113 A 
HETATM   19  C   UNK N   1      26.501  25.175  -8.521  0.00  0.00     0.041 A 
ENDROOT
BRANCH  12  20
HETATM   20  O   UNK N   1      29.874  24.326  -2.967  0.00  0.00    -0.310 OA
BRANCH  20  21
HETATM   21  C   UNK N   1      30.184  23.096  -2.484  0.00  0.00     0.255 C 
HETATM   22  O   UNK N   1      30.449  22.929  -1.304  0.00  0.00    -0.266 OA
HETATM   23  C   UNK N   1      30.214  21.932  -3.414  0.00  0.00     0.126 C 
ENDBRANCH  20  21
ENDBRANCH  12  20
BRANCH  18  24
HETATM   24  O   UNK N   1      28.701  24.140  -8.744  0.00  0.00    -0.276 OA
BRANCH  24  25
HETATM   25  C   UNK N   1      28.666  22.784  -8.887  0.00  0.00     0.260 C 
HETATM   26  O   UNK N   1      28.834  22.249  -9.971  0.00  0.00    -0.265 OA
HETATM   27  C   UNK N   1      28.411  21.933  -7.692  0.00  0.00     0.126 C 
ENDBRANCH  24  25
ENDBRANCH  18  24
TORSDOF 4
ENDMDL
MODEL 6
REMARK VINA RESULT:      -7.3     12.728     14.905
REMARK  4 active torsions:
REMARK  status: ('A' for Active; 'I' for Inactive)
REMARK    1  A    between atoms: C_16  and  O_2 
REMARK    2  A    between atoms: O_2  and  C_24 
REMARK    3  A    between atoms: O_3  and  C_22 
REMARK    4  A    between atoms: O_3  and  C_26 
ROOT
HETATM    1  O   UNK N   1      29.672  24.806  -4.905  0.00  0.00    -0.338 OA
HETATM    2  N   UNK N   1      26.939  24.273  -9.245  0.00  0.00     0.089 N 
HETATM    3  C   UNK N   1      28.038  24.804  -6.580  0.00  0.00     0.030 C 
HETATM    4  C   UNK N   1      26.535  24.650  -6.793  0.00  0.00     0.057 C 
HETATM    5  C   UNK N   1      26.360  23.679  -8.020  0.00  0.00     0.235 C 
HETATM    6  C   UNK N   1      28.547  25.547  -5.299  0.00  0.00     0.176 C 
HETATM    7  C   UNK N   1      28.661  25.432  -7.841  0.00  0.00     0.048 C 
HETATM    8  C   UNK N   1      28.653  23.490  -6.358  0.00  0.00    -0.003 A 
HETATM    9  C   UNK N   1      27.020  22.275  -7.802  0.00  0.00     0.075 C 
HETATM   10  C   UNK N   1      28.363  24.617  -9.108  0.00  0.00     0.273 C 
HETATM   11  C   UNK N   1      28.280  22.305  -6.966  0.00  0.00    -0.046 A 
HETATM   12  C   UNK N   1      27.511  25.476  -4.140  0.00  0.00     0.185 C 
HETATM   13  C   UNK N   1      25.870  24.168  -5.532  0.00  0.00    -0.020 C 
HETATM   14  C   UNK N   1      29.637  23.581  -5.447  0.00  0.00     0.111 A 
HETATM   15  C   UNK N   1      26.278  24.604  -4.328  0.00  0.00     0.004 C 
HETATM   16  C   UNK N   1      26.193  25.445  -9.687  0.00  0.00     0.310 C 
HETATM   17  C   UNK N   1      29.023  21.153  -6.670  0.00  0.00     0.011 A 
HETATM   18  C   UNK N   1      30.424  22.467  -5.127  0.00  0.00     0.113 A 
HETATM   19  C   UNK N   1      30.115  21.242  -5.774  0.00  0.00     0.041 A 
ENDROOT
BRANCH  12  20
HETATM   20  O   UNK N   1      27.256  26.698  -3.539  0.00  0.00    -0.310 OA
BRANCH  20  21
HETATM   21  C   UNK N   1      26.197  27.499  -3.823  0.00  0.00     0.255 C 
HETATM   22  O   UNK N   1      25.384  27.799  -2.963  0.00  0.00    -0.266 OA
HETATM   23  C   UNK N   1      26.018  28.008  -5.211  0.00  0.00     0.126 C 
ENDBRANCH  20  21
ENDBRANCH  12  20
BRANCH  18  24
HETATM   24  O   UNK N   1      31.429  22.587  -4.217  0.00  0.00    -0.276 OA
BRANCH  24  25
HETATM   25  C   UNK N   1      31.351  22.346  -2.876  0.00  0.00     0.260 C 
HETATM   26  O   UNK N   1      32.211  21.710  -2.288  0.00  0.00    -0.265 OA
HETATM   27  C   UNK N   1      30.184  22.866  -2.111  0.00  0.00     0.126 C 
ENDBRANCH  24  25
ENDBRANCH  18  24
TORSDOF 4
ENDMDL
MODEL 7
REMARK VINA RESULT:      -7.2      7.515     10.360
REMARK  4 active torsions:
REMARK  status: ('A' for Active; 'I' for Inactive)
REMARK    1  A    between atoms: C_16  and  O_2 
REMARK    2  A    between atoms: O_2  and  C_24 
REMARK    3  A    between atoms: O_3  and  C_22 
REMARK    4  A    between atoms: O_3  and  C_26 
ROOT
HETATM    1  O   UNK N   1      34.588  13.464  13.193  0.00  0.00    -0.338 OA
HETATM    2  N   UNK N   1      36.023   8.739  11.705  0.00  0.00     0.089 N 
HETATM    3  C   UNK N   1      35.314  11.244  13.054  0.00  0.00     0.030 C 
HETATM    4  C   UNK N   1      36.282  10.252  13.695  0.00  0.00     0.057 C 
HETATM    5  C   UNK N   1      37.000   9.506  12.510  0.00  0.00     0.235 C 
HETATM    6  C   UNK N   1      34.592  12.292  13.967  0.00  0.00     0.176 C 
HETATM    7  C   UNK N   1      34.280  10.464  12.219  0.00  0.00     0.048 C 
HETATM    8  C   UNK N   1      36.043  12.156  12.165  0.00  0.00    -0.003 A 
HETATM    9  C   UNK N   1      37.774  10.469  11.546  0.00  0.00     0.075 C 
HETATM   10  C   UNK N   1      34.939   9.571  11.159  0.00  0.00     0.273 C 
HETATM   11  C   UNK N   1      37.130  11.827  11.377  0.00  0.00    -0.046 A 
HETATM   12  C   UNK N   1      35.405  12.588  15.260  0.00  0.00     0.185 C 
HETATM   13  C   UNK N   1      37.223  10.964  14.630  0.00  0.00    -0.020 C 
HETATM   14  C   UNK N   1      35.520  13.392  12.234  0.00  0.00     0.111 A 
HETATM   15  C   UNK N   1      36.796  11.985  15.391  0.00  0.00     0.004 C 
HETATM   16  C   UNK N   1      35.455   7.625  12.455  0.00  0.00     0.310 C 
HETATM   17  C   UNK N   1      37.664  12.823  10.546  0.00  0.00     0.011 A 
HETATM   18  C   UNK N   1      36.002  14.421  11.412  0.00  0.00     0.113 A 
HETATM   19  C   UNK N   1      37.079  14.111  10.542  0.00  0.00     0.041 A 
ENDROOT
BRANCH  12  20
HETATM   20  O   UNK N   1      34.651  12.536  16.421  0.00  0.00    -0.310 OA
BRANCH  20  21
HETATM   21  C   UNK N   1      35.118  12.818  17.665  0.00  0.00     0.255 C 
HETATM   22  O   UNK N   1      35.331  11.930  18.476  0.00  0.00    -0.266 OA
HETATM   23  C   UNK N   1      35.360  14.237  18.050  0.00  0.00     0.126 C 
ENDBRANCH  20  21
ENDBRANCH  12  20
BRANCH  18  24
HETATM   24  O   UNK N   1      35.444  15.661  11.482  0.00  0.00    -0.276 OA
BRANCH  24  25
HETATM   25  C   UNK N   1      35.134  16.478  10.435  0.00  0.00     0.260 C 
HETATM   26  O   UNK N   1      35.655  17.574  10.302  0.00  0.00    -0.265 OA
HETATM   27  C   UNK N   1      34.132  16.026   9.431  0.00  0.00     0.126 C 
ENDBRANCH  24  25
ENDBRANCH  18  24
TORSDOF 4
ENDMDL
MODEL 8
REMARK VINA RESULT:      -6.9     13.588     15.559
REMARK  4 active torsions:
REMARK  status: ('A' for Active; 'I' for Inactive)
REMARK    1  A    between atoms: C_16  and  O_2 
REMARK    2  A    between atoms: O_2  and  C_24 
REMARK    3  A    between atoms: O_3  and  C_22 
REMARK    4  A    between atoms: O_3  and  C_26 
ROOT
HETATM    1  O   UNK N   1      28.513  25.897  -3.571  0.00  0.00    -0.338 OA
HETATM    2  N   UNK N   1      29.333  27.648  -8.351  0.00  0.00     0.089 N 
HETATM    3  C   UNK N   1      28.445  26.998  -5.634  0.00  0.00     0.030 C 
HETATM    4  C   UNK N   1      27.470  27.561  -6.666  0.00  0.00     0.057 C 
HETATM    5  C   UNK N   1      27.993  27.085  -8.072  0.00  0.00     0.235 C 
HETATM    6  C   UNK N   1      28.088  27.120  -4.114  0.00  0.00     0.176 C 
HETATM    7  C   UNK N   1      29.846  27.582  -5.899  0.00  0.00     0.048 C 
HETATM    8  C   UNK N   1      28.515  25.538  -5.751  0.00  0.00    -0.003 A 
HETATM    9  C   UNK N   1      28.084  25.527  -8.208  0.00  0.00     0.075 C 
HETATM   10  C   UNK N   1      30.333  27.304  -7.328  0.00  0.00     0.273 C 
HETATM   11  C   UNK N   1      28.445  24.812  -6.925  0.00  0.00    -0.046 A 
HETATM   12  C   UNK N   1      26.552  27.223  -3.888  0.00  0.00     0.185 C 
HETATM   13  C   UNK N   1      26.064  27.122  -6.356  0.00  0.00    -0.020 C 
HETATM   14  C   UNK N   1      28.637  24.976  -4.536  0.00  0.00     0.111 A 
HETATM   15  C   UNK N   1      25.633  27.038  -5.086  0.00  0.00     0.004 C 
HETATM   16  C   UNK N   1      29.290  29.096  -8.526  0.00  0.00     0.310 C 
HETATM   17  C   UNK N   1      28.588  23.419  -6.846  0.00  0.00     0.011 A 
HETATM   18  C   UNK N   1      28.801  23.591  -4.398  0.00  0.00     0.113 A 
HETATM   19  C   UNK N   1      28.797  22.813  -5.586  0.00  0.00     0.041 A 
ENDROOT
BRANCH  12  20
HETATM   20  O   UNK N   1      26.178  28.253  -3.039  0.00  0.00    -0.310 OA
BRANCH  20  21
HETATM   21  C   UNK N   1      26.817  29.446  -2.933  0.00  0.00     0.255 C 
HETATM   22  O   UNK N   1      27.512  29.706  -1.963  0.00  0.00    -0.266 OA
HETATM   23  C   UNK N   1      26.656  30.459  -4.013  0.00  0.00     0.126 C 
ENDBRANCH  20  21
ENDBRANCH  12  20
BRANCH  18  24
HETATM   24  O   UNK N   1      28.944  23.046  -3.159  0.00  0.00    -0.276 OA
BRANCH  24  25
HETATM   25  C   UNK N   1      30.113  22.696  -2.550  0.00  0.00     0.260 C 
HETATM   26  O   UNK N   1      30.437  23.162  -1.469  0.00  0.00    -0.265 OA
HETATM   27  C   UNK N   1      31.020  21.725  -3.221  0.00  0.00     0.126 C 
ENDBRANCH  24  25
ENDBRANCH  18  24
TORSDOF 4
ENDMDL
MODEL 9
REMARK VINA RESULT:      -6.7      7.913     11.221
REMARK  4 active torsions:
REMARK  status: ('A' for Active; 'I' for Inactive)
REMARK    1  A    between atoms: C_16  and  O_2 
REMARK    2  A    between atoms: O_2  and  C_24 
REMARK    3  A    between atoms: O_3  and  C_22 
REMARK    4  A    between atoms: O_3  and  C_26 
ROOT
HETATM    1  O   UNK N   1      36.216  12.120  11.528  0.00  0.00    -0.338 OA
HETATM    2  N   UNK N   1      37.820   9.299  15.536  0.00  0.00     0.089 N 
HETATM    3  C   UNK N   1      36.522  10.520  13.209  0.00  0.00     0.030 C 
HETATM    4  C   UNK N   1      35.748   9.595  14.145  0.00  0.00     0.057 C 
HETATM    5  C   UNK N   1      36.410   9.749  15.564  0.00  0.00     0.235 C 
HETATM    6  C   UNK N   1      35.977  10.756  11.759  0.00  0.00     0.176 C 
HETATM    7  C   UNK N   1      37.992  10.061  13.156  0.00  0.00     0.048 C 
HETATM    8  C   UNK N   1      36.479  11.898  13.711  0.00  0.00    -0.003 A 
HETATM    9  C   UNK N   1      36.381  11.217  16.110  0.00  0.00     0.075 C 
HETATM   10  C   UNK N   1      38.639  10.015  14.547  0.00  0.00     0.273 C 
HETATM   11  C   UNK N   1      36.503  12.279  15.040  0.00  0.00    -0.046 A 
HETATM   12  C   UNK N   1      34.440  10.530  11.676  0.00  0.00     0.185 C 
HETATM   13  C   UNK N   1      34.280   9.927  14.116  0.00  0.00    -0.020 C 
HETATM   14  C   UNK N   1      36.387  12.766  12.689  0.00  0.00     0.111 A 
HETATM   15  C   UNK N   1      33.676  10.285  12.970  0.00  0.00     0.004 C 
HETATM   16  C   UNK N   1      37.927   7.861  15.313  0.00  0.00     0.310 C 
HETATM   17  C   UNK N   1      36.510  13.652  15.329  0.00  0.00     0.011 A 
HETATM   18  C   UNK N   1      36.409  14.149  12.918  0.00  0.00     0.113 A 
HETATM   19  C   UNK N   1      36.494  14.585  14.266  0.00  0.00     0.041 A 
ENDROOT
BRANCH  12  20
HETATM   20  O   UNK N   1      34.048   9.719  10.623  0.00  0.00    -0.310 OA
BRANCH  20  21
HETATM   21  C   UNK N   1      32.791   9.662  10.112  0.00  0.00     0.255 C 
HETATM   22  O   UNK N   1      32.241  10.660   9.674  0.00  0.00    -0.266 OA
HETATM   23  C   UNK N   1      32.067   8.360  10.098  0.00  0.00     0.126 C 
ENDBRANCH  20  21
ENDBRANCH  12  20
BRANCH  18  24
HETATM   24  O   UNK N   1      36.336  15.010  11.867  0.00  0.00    -0.276 OA
BRANCH  24  25
HETATM   25  C   UNK N   1      35.201  15.508  11.295  0.00  0.00     0.260 C 
HETATM   26  O   UNK N   1      34.120  14.959  11.436  0.00  0.00    -0.265 OA
HETATM   27  C   UNK N   1      35.284  16.747  10.475  0.00  0.00     0.126 C 
ENDBRANCH  24  25
ENDBRANCH  18  24
TORSDOF 4
ENDMDL
