MODEL 1
REMARK VINA RESULT:      -7.3      0.000      0.000
REMARK  7 active torsions:
REMARK  status: ('A' for Active; 'I' for Inactive)
REMARK    1  A    between atoms: O_1  and  C_11 
REMARK    2  A    between atoms: N_3  and  C_10 
REMARK    3  A    between atoms: N_4  and  C_5 
REMARK    4  A    between atoms: N_4  and  C_12 
REMARK       I    between atoms: N_4  and  C_13 
REMARK    5  A    between atoms: C_10  and  C_11 
REMARK    6  A    between atoms: C_11  and  C_14 
REMARK    7  A    between atoms: C_13  and  C_15 
ROOT
HETATM    1  N   UNK N   1      34.860  14.788  10.937  0.00  0.00     0.091 N 
HETATM    2  C   UNK N   1      33.907  16.058   8.504  0.00  0.00     0.096 C 
HETATM    3  C   UNK N   1      33.117  14.967   9.220  0.00  0.00     0.056 C 
HETATM    4  C   UNK N   1      34.645  16.861   9.577  0.00  0.00     0.056 C 
HETATM    5  C   UNK N   1      34.132  14.058   9.894  0.00  0.00     0.274 C 
HETATM    6  C   UNK N   1      35.580  15.924  10.349  0.00  0.00     0.274 C 
ENDROOT
BRANCH   2   7
HETATM    7  N   UNK N   1      33.106  16.746   7.463  0.00  0.00    -0.313 N 
HETATM    8  C   UNK N   1      33.759  16.966   6.253  0.00  0.00     0.224 C 
HETATM    9  O   UNK N   1      34.925  16.604   6.126  0.00  0.00    -0.273 OA
BRANCH   7  10
HETATM   10  C   UNK N   1      31.738  17.223   7.709  0.00  0.00     0.037 A 
HETATM   11  C   UNK N   1      31.463  18.243   8.643  0.00  0.00     0.030 A 
HETATM   12  C   UNK N   1      30.160  18.670   8.913  0.00  0.00     0.002 A 
HETATM   13  C   UNK N   1      29.086  18.080   8.253  0.00  0.00     0.000 A 
HETATM   14  C   UNK N   1      29.320  17.072   7.321  0.00  0.00     0.002 A 
HETATM   15  C   UNK N   1      30.628  16.654   7.056  0.00  0.00     0.030 A 
ENDBRANCH   7  10
BRANCH   8  16
HETATM   16  C   UNK N   1      33.113  17.637   5.063  0.00  0.00     0.099 C 
HETATM   17  C   UNK N   1      32.932  16.714   3.866  0.00  0.00     0.014 C 
ENDBRANCH   8  16
ENDBRANCH   2   7
BRANCH   1  18
HETATM   18  C   UNK N   1      35.888  13.910  11.493  0.00  0.00     0.308 C 
BRANCH  18  19
HETATM   19  C   UNK N   1      35.291  12.782  12.334  0.00  0.00     0.179 C 
BRANCH  19  20
HETATM   20  O   UNK N   1      35.877  11.565  11.967  0.00  0.00    -0.389 OA
HETATM   21  H   UNK N   1      36.811  11.520  11.711  0.00  0.00     0.210 HD
ENDBRANCH  19  20
BRANCH  19  22
HETATM   22  C   UNK N   1      35.477  13.053  13.799  0.00  0.00    -0.028 A 
HETATM   23  C   UNK N   1      34.625  12.437  14.726  0.00  0.00     0.010 A 
HETATM   24  C   UNK N   1      34.794  12.656  16.095  0.00  0.00     0.001 A 
HETATM   25  C   UNK N   1      35.821  13.488  16.549  0.00  0.00     0.000 A 
HETATM   26  C   UNK N   1      36.679  14.102  15.632  0.00  0.00     0.001 A 
HETATM   27  C   UNK N   1      36.510  13.886  14.262  0.00  0.00     0.010 A 
ENDBRANCH  19  22
ENDBRANCH  18  19
ENDBRANCH   1  18
TORSDOF 7
ENDMDL
MODEL 2
REMARK VINA RESULT:      -7.2      1.689      8.790
REMARK  7 active torsions:
REMARK  status: ('A' for Active; 'I' for Inactive)
REMARK    1  A    between atoms: O_1  and  C_11 
REMARK    2  A    between atoms: N_3  and  C_10 
REMARK    3  A    between atoms: N_4  and  C_5 
REMARK    4  A    between atoms: N_4  and  C_12 
REMARK       I    between atoms: N_4  and  C_13 
REMARK    5  A    between atoms: C_10  and  C_11 
REMARK    6  A    between atoms: C_11  and  C_14 
REMARK    7  A    between atoms: C_13  and  C_15 
ROOT
HETATM    1  N   UNK N   1      34.863  15.610  10.205  0.00  0.00     0.091 N 
HETATM    2  C   UNK N   1      36.148  13.753  12.033  0.00  0.00     0.096 C 
HETATM    3  C   UNK N   1      36.101  15.255  12.293  0.00  0.00     0.056 C 
HETATM    4  C   UNK N   1      34.854  13.379  11.307  0.00  0.00     0.056 C 
HETATM    5  C   UNK N   1      36.092  15.938  10.935  0.00  0.00     0.274 C 
HETATM    6  C   UNK N   1      34.774  14.160   9.992  0.00  0.00     0.274 C 
ENDROOT
BRANCH   2   7
HETATM    7  N   UNK N   1      36.596  12.986  13.221  0.00  0.00    -0.313 N 
HETATM    8  C   UNK N   1      37.459  11.925  12.959  0.00  0.00     0.224 C 
HETATM    9  O   UNK N   1      37.777  11.683  11.798  0.00  0.00    -0.273 OA
BRANCH   7  10
HETATM   10  C   UNK N   1      36.114  13.282  14.577  0.00  0.00     0.037 A 
HETATM   11  C   UNK N   1      36.840  14.106  15.461  0.00  0.00     0.030 A 
HETATM   12  C   UNK N   1      36.409  14.356  16.766  0.00  0.00     0.002 A 
HETATM   13  C   UNK N   1      35.229  13.780  17.229  0.00  0.00     0.000 A 
HETATM   14  C   UNK N   1      34.483  12.964  16.383  0.00  0.00     0.002 A 
HETATM   15  C   UNK N   1      34.923  12.722  15.077  0.00  0.00     0.030 A 
ENDBRANCH   7  10
BRANCH   8  16
HETATM   16  C   UNK N   1      38.040  11.033  14.031  0.00  0.00     0.099 C 
HETATM   17  C   UNK N   1      37.218   9.778  14.290  0.00  0.00     0.014 C 
ENDBRANCH   8  16
ENDBRANCH   2   7
BRANCH   1  18
HETATM   18  C   UNK N   1      34.937  16.205   8.872  0.00  0.00     0.308 C 
BRANCH  18  19
HETATM   19  C   UNK N   1      34.073  17.460   8.751  0.00  0.00     0.179 C 
BRANCH  19  20
HETATM   20  O   UNK N   1      34.897  18.586   8.642  0.00  0.00    -0.389 OA
HETATM   21  H   UNK N   1      35.821  18.556   8.936  0.00  0.00     0.210 HD
ENDBRANCH  19  20
BRANCH  19  22
HETATM   22  C   UNK N   1      33.141  17.354   7.578  0.00  0.00    -0.028 A 
HETATM   23  C   UNK N   1      31.767  17.190   7.805  0.00  0.00     0.010 A 
HETATM   24  C   UNK N   1      30.878  17.113   6.731  0.00  0.00     0.001 A 
HETATM   25  C   UNK N   1      31.355  17.207   5.420  0.00  0.00     0.000 A 
HETATM   26  C   UNK N   1      32.722  17.376   5.185  0.00  0.00     0.001 A 
HETATM   27  C   UNK N   1      33.613  17.451   6.259  0.00  0.00     0.010 A 
ENDBRANCH  19  22
ENDBRANCH  18  19
ENDBRANCH   1  18
TORSDOF 7
ENDMDL
MODEL 3
REMARK VINA RESULT:      -7.1      2.076      3.225
REMARK  7 active torsions:
REMARK  status: ('A' for Active; 'I' for Inactive)
REMARK    1  A    between atoms: O_1  and  C_11 
REMARK    2  A    between atoms: N_3  and  C_10 
REMARK    3  A    between atoms: N_4  and  C_5 
REMARK    4  A    between atoms: N_4  and  C_12 
REMARK       I    between atoms: N_4  and  C_13 
REMARK    5  A    between atoms: C_10  and  C_11 
REMARK    6  A    between atoms: C_11  and  C_14 
REMARK    7  A    between atoms: C_13  and  C_15 
ROOT
HETATM    1  N   UNK N   1      35.447  13.639  13.245  0.00  0.00     0.091 N 
HETATM    2  C   UNK N   1      35.485  14.537  10.482  0.00  0.00     0.096 C 
HETATM    3  C   UNK N   1      34.707  13.304  10.930  0.00  0.00     0.056 C 
HETATM    4  C   UNK N   1      35.450  15.539  11.638  0.00  0.00     0.056 C 
HETATM    5  C   UNK N   1      35.461  12.711  12.109  0.00  0.00     0.274 C 
HETATM    6  C   UNK N   1      36.096  14.902  12.873  0.00  0.00     0.274 C 
ENDROOT
BRANCH   2   7
HETATM    7  N   UNK N   1      35.132  14.960   9.105  0.00  0.00    -0.313 N 
HETATM    8  C   UNK N   1      35.916  14.413   8.091  0.00  0.00     0.224 C 
HETATM    9  O   UNK N   1      36.832  13.652   8.386  0.00  0.00    -0.273 OA
BRANCH   7  10
HETATM   10  C   UNK N   1      34.071  15.937   8.829  0.00  0.00     0.037 A 
HETATM   11  C   UNK N   1      32.709  15.570   8.807  0.00  0.00     0.030 A 
HETATM   12  C   UNK N   1      31.699  16.486   8.503  0.00  0.00     0.002 A 
HETATM   13  C   UNK N   1      32.025  17.806   8.206  0.00  0.00     0.000 A 
HETATM   14  C   UNK N   1      33.359  18.206   8.222  0.00  0.00     0.002 A 
HETATM   15  C   UNK N   1      34.363  17.282   8.531  0.00  0.00     0.030 A 
ENDBRANCH   7  10
BRANCH   8  16
HETATM   16  C   UNK N   1      35.708  14.706   6.623  0.00  0.00     0.099 C 
HETATM   17  C   UNK N   1      34.706  13.777   5.953  0.00  0.00     0.014 C 
ENDBRANCH   8  16
ENDBRANCH   2   7
BRANCH   1  18
HETATM   18  C   UNK N   1      36.261  13.075  14.320  0.00  0.00     0.308 C 
BRANCH  18  19
HETATM   19  C   UNK N   1      35.550  11.931  15.044  0.00  0.00     0.179 C 
BRANCH  19  20
HETATM   20  O   UNK N   1      36.245  10.736  14.824  0.00  0.00    -0.389 OA
HETATM   21  H   UNK N   1      35.880   9.887  15.118  0.00  0.00     0.210 HD
ENDBRANCH  19  20
BRANCH  19  22
HETATM   22  C   UNK N   1      35.425  12.224  16.511  0.00  0.00    -0.028 A 
HETATM   23  C   UNK N   1      35.459  11.164  17.429  0.00  0.00     0.010 A 
HETATM   24  C   UNK N   1      35.368  11.415  18.800  0.00  0.00     0.001 A 
HETATM   25  C   UNK N   1      35.250  12.727  19.265  0.00  0.00     0.000 A 
HETATM   26  C   UNK N   1      35.221  13.790  18.358  0.00  0.00     0.001 A 
HETATM   27  C   UNK N   1      35.309  13.541  16.985  0.00  0.00     0.010 A 
ENDBRANCH  19  22
ENDBRANCH  18  19
ENDBRANCH   1  18
TORSDOF 7
ENDMDL
MODEL 4
REMARK VINA RESULT:      -7.0      2.320      3.700
REMARK  7 active torsions:
REMARK  status: ('A' for Active; 'I' for Inactive)
REMARK    1  A    between atoms: O_1  and  C_11 
REMARK    2  A    between atoms: N_3  and  C_10 
REMARK    3  A    between atoms: N_4  and  C_5 
REMARK    4  A    between atoms: N_4  and  C_12 
REMARK       I    between atoms: N_4  and  C_13 
REMARK    5  A    between atoms: C_10  and  C_11 
REMARK    6  A    between atoms: C_11  and  C_14 
REMARK    7  A    between atoms: C_13  and  C_15 
ROOT
HETATM    1  N   UNK N   1      36.215  13.016  12.223  0.00  0.00     0.091 N 
HETATM    2  C   UNK N   1      35.461  15.005  10.244  0.00  0.00     0.096 C 
HETATM    3  C   UNK N   1      36.361  13.821   9.910  0.00  0.00     0.056 C 
HETATM    4  C   UNK N   1      34.468  14.533  11.308  0.00  0.00     0.056 C 
HETATM    5  C   UNK N   1      37.131  13.480  11.176  0.00  0.00     0.274 C 
HETATM    6  C   UNK N   1      35.243  14.067  12.545  0.00  0.00     0.274 C 
ENDROOT
BRANCH   2   7
HETATM    7  N   UNK N   1      34.987  15.716   9.032  0.00  0.00    -0.313 N 
HETATM    8  C   UNK N   1      34.943  17.105   9.131  0.00  0.00     0.224 C 
HETATM    9  O   UNK N   1      35.272  17.642  10.185  0.00  0.00    -0.273 OA
BRANCH   7  10
HETATM   10  C   UNK N   1      34.534  15.006   7.829  0.00  0.00     0.037 A 
HETATM   11  C   UNK N   1      33.276  14.371   7.770  0.00  0.00     0.030 A 
HETATM   12  C   UNK N   1      32.857  13.657   6.644  0.00  0.00     0.002 A 
HETATM   13  C   UNK N   1      33.694  13.553   5.537  0.00  0.00     0.000 A 
HETATM   14  C   UNK N   1      34.942  14.171   5.558  0.00  0.00     0.002 A 
HETATM   15  C   UNK N   1      35.351  14.886   6.689  0.00  0.00     0.030 A 
ENDBRANCH   7  10
BRANCH   8  16
HETATM   16  C   UNK N   1      34.505  18.011   8.005  0.00  0.00     0.099 C 
HETATM   17  C   UNK N   1      33.001  18.239   7.955  0.00  0.00     0.014 C 
ENDBRANCH   8  16
ENDBRANCH   2   7
BRANCH   1  18
HETATM   18  C   UNK N   1      36.980  12.792  13.449  0.00  0.00     0.308 C 
BRANCH  18  19
HETATM   19  C   UNK N   1      36.080  12.458  14.638  0.00  0.00     0.179 C 
BRANCH  19  20
HETATM   20  O   UNK N   1      36.409  11.190  15.131  0.00  0.00    -0.389 OA
HETATM   21  H   UNK N   1      36.371  11.001  16.082  0.00  0.00     0.210 HD
ENDBRANCH  19  20
BRANCH  19  22
HETATM   22  C   UNK N   1      36.199  13.505  15.708  0.00  0.00    -0.028 A 
HETATM   23  C   UNK N   1      35.419  13.394  16.867  0.00  0.00     0.010 A 
HETATM   24  C   UNK N   1      35.530  14.343  17.886  0.00  0.00     0.001 A 
HETATM   25  C   UNK N   1      36.427  15.407  17.756  0.00  0.00     0.000 A 
HETATM   26  C   UNK N   1      37.212  15.522  16.607  0.00  0.00     0.001 A 
HETATM   27  C   UNK N   1      37.101  14.575  15.585  0.00  0.00     0.010 A 
ENDBRANCH  19  22
ENDBRANCH  18  19
ENDBRANCH   1  18
TORSDOF 7
ENDMDL
MODEL 5
REMARK VINA RESULT:      -6.8      2.029      8.590
REMARK  7 active torsions:
REMARK  status: ('A' for Active; 'I' for Inactive)
REMARK    1  A    between atoms: O_1  and  C_11 
REMARK    2  A    between atoms: N_3  and  C_10 
REMARK    3  A    between atoms: N_4  and  C_5 
REMARK    4  A    between atoms: N_4  and  C_12 
REMARK       I    between atoms: N_4  and  C_13 
REMARK    5  A    between atoms: C_10  and  C_11 
REMARK    6  A    between atoms: C_11  and  C_14 
REMARK    7  A    between atoms: C_13  and  C_15 
ROOT
HETATM    1  N   UNK N   1      34.738  15.194   8.926  0.00  0.00     0.091 N 
HETATM    2  C   UNK N   1      35.753  13.975  11.360  0.00  0.00     0.096 C 
HETATM    3  C   UNK N   1      34.417  14.708  11.309  0.00  0.00     0.056 C 
HETATM    4  C   UNK N   1      35.956  13.307   9.998  0.00  0.00     0.056 C 
HETATM    5  C   UNK N   1      34.548  15.792  10.252  0.00  0.00     0.274 C 
HETATM    6  C   UNK N   1      35.963  14.385   8.909  0.00  0.00     0.274 C 
ENDROOT
BRANCH   2   7
HETATM    7  N   UNK N   1      35.928  13.202  12.613  0.00  0.00    -0.313 N 
HETATM    8  C   UNK N   1      36.316  13.944  13.726  0.00  0.00     0.224 C 
HETATM    9  O   UNK N   1      36.501  15.152  13.607  0.00  0.00    -0.273 OA
BRANCH   7  10
HETATM   10  C   UNK N   1      35.765  11.742  12.667  0.00  0.00     0.037 A 
HETATM   11  C   UNK N   1      36.859  10.866  12.511  0.00  0.00     0.030 A 
HETATM   12  C   UNK N   1      36.704   9.478  12.518  0.00  0.00     0.002 A 
HETATM   13  C   UNK N   1      35.439   8.921  12.679  0.00  0.00     0.000 A 
HETATM   14  C   UNK N   1      34.336   9.756  12.840  0.00  0.00     0.002 A 
HETATM   15  C   UNK N   1      34.501  11.145  12.834  0.00  0.00     0.030 A 
ENDBRANCH   7  10
BRANCH   8  16
HETATM   16  C   UNK N   1      36.532  13.347  15.097  0.00  0.00     0.099 C 
HETATM   17  C   UNK N   1      35.251  13.199  15.906  0.00  0.00     0.014 C 
ENDBRANCH   8  16
ENDBRANCH   2   7
BRANCH   1  18
HETATM   18  C   UNK N   1      34.957  16.266   7.956  0.00  0.00     0.308 C 
BRANCH  18  19
HETATM   19  C   UNK N   1      34.149  17.520   8.289  0.00  0.00     0.179 C 
BRANCH  19  20
HETATM   20  O   UNK N   1      34.839  18.653   7.843  0.00  0.00    -0.389 OA
HETATM   21  H   UNK N   1      34.757  19.501   8.308  0.00  0.00     0.210 HD
ENDBRANCH  19  20
BRANCH  19  22
HETATM   22  C   UNK N   1      32.776  17.447   7.684  0.00  0.00    -0.028 A 
HETATM   23  C   UNK N   1      32.643  17.173   6.315  0.00  0.00     0.010 A 
HETATM   24  C   UNK N   1      31.377  17.077   5.735  0.00  0.00     0.001 A 
HETATM   25  C   UNK N   1      30.233  17.248   6.520  0.00  0.00     0.000 A 
HETATM   26  C   UNK N   1      30.356  17.516   7.885  0.00  0.00     0.001 A 
HETATM   27  C   UNK N   1      31.623  17.615   8.467  0.00  0.00     0.010 A 
ENDBRANCH  19  22
ENDBRANCH  18  19
ENDBRANCH   1  18
TORSDOF 7
ENDMDL
MODEL 6
REMARK VINA RESULT:      -6.7      1.884      8.478
REMARK  7 active torsions:
REMARK  status: ('A' for Active; 'I' for Inactive)
REMARK    1  A    between atoms: O_1  and  C_11 
REMARK    2  A    between atoms: N_3  and  C_10 
REMARK    3  A    between atoms: N_4  and  C_5 
REMARK    4  A    between atoms: N_4  and  C_12 
REMARK       I    between atoms: N_4  and  C_13 
REMARK    5  A    between atoms: C_10  and  C_11 
REMARK    6  A    between atoms: C_11  and  C_14 
REMARK    7  A    between atoms: C_13  and  C_15 
ROOT
HETATM    1  N   UNK N   1      33.367  17.014   9.229  0.00  0.00     0.091 N 
HETATM    2  C   UNK N   1      35.239  14.964  10.086  0.00  0.00     0.096 C 
HETATM    3  C   UNK N   1      35.388  16.427  10.489  0.00  0.00     0.056 C 
HETATM    4  C   UNK N   1      33.740  14.673   9.986  0.00  0.00     0.056 C 
HETATM    5  C   UNK N   1      34.808  17.259   9.356  0.00  0.00     0.274 C 
HETATM    6  C   UNK N   1      33.120  15.598   8.933  0.00  0.00     0.274 C 
ENDROOT
BRANCH   2   7
HETATM    7  N   UNK N   1      36.132  14.069  10.862  0.00  0.00    -0.313 N 
HETATM    8  C   UNK N   1      37.263  13.619  10.185  0.00  0.00     0.224 C 
HETATM    9  O   UNK N   1      37.443  13.964   9.021  0.00  0.00    -0.273 OA
BRANCH   7  10
HETATM   10  C   UNK N   1      35.815  13.633  12.228  0.00  0.00     0.037 A 
HETATM   11  C   UNK N   1      36.289  14.330  13.360  0.00  0.00     0.030 A 
HETATM   12  C   UNK N   1      36.027  13.895  14.661  0.00  0.00     0.002 A 
HETATM   13  C   UNK N   1      35.281  12.739  14.871  0.00  0.00     0.000 A 
HETATM   14  C   UNK N   1      34.794  12.027  13.777  0.00  0.00     0.002 A 
HETATM   15  C   UNK N   1      35.059  12.472  12.478  0.00  0.00     0.030 A 
ENDBRANCH   7  10
BRANCH   8  16
HETATM   16  C   UNK N   1      38.303  12.713  10.803  0.00  0.00     0.099 C 
HETATM   17  C   UNK N   1      38.061  11.235  10.533  0.00  0.00     0.014 C 
ENDBRANCH   8  16
ENDBRANCH   2   7
BRANCH   1  18
HETATM   18  C   UNK N   1      32.867  17.755   8.072  0.00  0.00     0.308 C 
BRANCH  18  19
HETATM   19  C   UNK N   1      31.633  17.097   7.454  0.00  0.00     0.179 C 
BRANCH  19  20
HETATM   20  O   UNK N   1      30.482  17.766   7.885  0.00  0.00    -0.389 OA
HETATM   21  H   UNK N   1      29.785  17.295   8.368  0.00  0.00     0.210 HD
ENDBRANCH  19  20
BRANCH  19  22
HETATM   22  C   UNK N   1      31.728  17.088   5.955  0.00  0.00    -0.028 A 
HETATM   23  C   UNK N   1      32.966  17.334   5.344  0.00  0.00     0.010 A 
HETATM   24  C   UNK N   1      33.083  17.308   3.953  0.00  0.00     0.001 A 
HETATM   25  C   UNK N   1      31.965  17.029   3.161  0.00  0.00     0.000 A 
HETATM   26  C   UNK N   1      30.730  16.777   3.763  0.00  0.00     0.001 A 
HETATM   27  C   UNK N   1      30.609  16.806   5.155  0.00  0.00     0.010 A 
ENDBRANCH  19  22
ENDBRANCH  18  19
ENDBRANCH   1  18
TORSDOF 7
ENDMDL
MODEL 7
REMARK VINA RESULT:      -6.5     15.333     17.459
REMARK  7 active torsions:
REMARK  status: ('A' for Active; 'I' for Inactive)
REMARK    1  A    between atoms: O_1  and  C_11 
REMARK    2  A    between atoms: N_3  and  C_10 
REMARK    3  A    between atoms: N_4  and  C_5 
REMARK    4  A    between atoms: N_4  and  C_12 
REMARK       I    between atoms: N_4  and  C_13 
REMARK    5  A    between atoms: C_10  and  C_11 
REMARK    6  A    between atoms: C_11  and  C_14 
REMARK    7  A    between atoms: C_13  and  C_15 
ROOT
HETATM    1  N   UNK N   1      30.514  22.022  -4.247  0.00  0.00     0.091 N 
HETATM    2  C   UNK N   1      29.856  24.830  -3.891  0.00  0.00     0.096 C 
HETATM    3  C   UNK N   1      30.575  24.310  -5.131  0.00  0.00     0.056 C 
HETATM    4  C   UNK N   1      28.900  23.730  -3.428  0.00  0.00     0.056 C 
HETATM    5  C   UNK N   1      31.395  23.106  -4.694  0.00  0.00     0.274 C 
HETATM    6  C   UNK N   1      29.707  22.468  -3.105  0.00  0.00     0.274 C 
ENDROOT
BRANCH   2   7
HETATM    7  N   UNK N   1      29.380  26.225  -4.056  0.00  0.00    -0.313 N 
HETATM    8  C   UNK N   1      30.211  27.208  -3.524  0.00  0.00     0.224 C 
HETATM    9  O   UNK N   1      31.246  26.876  -2.954  0.00  0.00    -0.273 OA
BRANCH   7  10
HETATM   10  C   UNK N   1      28.090  26.548  -4.680  0.00  0.00     0.037 A 
HETATM   11  C   UNK N   1      27.971  26.773  -6.068  0.00  0.00     0.030 A 
HETATM   12  C   UNK N   1      26.756  27.123  -6.661  0.00  0.00     0.002 A 
HETATM   13  C   UNK N   1      25.615  27.263  -5.876  0.00  0.00     0.000 A 
HETATM   14  C   UNK N   1      25.694  27.045  -4.502  0.00  0.00     0.002 A 
HETATM   15  C   UNK N   1      26.915  26.692  -3.918  0.00  0.00     0.030 A 
ENDBRANCH   7  10
BRANCH   8  16
HETATM   16  C   UNK N   1      29.913  28.688  -3.600  0.00  0.00     0.099 C 
HETATM   17  C   UNK N   1      29.220  29.235  -2.360  0.00  0.00     0.014 C 
ENDBRANCH   8  16
ENDBRANCH   2   7
BRANCH   1  18
HETATM   18  C   UNK N   1      31.340  20.925  -3.746  0.00  0.00     0.308 C 
BRANCH  18  19
HETATM   19  C   UNK N   1      32.716  21.402  -3.283  0.00  0.00     0.179 C 
BRANCH  19  20
HETATM   20  O   UNK N   1      32.787  21.340  -1.886  0.00  0.00    -0.389 OA
HETATM   21  H   UNK N   1      31.991  21.447  -1.343  0.00  0.00     0.210 HD
ENDBRANCH  19  20
BRANCH  19  22
HETATM   22  C   UNK N   1      33.805  20.587  -3.919  0.00  0.00    -0.028 A 
HETATM   23  C   UNK N   1      33.560  19.244  -4.238  0.00  0.00     0.010 A 
HETATM   24  C   UNK N   1      34.550  18.473  -4.851  0.00  0.00     0.001 A 
HETATM   25  C   UNK N   1      35.790  19.041  -5.157  0.00  0.00     0.000 A 
HETATM   26  C   UNK N   1      36.040  20.380  -4.848  0.00  0.00     0.001 A 
HETATM   27  C   UNK N   1      35.052  21.153  -4.232  0.00  0.00     0.010 A 
ENDBRANCH  19  22
ENDBRANCH  18  19
ENDBRANCH   1  18
TORSDOF 7
ENDMDL
MODEL 8
REMARK VINA RESULT:      -6.4      6.740     10.053
REMARK  7 active torsions:
REMARK  status: ('A' for Active; 'I' for Inactive)
REMARK    1  A    between atoms: O_1  and  C_11 
REMARK    2  A    between atoms: N_3  and  C_10 
REMARK    3  A    between atoms: N_4  and  C_5 
REMARK    4  A    between atoms: N_4  and  C_12 
REMARK       I    between atoms: N_4  and  C_13 
REMARK    5  A    between atoms: C_10  and  C_11 
REMARK    6  A    between atoms: C_11  and  C_14 
REMARK    7  A    between atoms: C_13  and  C_15 
ROOT
HETATM    1  N   UNK N   1      24.704  13.959   6.124  0.00  0.00     0.091 N 
HETATM    2  C   UNK N   1      27.201  15.424   5.872  0.00  0.00     0.096 C 
HETATM    3  C   UNK N   1      26.313  15.110   4.673  0.00  0.00     0.056 C 
HETATM    4  C   UNK N   1      26.279  15.635   7.075  0.00  0.00     0.056 C 
HETATM    5  C   UNK N   1      25.606  13.799   4.978  0.00  0.00     0.274 C 
HETATM    6  C   UNK N   1      25.467  14.358   7.313  0.00  0.00     0.274 C 
ENDROOT
BRANCH   2   7
HETATM    7  N   UNK N   1      28.260  16.411   5.550  0.00  0.00    -0.313 N 
HETATM    8  C   UNK N   1      29.542  15.887   5.401  0.00  0.00     0.224 C 
HETATM    9  O   UNK N   1      29.719  14.682   5.555  0.00  0.00    -0.273 OA
BRANCH   7  10
HETATM   10  C   UNK N   1      27.991  17.852   5.457  0.00  0.00     0.037 A 
HETATM   11  C   UNK N   1      27.974  18.680   6.599  0.00  0.00     0.030 A 
HETATM   12  C   UNK N   1      27.676  20.043   6.522  0.00  0.00     0.002 A 
HETATM   13  C   UNK N   1      27.381  20.621   5.291  0.00  0.00     0.000 A 
HETATM   14  C   UNK N   1      27.392  19.835   4.141  0.00  0.00     0.002 A 
HETATM   15  C   UNK N   1      27.694  18.471   4.228  0.00  0.00     0.030 A 
ENDBRANCH   7  10
BRANCH   8  16
HETATM   16  C   UNK N   1      30.753  16.722   5.058  0.00  0.00     0.099 C 
HETATM   17  C   UNK N   1      31.573  17.134   6.273  0.00  0.00     0.014 C 
ENDBRANCH   8  16
ENDBRANCH   2   7
BRANCH   1  18
HETATM   18  C   UNK N   1      24.120  12.658   6.444  0.00  0.00     0.308 C 
BRANCH  18  19
HETATM   19  C   UNK N   1      22.626  12.757   6.756  0.00  0.00     0.179 C 
BRANCH  19  20
HETATM   20  O   UNK N   1      21.927  11.811   5.999  0.00  0.00    -0.389 OA
HETATM   21  H   UNK N   1      22.244  11.542   5.123  0.00  0.00     0.210 HD
ENDBRANCH  19  20
BRANCH  19  22
HETATM   22  C   UNK N   1      22.375  12.571   8.225  0.00  0.00    -0.028 A 
HETATM   23  C   UNK N   1      21.318  13.262   8.834  0.00  0.00     0.010 A 
HETATM   24  C   UNK N   1      21.051  13.087  10.193  0.00  0.00     0.001 A 
HETATM   25  C   UNK N   1      21.834  12.214  10.953  0.00  0.00     0.000 A 
HETATM   26  C   UNK N   1      22.886  11.517  10.353  0.00  0.00     0.001 A 
HETATM   27  C   UNK N   1      23.157  11.693   8.994  0.00  0.00     0.010 A 
ENDBRANCH  19  22
ENDBRANCH  18  19
ENDBRANCH   1  18
TORSDOF 7
ENDMDL
MODEL 9
REMARK VINA RESULT:      -6.3      6.901     10.858
REMARK  7 active torsions:
REMARK  status: ('A' for Active; 'I' for Inactive)
REMARK    1  A    between atoms: O_1  and  C_11 
REMARK    2  A    between atoms: N_3  and  C_10 
REMARK    3  A    between atoms: N_4  and  C_5 
REMARK    4  A    between atoms: N_4  and  C_12 
REMARK       I    between atoms: N_4  and  C_13 
REMARK    5  A    between atoms: C_10  and  C_11 
REMARK    6  A    between atoms: C_11  and  C_14 
REMARK    7  A    between atoms: C_13  and  C_15 
ROOT
HETATM    1  N   UNK N   1      26.038  16.504   5.995  0.00  0.00     0.091 N 
HETATM    2  C   UNK N   1      24.293  14.191   6.206  0.00  0.00     0.096 C 
HETATM    3  C   UNK N   1      25.557  14.340   7.045  0.00  0.00     0.056 C 
HETATM    4  C   UNK N   1      23.722  15.594   5.995  0.00  0.00     0.056 C 
HETATM    5  C   UNK N   1      26.545  15.145   6.217  0.00  0.00     0.274 C 
HETATM    6  C   UNK N   1      24.762  16.455   5.271  0.00  0.00     0.274 C 
ENDROOT
BRANCH   2   7
HETATM    7  N   UNK N   1      23.425  13.086   6.681  0.00  0.00    -0.313 N 
HETATM    8  C   UNK N   1      22.930  12.244   5.688  0.00  0.00     0.224 C 
HETATM    9  O   UNK N   1      23.218  12.465   4.515  0.00  0.00    -0.273 OA
BRANCH   7  10
HETATM   10  C   UNK N   1      23.057  12.925   8.094  0.00  0.00     0.037 A 
HETATM   11  C   UNK N   1      23.729  12.018   8.939  0.00  0.00     0.030 A 
HETATM   12  C   UNK N   1      23.356  11.829  10.272  0.00  0.00     0.002 A 
HETATM   13  C   UNK N   1      22.287  12.546  10.802  0.00  0.00     0.000 A 
HETATM   14  C   UNK N   1      21.602  13.454   9.998  0.00  0.00     0.002 A 
HETATM   15  C   UNK N   1      21.985  13.638   8.665  0.00  0.00     0.030 A 
ENDBRANCH   7  10
BRANCH   8  16
HETATM   16  C   UNK N   1      22.042  11.053   5.966  0.00  0.00     0.099 C 
HETATM   17  C   UNK N   1      20.557  11.352   5.815  0.00  0.00     0.014 C 
ENDBRANCH   8  16
ENDBRANCH   2   7
BRANCH   1  18
HETATM   18  C   UNK N   1      26.967  17.213   5.117  0.00  0.00     0.308 C 
BRANCH  18  19
HETATM   19  C   UNK N   1      27.486  18.505   5.747  0.00  0.00     0.179 C 
BRANCH  19  20
HETATM   20  O   UNK N   1      26.405  19.276   6.189  0.00  0.00    -0.389 OA
HETATM   21  H   UNK N   1      25.928  19.860   5.579  0.00  0.00     0.210 HD
ENDBRANCH  19  20
BRANCH  19  22
HETATM   22  C   UNK N   1      28.435  18.206   6.872  0.00  0.00    -0.028 A 
HETATM   23  C   UNK N   1      29.559  17.404   6.627  0.00  0.00     0.010 A 
HETATM   24  C   UNK N   1      30.468  17.132   7.652  0.00  0.00     0.001 A 
HETATM   25  C   UNK N   1      30.264  17.665   8.928  0.00  0.00     0.000 A 
HETATM   26  C   UNK N   1      29.150  18.469   9.179  0.00  0.00     0.001 A 
HETATM   27  C   UNK N   1      28.238  18.741   8.156  0.00  0.00     0.010 A 
ENDBRANCH  19  22
ENDBRANCH  18  19
ENDBRANCH   1  18
TORSDOF 7
ENDMDL
