MODEL 1
REMARK VINA RESULT:      -5.2      0.000      0.000
REMARK  3 active torsions:
REMARK  status: ('A' for Active; 'I' for Inactive)
REMARK    1  A    between atoms: N_3  and  C_4 
REMARK    2  A    between atoms: C_4  and  C_5 
REMARK    3  A    between atoms: C_5  and  C_6 
ROOT
HETATM    1  O   UNK N   1      33.345  17.873   8.670  0.00  0.00    -0.323 OA
HETATM    2  O   UNK N   1      34.608  17.969   6.853  0.00  0.00    -0.323 OA
HETATM    3  C   UNK N   1      30.671  17.031   6.291  0.00  0.00    -0.053 A 
HETATM    4  C   UNK N   1      31.244  17.283   7.552  0.00  0.00     0.047 A 
HETATM    5  C   UNK N   1      32.601  17.597   7.603  0.00  0.00     0.105 A 
HETATM    6  C   UNK N   1      31.482  17.106   5.127  0.00  0.00     0.010 A 
HETATM    7  C   UNK N   1      33.361  17.658   6.504  0.00  0.00     0.105 A 
HETATM    8  C   UNK N   1      32.852  17.420   5.232  0.00  0.00     0.040 A 
HETATM    9  C   UNK N   1      34.655  18.121   8.243  0.00  0.00     0.352 A 
ENDROOT
BRANCH   3  10
HETATM   10  C   UNK N   1      29.210  16.666   6.236  0.00  0.00     0.063 C 
BRANCH  10  11
HETATM   11  C   UNK N   1      28.199  17.673   6.793  0.00  0.00     0.076 C 
HETATM   12  C   UNK N   1      27.207  18.114   5.723  0.00  0.00     0.032 C 
BRANCH  11  13
HETATM   13  N   UNK N   1      27.478  17.024   7.881  0.00  0.00    -0.421 N 
HETATM   14  C   UNK N   1      27.969  17.551   9.145  0.00  0.00     0.140 C 
HETATM   15  H   UNK N   1      26.751  16.318   7.774  0.00  0.00     0.153 HD
ENDBRANCH  11  13
ENDBRANCH  10  11
ENDBRANCH   3  10
TORSDOF 3
ENDMDL
MODEL 2
REMARK VINA RESULT:      -5.1      6.392      9.037
REMARK  3 active torsions:
REMARK  status: ('A' for Active; 'I' for Inactive)
REMARK    1  A    between atoms: N_3  and  C_4 
REMARK    2  A    between atoms: C_4  and  C_5 
REMARK    3  A    between atoms: C_5  and  C_6 
ROOT
HETATM    1  O   UNK N   1      22.197  21.194   2.581  0.00  0.00    -0.323 OA
HETATM    2  O   UNK N   1      21.360  19.332   3.442  0.00  0.00    -0.323 OA
HETATM    3  C   UNK N   1      25.423  19.746   3.591  0.00  0.00    -0.053 A 
HETATM    4  C   UNK N   1      24.557  20.704   3.028  0.00  0.00     0.047 A 
HETATM    5  C   UNK N   1      23.190  20.440   3.047  0.00  0.00     0.105 A 
HETATM    6  C   UNK N   1      24.881  18.560   4.153  0.00  0.00     0.010 A 
HETATM    7  C   UNK N   1      22.686  19.317   3.569  0.00  0.00     0.105 A 
HETATM    8  C   UNK N   1      23.489  18.335   4.140  0.00  0.00     0.040 A 
HETATM    9  C   UNK N   1      20.990  20.524   2.810  0.00  0.00     0.352 A 
ENDROOT
BRANCH   3  10
HETATM   10  C   UNK N   1      26.904  20.018   3.550  0.00  0.00     0.063 C 
BRANCH  10  11
HETATM   11  C   UNK N   1      27.611  20.338   4.871  0.00  0.00     0.076 C 
HETATM   12  C   UNK N   1      26.671  21.031   5.850  0.00  0.00     0.032 C 
BRANCH  11  13
HETATM   13  N   UNK N   1      28.066  19.080   5.448  0.00  0.00    -0.421 N 
HETATM   14  C   UNK N   1      27.864  19.127   6.888  0.00  0.00     0.140 C 
HETATM   15  H   UNK N   1      28.461  18.296   4.930  0.00  0.00     0.153 HD
ENDBRANCH  11  13
ENDBRANCH  10  11
ENDBRANCH   3  10
TORSDOF 3
ENDMDL
MODEL 3
REMARK VINA RESULT:      -5.0     14.674     16.373
REMARK  3 active torsions:
REMARK  status: ('A' for Active; 'I' for Inactive)
REMARK    1  A    between atoms: N_3  and  C_4 
REMARK    2  A    between atoms: C_4  and  C_5 
REMARK    3  A    between atoms: C_5  and  C_6 
ROOT
HETATM    1  O   UNK N   1      25.278  24.339  -7.365  0.00  0.00    -0.323 OA
HETATM    2  O   UNK N   1      26.453  22.920  -6.135  0.00  0.00    -0.323 OA
HETATM    3  C   UNK N   1      25.824  26.630  -4.541  0.00  0.00    -0.053 A 
HETATM    4  C   UNK N   1      25.345  26.227  -5.803  0.00  0.00     0.047 A 
HETATM    5  C   UNK N   1      25.627  24.930  -6.225  0.00  0.00     0.105 A 
HETATM    6  C   UNK N   1      26.567  25.713  -3.750  0.00  0.00     0.010 A 
HETATM    7  C   UNK N   1      26.335  24.074  -5.480  0.00  0.00     0.105 A 
HETATM    8  C   UNK N   1      26.833  24.413  -4.227  0.00  0.00     0.040 A 
HETATM    9  C   UNK N   1      25.787  23.035  -7.360  0.00  0.00     0.352 A 
ENDROOT
BRANCH   3  10
HETATM   10  C   UNK N   1      25.541  28.040  -4.093  0.00  0.00     0.063 C 
BRANCH  10  11
HETATM   11  C   UNK N   1      26.725  29.005  -3.972  0.00  0.00     0.076 C 
HETATM   12  C   UNK N   1      27.391  29.237  -5.323  0.00  0.00     0.032 C 
BRANCH  11  13
HETATM   13  N   UNK N   1      26.217  30.272  -3.461  0.00  0.00    -0.421 N 
HETATM   14  C   UNK N   1      27.337  31.062  -2.976  0.00  0.00     0.140 C 
HETATM   15  H   UNK N   1      25.238  30.557  -3.445  0.00  0.00     0.153 HD
ENDBRANCH  11  13
ENDBRANCH  10  11
ENDBRANCH   3  10
TORSDOF 3
ENDMDL
MODEL 4
REMARK VINA RESULT:      -5.0      2.786      3.954
REMARK  3 active torsions:
REMARK  status: ('A' for Active; 'I' for Inactive)
REMARK    1  A    between atoms: N_3  and  C_4 
REMARK    2  A    between atoms: C_4  and  C_5 
REMARK    3  A    between atoms: C_5  and  C_6 
ROOT
HETATM    1  O   UNK N   1      34.418  15.335  10.032  0.00  0.00    -0.323 OA
HETATM    2  O   UNK N   1      35.383  17.311  10.296  0.00  0.00    -0.323 OA
HETATM    3  C   UNK N   1      33.181  16.796   6.892  0.00  0.00    -0.053 A 
HETATM    4  C   UNK N   1      33.353  15.800   7.874  0.00  0.00     0.047 A 
HETATM    5  C   UNK N   1      34.126  16.109   8.991  0.00  0.00     0.105 A 
HETATM    6  C   UNK N   1      33.792  18.065   7.071  0.00  0.00     0.010 A 
HETATM    7  C   UNK N   1      34.705  17.304   9.149  0.00  0.00     0.105 A 
HETATM    8  C   UNK N   1      34.572  18.327   8.216  0.00  0.00     0.040 A 
HETATM    9  C   UNK N   1      35.230  16.063  10.909  0.00  0.00     0.352 A 
ENDROOT
BRANCH   3  10
HETATM   10  C   UNK N   1      32.366  16.455   5.672  0.00  0.00     0.063 C 
BRANCH  10  11
HETATM   11  C   UNK N   1      32.594  17.283   4.404  0.00  0.00     0.076 C 
HETATM   12  C   UNK N   1      33.062  16.410   3.246  0.00  0.00     0.032 C 
BRANCH  11  13
HETATM   13  N   UNK N   1      31.328  17.915   4.051  0.00  0.00    -0.421 N 
HETATM   14  C   UNK N   1      30.260  17.268   4.797  0.00  0.00     0.140 C 
HETATM   15  H   UNK N   1      31.211  18.682   3.390  0.00  0.00     0.153 HD
ENDBRANCH  11  13
ENDBRANCH  10  11
ENDBRANCH   3  10
TORSDOF 3
ENDMDL
MODEL 5
REMARK VINA RESULT:      -4.9      3.176      5.299
REMARK  3 active torsions:
REMARK  status: ('A' for Active; 'I' for Inactive)
REMARK    1  A    between atoms: N_3  and  C_4 
REMARK    2  A    between atoms: C_4  and  C_5 
REMARK    3  A    between atoms: C_5  and  C_6 
ROOT
HETATM    1  O   UNK N   1      29.657  16.889   6.306  0.00  0.00    -0.323 OA
HETATM    2  O   UNK N   1      30.334  16.955   4.198  0.00  0.00    -0.323 OA
HETATM    3  C   UNK N   1      33.201  17.519   7.055  0.00  0.00    -0.053 A 
HETATM    4  C   UNK N   1      31.841  17.296   7.343  0.00  0.00     0.047 A 
HETATM    5  C   UNK N   1      30.967  17.114   6.273  0.00  0.00     0.105 A 
HETATM    6  C   UNK N   1      33.633  17.548   5.703  0.00  0.00     0.010 A 
HETATM    7  C   UNK N   1      31.379  17.152   5.001  0.00  0.00     0.105 A 
HETATM    8  C   UNK N   1      32.708  17.367   4.654  0.00  0.00     0.040 A 
HETATM    9  C   UNK N   1      29.194  16.778   4.990  0.00  0.00     0.352 A 
ENDROOT
BRANCH   3  10
HETATM   10  C   UNK N   1      34.143  17.741   8.210  0.00  0.00     0.063 C 
BRANCH  10  11
HETATM   11  C   UNK N   1      34.259  16.635   9.263  0.00  0.00     0.076 C 
HETATM   12  C   UNK N   1      35.033  15.437   8.727  0.00  0.00     0.032 C 
BRANCH  11  13
HETATM   13  N   UNK N   1      34.963  17.187  10.413  0.00  0.00    -0.421 N 
HETATM   14  C   UNK N   1      35.821  16.156  10.976  0.00  0.00     0.140 C 
HETATM   15  H   UNK N   1      34.869  18.139  10.767  0.00  0.00     0.153 HD
ENDBRANCH  11  13
ENDBRANCH  10  11
ENDBRANCH   3  10
TORSDOF 3
ENDMDL
MODEL 6
REMARK VINA RESULT:      -4.9      1.899      2.713
REMARK  3 active torsions:
REMARK  status: ('A' for Active; 'I' for Inactive)
REMARK    1  A    between atoms: N_3  and  C_4 
REMARK    2  A    between atoms: C_4  and  C_5 
REMARK    3  A    between atoms: C_5  and  C_6 
ROOT
HETATM    1  O   UNK N   1      34.451  15.625  10.557  0.00  0.00    -0.323 OA
HETATM    2  O   UNK N   1      35.669  17.431  10.150  0.00  0.00    -0.323 OA
HETATM    3  C   UNK N   1      32.518  16.750   7.637  0.00  0.00    -0.053 A 
HETATM    4  C   UNK N   1      32.858  15.910   8.715  0.00  0.00     0.047 A 
HETATM    5  C   UNK N   1      33.955  16.261   9.498  0.00  0.00     0.105 A 
HETATM    6  C   UNK N   1      33.294  17.913   7.388  0.00  0.00     0.010 A 
HETATM    7  C   UNK N   1      34.687  17.353   9.253  0.00  0.00     0.105 A 
HETATM    8  C   UNK N   1      34.402  18.221   8.205  0.00  0.00     0.040 A 
HETATM    9  C   UNK N   1      35.563  16.339  11.019  0.00  0.00     0.352 A 
ENDROOT
BRANCH   3  10
HETATM   10  C   UNK N   1      31.347  16.359   6.775  0.00  0.00     0.063 C 
BRANCH  10  11
HETATM   11  C   UNK N   1      30.115  17.269   6.784  0.00  0.00     0.076 C 
HETATM   12  C   UNK N   1      29.023  16.735   5.865  0.00  0.00     0.032 C 
BRANCH  11  13
HETATM   13  N   UNK N   1      29.611  17.322   8.151  0.00  0.00    -0.421 N 
HETATM   14  C   UNK N   1      28.572  18.337   8.226  0.00  0.00     0.140 C 
HETATM   15  H   UNK N   1      29.933  16.743   8.926  0.00  0.00     0.153 HD
ENDBRANCH  11  13
ENDBRANCH  10  11
ENDBRANCH   3  10
TORSDOF 3
ENDMDL
MODEL 7
REMARK VINA RESULT:      -4.9     12.412     13.924
REMARK  3 active torsions:
REMARK  status: ('A' for Active; 'I' for Inactive)
REMARK    1  A    between atoms: N_3  and  C_4 
REMARK    2  A    between atoms: C_4  and  C_5 
REMARK    3  A    between atoms: C_5  and  C_6 
ROOT
HETATM    1  O   UNK N   1      34.833  10.943  15.265  0.00  0.00    -0.323 OA
HETATM    2  O   UNK N   1      34.612  13.140  15.084  0.00  0.00    -0.323 OA
HETATM    3  C   UNK N   1      35.379  11.685  18.825  0.00  0.00    -0.053 A 
HETATM    4  C   UNK N   1      35.247  10.875  17.680  0.00  0.00     0.047 A 
HETATM    5  C   UNK N   1      34.990  11.501  16.462  0.00  0.00     0.105 A 
HETATM    6  C   UNK N   1      35.248  13.094  18.702  0.00  0.00     0.010 A 
HETATM    7  C   UNK N   1      34.860  12.827  16.355  0.00  0.00     0.105 A 
HETATM    8  C   UNK N   1      34.980  13.679  17.448  0.00  0.00     0.040 A 
HETATM    9  C   UNK N   1      34.584  11.959  14.334  0.00  0.00     0.352 A 
ENDROOT
BRANCH   3  10
HETATM   10  C   UNK N   1      35.632  11.008  20.147  0.00  0.00     0.063 C 
BRANCH  10  11
HETATM   11  C   UNK N   1      34.502  10.171  20.752  0.00  0.00     0.076 C 
HETATM   12  C   UNK N   1      35.041   8.920  21.435  0.00  0.00     0.032 C 
BRANCH  11  13
HETATM   13  N   UNK N   1      33.812  10.997  21.734  0.00  0.00    -0.421 N 
HETATM   14  C   UNK N   1      32.579  10.330  22.122  0.00  0.00     0.140 C 
HETATM   15  H   UNK N   1      34.138  11.895  22.090  0.00  0.00     0.153 HD
ENDBRANCH  11  13
ENDBRANCH  10  11
ENDBRANCH   3  10
TORSDOF 3
ENDMDL
MODEL 8
REMARK VINA RESULT:      -4.8      9.484     10.633
REMARK  3 active torsions:
REMARK  status: ('A' for Active; 'I' for Inactive)
REMARK    1  A    between atoms: N_3  and  C_4 
REMARK    2  A    between atoms: C_4  and  C_5 
REMARK    3  A    between atoms: C_5  and  C_6 
ROOT
HETATM    1  O   UNK N   1      22.167  12.027  12.357  0.00  0.00    -0.323 OA
HETATM    2  O   UNK N   1      24.379  11.965  12.266  0.00  0.00    -0.323 OA
HETATM    3  C   UNK N   1      22.419  12.466   8.715  0.00  0.00    -0.053 A 
HETATM    4  C   UNK N   1      21.769  12.330   9.957  0.00  0.00     0.047 A 
HETATM    5  C   UNK N   1      22.558  12.170  11.094  0.00  0.00     0.105 A 
HETATM    6  C   UNK N   1      23.838  12.439   8.663  0.00  0.00     0.010 A 
HETATM    7  C   UNK N   1      23.894  12.135  11.037  0.00  0.00     0.105 A 
HETATM    8  C   UNK N   1      24.592  12.266   9.841  0.00  0.00     0.040 A 
HETATM    9  C   UNK N   1      23.306  11.890  13.159  0.00  0.00     0.352 A 
ENDROOT
BRANCH   3  10
HETATM   10  C   UNK N   1      21.567  12.615   7.482  0.00  0.00     0.063 C 
BRANCH  10  11
HETATM   11  C   UNK N   1      20.750  13.901   7.325  0.00  0.00     0.076 C 
HETATM   12  C   UNK N   1      21.632  15.137   7.449  0.00  0.00     0.032 C 
BRANCH  11  13
HETATM   13  N   UNK N   1      20.133  13.879   6.005  0.00  0.00    -0.421 N 
HETATM   14  C   UNK N   1      19.772  15.239   5.636  0.00  0.00     0.140 C 
HETATM   15  H   UNK N   1      19.980  13.048   5.434  0.00  0.00     0.153 HD
ENDBRANCH  11  13
ENDBRANCH  10  11
ENDBRANCH   3  10
TORSDOF 3
ENDMDL
MODEL 9
REMARK VINA RESULT:      -4.8      3.298      5.692
REMARK  3 active torsions:
REMARK  status: ('A' for Active; 'I' for Inactive)
REMARK    1  A    between atoms: N_3  and  C_4 
REMARK    2  A    between atoms: C_4  and  C_5 
REMARK    3  A    between atoms: C_5  and  C_6 
ROOT
HETATM    1  O   UNK N   1      29.020  16.405   5.942  0.00  0.00    -0.323 OA
HETATM    2  O   UNK N   1      27.657  17.318   7.430  0.00  0.00    -0.323 OA
HETATM    3  C   UNK N   1      31.663  17.754   8.115  0.00  0.00    -0.053 A 
HETATM    4  C   UNK N   1      31.126  17.065   7.010  0.00  0.00     0.047 A 
HETATM    5  C   UNK N   1      29.740  16.994   6.893  0.00  0.00     0.105 A 
HETATM    6  C   UNK N   1      30.785  18.349   9.060  0.00  0.00     0.010 A 
HETATM    7  C   UNK N   1      28.919  17.549   7.791  0.00  0.00     0.105 A 
HETATM    8  C   UNK N   1      29.388  18.242   8.902  0.00  0.00     0.040 A 
HETATM    9  C   UNK N   1      27.665  16.583   6.240  0.00  0.00     0.352 A 
ENDROOT
BRANCH   3  10
HETATM   10  C   UNK N   1      33.161  17.810   8.257  0.00  0.00     0.063 C 
BRANCH  10  11
HETATM   11  C   UNK N   1      33.842  16.729   9.100  0.00  0.00     0.076 C 
HETATM   12  C   UNK N   1      34.595  15.734   8.226  0.00  0.00     0.032 C 
BRANCH  11  13
HETATM   13  N   UNK N   1      34.782  17.390   9.997  0.00  0.00    -0.421 N 
HETATM   14  C   UNK N   1      35.289  16.411  10.946  0.00  0.00     0.140 C 
HETATM   15  H   UNK N   1      35.042  18.375   9.965  0.00  0.00     0.153 HD
ENDBRANCH  11  13
ENDBRANCH  10  11
ENDBRANCH   3  10
TORSDOF 3
ENDMDL
