MODEL 1
REMARK VINA RESULT:      -7.7      0.000      0.000
REMARK  0 active torsions:
REMARK  status: ('A' for Active; 'I' for Inactive)
ROOT
HETATM    1  C   UNK N   1      35.609  12.270  16.026  0.00  0.00    -0.001 C 
HETATM    2  C   UNK N   1      34.736  11.052  16.437  0.00  0.00     0.003 C 
HETATM    3  C   UNK N   1      35.185  12.714  14.618  0.00  0.00     0.006 C 
HETATM    4  C   UNK N   1      35.400  13.406  17.035  0.00  0.00     0.033 C 
HETATM    5  C   UNK N   1      35.202  10.527  17.821  0.00  0.00    -0.016 C 
HETATM    6  C   UNK N   1      34.743   9.936  15.361  0.00  0.00     0.007 C 
HETATM    7  C   UNK N   1      35.361  11.586  13.598  0.00  0.00     0.021 C 
HETATM    8  C   UNK N   1      35.851  13.916  13.966  0.00  0.00     0.013 C 
HETATM    9  C   UNK N   1      35.308  12.946  18.471  0.00  0.00    -0.022 C 
HETATM   10  C   UNK N   1      35.212  11.656  18.846  0.00  0.00    -0.068 C 
HETATM   11  C   UNK N   1      34.244   9.426  18.291  0.00  0.00     0.021 C 
HETATM   12  C   UNK N   1      36.618   9.947  17.729  0.00  0.00     0.020 C 
HETATM   13  C   UNK N   1      34.378  10.474  13.963  0.00  0.00     0.018 C 
HETATM   14  C   UNK N   1      35.120  12.352  12.351  0.00  0.00     0.135 C 
HETATM   15  C   UNK N   1      36.785  11.024  13.518  0.00  0.00     0.024 C 
HETATM   16  C   UNK N   1      35.355  13.820  12.512  0.00  0.00     0.079 C 
HETATM   17  C   UNK N   1      35.088  11.373  20.323  0.00  0.00     0.113 C 
HETATM   18  C   UNK N   1      34.653   8.865  19.648  0.00  0.00     0.079 C 
HETATM   19  O   UNK N   1      34.950  11.827  11.261  0.00  0.00    -0.297 OA
HETATM   20  C   UNK N   1      34.759   9.946  20.682  0.00  0.00     0.130 C 
HETATM   21  O   UNK N   1      34.569   9.662  21.853  0.00  0.00    -0.298 OA
ENDROOT
TORSDOF 0
ENDMDL
MODEL 2
REMARK VINA RESULT:      -7.6     22.528     25.953
REMARK  0 active torsions:
REMARK  status: ('A' for Active; 'I' for Inactive)
ROOT
HETATM    1  C   UNK N   1      29.193  23.211  -5.282  0.00  0.00    -0.001 C 
HETATM    2  C   UNK N   1      28.425  23.999  -4.184  0.00  0.00     0.003 C 
HETATM    3  C   UNK N   1      29.997  22.093  -4.601  0.00  0.00     0.006 C 
HETATM    4  C   UNK N   1      28.187  22.621  -6.278  0.00  0.00     0.033 C 
HETATM    5  C   UNK N   1      27.672  25.189  -4.834  0.00  0.00    -0.016 C 
HETATM    6  C   UNK N   1      29.357  24.460  -3.034  0.00  0.00     0.007 C 
HETATM    7  C   UNK N   1      30.991  22.659  -3.583  0.00  0.00     0.021 C 
HETATM    8  C   UNK N   1      30.826  21.132  -5.439  0.00  0.00     0.013 C 
HETATM    9  C   UNK N   1      27.042  23.545  -6.620  0.00  0.00    -0.022 C 
HETATM   10  C   UNK N   1      26.790  24.703  -5.979  0.00  0.00    -0.068 C 
HETATM   11  C   UNK N   1      26.797  25.870  -3.776  0.00  0.00     0.021 C 
HETATM   12  C   UNK N   1      28.665  26.214  -5.393  0.00  0.00     0.020 C 
HETATM   13  C   UNK N   1      30.184  23.296  -2.453  0.00  0.00     0.018 C 
HETATM   14  C   UNK N   1      31.757  21.424  -3.286  0.00  0.00     0.135 C 
HETATM   15  C   UNK N   1      31.978  23.678  -4.163  0.00  0.00     0.024 C 
HETATM   16  C   UNK N   1      31.663  20.402  -4.374  0.00  0.00     0.079 C 
HETATM   17  C   UNK N   1      25.581  25.488  -6.422  0.00  0.00     0.113 C 
HETATM   18  C   UNK N   1      26.032  27.055  -4.355  0.00  0.00     0.079 C 
HETATM   19  O   UNK N   1      32.545  21.328  -2.358  0.00  0.00    -0.297 OA
HETATM   20  C   UNK N   1      25.206  26.652  -5.539  0.00  0.00     0.130 C 
HETATM   21  O   UNK N   1      24.195  27.284  -5.795  0.00  0.00    -0.298 OA
ENDROOT
TORSDOF 0
ENDMDL
MODEL 3
REMARK VINA RESULT:      -7.2     22.134     25.076
REMARK  0 active torsions:
REMARK  status: ('A' for Active; 'I' for Inactive)
ROOT
HETATM    1  C   UNK N   1      29.251  23.452  -4.422  0.00  0.00    -0.001 C 
HETATM    2  C   UNK N   1      29.661  22.148  -5.162  0.00  0.00     0.003 C 
HETATM    3  C   UNK N   1      27.758  23.705  -4.684  0.00  0.00     0.006 C 
HETATM    4  C   UNK N   1      29.515  23.287  -2.921  0.00  0.00     0.033 C 
HETATM    5  C   UNK N   1      31.185  21.914  -4.987  0.00  0.00    -0.016 C 
HETATM    6  C   UNK N   1      29.244  22.164  -6.655  0.00  0.00     0.007 C 
HETATM    7  C   UNK N   1      27.467  23.848  -6.180  0.00  0.00     0.021 C 
HETATM    8  C   UNK N   1      27.067  24.905  -4.052  0.00  0.00     0.013 C 
HETATM    9  C   UNK N   1      30.800  22.564  -2.596  0.00  0.00    -0.022 C 
HETATM   10  C   UNK N   1      31.564  21.934  -3.510  0.00  0.00    -0.068 C 
HETATM   11  C   UNK N   1      31.558  20.553  -5.586  0.00  0.00     0.021 C 
HETATM   12  C   UNK N   1      31.984  23.008  -5.705  0.00  0.00     0.020 C 
HETATM   13  C   UNK N   1      27.750  22.497  -6.837  0.00  0.00     0.018 C 
HETATM   14  C   UNK N   1      26.061  24.310  -6.107  0.00  0.00     0.135 C 
HETATM   15  C   UNK N   1      28.273  24.950  -6.877  0.00  0.00     0.024 C 
HETATM   16  C   UNK N   1      25.719  24.936  -4.792  0.00  0.00     0.079 C 
HETATM   17  C   UNK N   1      32.798  21.227  -3.009  0.00  0.00     0.113 C 
HETATM   18  C   UNK N   1      33.049  20.266  -5.448  0.00  0.00     0.079 C 
HETATM   19  O   UNK N   1      25.319  24.366  -7.076  0.00  0.00    -0.297 OA
HETATM   20  C   UNK N   1      33.497  20.352  -4.020  0.00  0.00     0.130 C 
HETATM   21  O   UNK N   1      34.457  19.691  -3.663  0.00  0.00    -0.298 OA
ENDROOT
TORSDOF 0
ENDMDL
MODEL 4
REMARK VINA RESULT:      -7.1     11.222     14.228
REMARK  0 active torsions:
REMARK  status: ('A' for Active; 'I' for Inactive)
ROOT
HETATM    1  C   UNK N   1      29.891  16.643   6.572  0.00  0.00    -0.001 C 
HETATM    2  C   UNK N   1      29.614  16.920   5.068  0.00  0.00     0.003 C 
HETATM    3  C   UNK N   1      31.150  17.422   6.982  0.00  0.00     0.006 C 
HETATM    4  C   UNK N   1      28.684  17.097   7.401  0.00  0.00     0.033 C 
HETATM    5  C   UNK N   1      28.397  16.076   4.604  0.00  0.00    -0.016 C 
HETATM    6  C   UNK N   1      30.864  16.669   4.186  0.00  0.00     0.007 C 
HETATM    7  C   UNK N   1      32.365  17.003   6.149  0.00  0.00     0.021 C 
HETATM    8  C   UNK N   1      31.646  17.368   8.419  0.00  0.00     0.013 C 
HETATM    9  C   UNK N   1      27.348  16.780   6.770  0.00  0.00    -0.022 C 
HETATM   10  C   UNK N   1      27.197  16.325   5.511  0.00  0.00    -0.068 C 
HETATM   11  C   UNK N   1      28.034  16.465   3.166  0.00  0.00     0.021 C 
HETATM   12  C   UNK N   1      28.731  14.581   4.645  0.00  0.00     0.020 C 
HETATM   13  C   UNK N   1      32.103  17.427   4.704  0.00  0.00     0.018 C 
HETATM   14  C   UNK N   1      33.427  17.710   6.904  0.00  0.00     0.135 C 
HETATM   15  C   UNK N   1      32.684  15.505   6.208  0.00  0.00     0.024 C 
HETATM   16  C   UNK N   1      33.036  18.017   8.314  0.00  0.00     0.079 C 
HETATM   17  C   UNK N   1      25.788  16.096   5.024  0.00  0.00     0.113 C 
HETATM   18  C   UNK N   1      26.843  15.664   2.650  0.00  0.00     0.079 C 
HETATM   19  O   UNK N   1      34.570  17.844   6.492  0.00  0.00    -0.297 OA
HETATM   20  C   UNK N   1      25.653  15.806   3.550  0.00  0.00     0.130 C 
HETATM   21  O   UNK N   1      24.537  15.686   3.073  0.00  0.00    -0.298 OA
ENDROOT
TORSDOF 0
ENDMDL
MODEL 5
REMARK VINA RESULT:      -7.0     14.583     17.587
REMARK  0 active torsions:
REMARK  status: ('A' for Active; 'I' for Inactive)
ROOT
HETATM    1  C   UNK N   1      21.296  15.016   7.803  0.00  0.00    -0.001 C 
HETATM    2  C   UNK N   1      22.639  15.391   7.116  0.00  0.00     0.003 C 
HETATM    3  C   UNK N   1      21.608  14.153   9.035  0.00  0.00     0.006 C 
HETATM    4  C   UNK N   1      20.564  16.299   8.216  0.00  0.00     0.033 C 
HETATM    5  C   UNK N   1      22.350  16.191   5.819  0.00  0.00    -0.016 C 
HETATM    6  C   UNK N   1      23.525  14.148   6.846  0.00  0.00     0.007 C 
HETATM    7  C   UNK N   1      22.363  12.877   8.649  0.00  0.00     0.021 C 
HETATM    8  C   UNK N   1      20.478  13.663   9.928  0.00  0.00     0.013 C 
HETATM    9  C   UNK N   1      20.650  17.413   7.199  0.00  0.00    -0.022 C 
HETATM   10  C   UNK N   1      21.451  17.386   6.117  0.00  0.00    -0.068 C 
HETATM   11  C   UNK N   1      23.673  16.688   5.228  0.00  0.00     0.021 C 
HETATM   12  C   UNK N   1      21.645  15.304   4.785  0.00  0.00     0.020 C 
HETATM   13  C   UNK N   1      23.732  13.294   8.113  0.00  0.00     0.018 C 
HETATM   14  C   UNK N   1      22.306  12.164   9.947  0.00  0.00     0.135 C 
HETATM   15  C   UNK N   1      21.638  12.004   7.618  0.00  0.00     0.024 C 
HETATM   16  C   UNK N   1      21.188  12.633  10.824  0.00  0.00     0.079 C 
HETATM   17  C   UNK N   1      21.444  18.602   5.223  0.00  0.00     0.113 C 
HETATM   18  C   UNK N   1      23.454  17.480   3.944  0.00  0.00     0.079 C 
HETATM   19  O   UNK N   1      22.964  11.166  10.196  0.00  0.00    -0.297 OA
HETATM   20  C   UNK N   1      22.512  18.626   4.157  0.00  0.00     0.130 C 
HETATM   21  O   UNK N   1      22.613  19.613   3.448  0.00  0.00    -0.298 OA
ENDROOT
TORSDOF 0
ENDMDL
MODEL 6
REMARK VINA RESULT:      -7.0      1.948      3.750
REMARK  0 active torsions:
REMARK  status: ('A' for Active; 'I' for Inactive)
ROOT
HETATM    1  C   UNK N   1      36.718  11.564  13.366  0.00  0.00    -0.001 C 
HETATM    2  C   UNK N   1      36.504  12.728  14.374  0.00  0.00     0.003 C 
HETATM    3  C   UNK N   1      37.416  12.128  12.119  0.00  0.00     0.006 C 
HETATM    4  C   UNK N   1      37.580  10.479  14.022  0.00  0.00     0.033 C 
HETATM    5  C   UNK N   1      35.722  12.205  15.608  0.00  0.00    -0.016 C 
HETATM    6  C   UNK N   1      35.807  13.949  13.721  0.00  0.00     0.007 C 
HETATM    7  C   UNK N   1      36.584  13.233  11.462  0.00  0.00     0.021 C 
HETATM    8  C   UNK N   1      37.785  11.203  10.969  0.00  0.00     0.013 C 
HETATM    9  C   UNK N   1      37.247  10.220  15.473  0.00  0.00    -0.022 C 
HETATM   10  C   UNK N   1      36.418  10.987  16.206  0.00  0.00    -0.068 C 
HETATM   11  C   UNK N   1      35.647  13.313  16.664  0.00  0.00     0.021 C 
HETATM   12  C   UNK N   1      34.298  11.799  15.210  0.00  0.00     0.020 C 
HETATM   13  C   UNK N   1      36.525  14.409  12.436  0.00  0.00     0.018 C 
HETATM   14  C   UNK N   1      37.357  13.399  10.208  0.00  0.00     0.135 C 
HETATM   15  C   UNK N   1      35.166  12.804  11.069  0.00  0.00     0.024 C 
HETATM   16  C   UNK N   1      38.172  12.195   9.859  0.00  0.00     0.079 C 
HETATM   17  C   UNK N   1      36.226  10.609  17.653  0.00  0.00     0.113 C 
HETATM   18  C   UNK N   1      34.883  12.860  17.903  0.00  0.00     0.079 C 
HETATM   19  O   UNK N   1      37.192  14.330   9.435  0.00  0.00    -0.297 OA
HETATM   20  C   UNK N   1      35.476  11.615  18.490  0.00  0.00     0.130 C 
HETATM   21  O   UNK N   1      35.351  11.410  19.686  0.00  0.00    -0.298 OA
ENDROOT
TORSDOF 0
ENDMDL
MODEL 7
REMARK VINA RESULT:      -7.0      1.339      6.315
REMARK  0 active torsions:
REMARK  status: ('A' for Active; 'I' for Inactive)
ROOT
HETATM    1  C   UNK N   1      35.270  11.135  17.911  0.00  0.00    -0.001 C 
HETATM    2  C   UNK N   1      36.405  10.764  16.916  0.00  0.00     0.003 C 
HETATM    3  C   UNK N   1      35.601  10.510  19.275  0.00  0.00     0.006 C 
HETATM    4  C   UNK N   1      35.176  12.661  18.026  0.00  0.00     0.033 C 
HETATM    5  C   UNK N   1      36.054  11.309  15.506  0.00  0.00    -0.016 C 
HETATM    6  C   UNK N   1      36.691   9.240  16.894  0.00  0.00     0.007 C 
HETATM    7  C   UNK N   1      35.724   8.987  19.179  0.00  0.00     0.021 C 
HETATM    8  C   UNK N   1      34.675  10.736  20.461  0.00  0.00     0.013 C 
HETATM    9  C   UNK N   1      35.350  13.390  16.714  0.00  0.00    -0.022 C 
HETATM   10  C   UNK N   1      35.749  12.801  15.570  0.00  0.00    -0.068 C 
HETATM   11  C   UNK N   1      37.241  11.075  14.566  0.00  0.00     0.021 C 
HETATM   12  C   UNK N   1      34.823  10.589  14.942  0.00  0.00     0.020 C 
HETATM   13  C   UNK N   1      36.940   8.676  18.307  0.00  0.00     0.018 C 
HETATM   14  C   UNK N   1      35.796   8.662  20.623  0.00  0.00     0.135 C 
HETATM   15  C   UNK N   1      34.481   8.288  18.617  0.00  0.00     0.024 C 
HETATM   16  C   UNK N   1      35.207   9.727  21.493  0.00  0.00     0.079 C 
HETATM   17  C   UNK N   1      35.909  13.685  14.358  0.00  0.00     0.113 C 
HETATM   18  C   UNK N   1      36.954  11.587  13.159  0.00  0.00     0.079 C 
HETATM   19  O   UNK N   1      36.110   7.561  21.051  0.00  0.00    -0.297 OA
HETATM   20  C   UNK N   1      36.569  13.036  13.168  0.00  0.00     0.130 C 
HETATM   21  O   UNK N   1      36.799  13.713  12.180  0.00  0.00    -0.298 OA
ENDROOT
TORSDOF 0
ENDMDL
MODEL 8
REMARK VINA RESULT:      -6.9     27.054     28.890
REMARK  0 active torsions:
REMARK  status: ('A' for Active; 'I' for Inactive)
ROOT
HETATM    1  C   UNK N   1      27.036  26.161  -7.151  0.00  0.00    -0.001 C 
HETATM    2  C   UNK N   1      26.979  24.683  -6.674  0.00  0.00     0.003 C 
HETATM    3  C   UNK N   1      27.114  27.065  -5.911  0.00  0.00     0.006 C 
HETATM    4  C   UNK N   1      28.269  26.359  -8.041  0.00  0.00     0.033 C 
HETATM    5  C   UNK N   1      26.811  23.750  -7.903  0.00  0.00    -0.016 C 
HETATM    6  C   UNK N   1      25.871  24.451  -5.615  0.00  0.00     0.007 C 
HETATM    7  C   UNK N   1      25.904  26.866  -4.995  0.00  0.00     0.021 C 
HETATM    8  C   UNK N   1      27.215  28.574  -6.075  0.00  0.00     0.013 C 
HETATM    9  C   UNK N   1      28.539  25.210  -8.985  0.00  0.00    -0.022 C 
HETATM   10  C   UNK N   1      27.898  24.027  -8.936  0.00  0.00    -0.068 C 
HETATM   11  C   UNK N   1      26.908  22.291  -7.445  0.00  0.00     0.021 C 
HETATM   12  C   UNK N   1      25.447  23.973  -8.566  0.00  0.00     0.020 C 
HETATM   13  C   UNK N   1      25.974  25.444  -4.439  0.00  0.00     0.018 C 
HETATM   14  C   UNK N   1      26.125  27.994  -4.059  0.00  0.00     0.135 C 
HETATM   15  C   UNK N   1      24.551  27.098  -5.676  0.00  0.00     0.024 C 
HETATM   16  C   UNK N   1      26.976  29.078  -4.641  0.00  0.00     0.079 C 
HETATM   17  C   UNK N   1      28.318  22.973  -9.931  0.00  0.00     0.113 C 
HETATM   18  C   UNK N   1      26.746  21.322  -8.611  0.00  0.00     0.079 C 
HETATM   19  O   UNK N   1      25.515  28.127  -3.009  0.00  0.00    -0.297 OA
HETATM   20  C   UNK N   1      27.740  21.599  -9.699  0.00  0.00     0.130 C 
HETATM   21  O   UNK N   1      28.097  20.681 -10.418  0.00  0.00    -0.298 OA
ENDROOT
TORSDOF 0
ENDMDL
MODEL 9
REMARK VINA RESULT:      -6.9      6.828     10.248
REMARK  0 active torsions:
REMARK  status: ('A' for Active; 'I' for Inactive)
ROOT
HETATM    1  C   UNK N   1      33.873  16.503   6.685  0.00  0.00    -0.001 C 
HETATM    2  C   UNK N   1      33.390  15.433   7.703  0.00  0.00     0.003 C 
HETATM    3  C   UNK N   1      32.807  16.641   5.588  0.00  0.00     0.006 C 
HETATM    4  C   UNK N   1      34.075  17.838   7.411  0.00  0.00     0.033 C 
HETATM    5  C   UNK N   1      34.488  15.209   8.777  0.00  0.00    -0.016 C 
HETATM    6  C   UNK N   1      32.978  14.109   7.011  0.00  0.00     0.007 C 
HETATM    7  C   UNK N   1      32.571  15.312   4.865  0.00  0.00     0.021 C 
HETATM    8  C   UNK N   1      32.996  17.649   4.464  0.00  0.00     0.013 C 
HETATM    9  C   UNK N   1      34.700  17.708   8.780  0.00  0.00    -0.022 C 
HETATM   10  C   UNK N   1      34.890  16.535   9.415  0.00  0.00    -0.068 C 
HETATM   11  C   UNK N   1      33.949  14.270   9.861  0.00  0.00     0.021 C 
HETATM   12  C   UNK N   1      35.736  14.579   8.148  0.00  0.00     0.020 C 
HETATM   13  C   UNK N   1      31.962  14.339   5.874  0.00  0.00     0.018 C 
HETATM   14  C   UNK N   1      31.716  15.793   3.753  0.00  0.00     0.135 C 
HETATM   15  C   UNK N   1      33.830  14.701   4.240  0.00  0.00     0.024 C 
HETATM   16  C   UNK N   1      31.887  17.253   3.475  0.00  0.00     0.079 C 
HETATM   17  C   UNK N   1      35.494  16.587  10.796  0.00  0.00     0.113 C 
HETATM   18  C   UNK N   1      34.987  14.007  10.946  0.00  0.00     0.079 C 
HETATM   19  O   UNK N   1      31.097  15.048   3.010  0.00  0.00    -0.297 OA
HETATM   20  C   UNK N   1      35.481  15.284  11.556  0.00  0.00     0.130 C 
HETATM   21  O   UNK N   1      35.884  15.270  12.707  0.00  0.00    -0.298 OA
ENDROOT
TORSDOF 0
ENDMDL
