MODEL 1
REMARK VINA RESULT:      -9.3      0.000      0.000
REMARK  7 active torsions:
REMARK  status: ('A' for Active; 'I' for Inactive)
REMARK    1  A    between atoms: N_3  and  C_12 
REMARK    2  A    between atoms: N_4  and  C_7 
REMARK       I    between atoms: N_5  and  C_22 
REMARK    3  A    between atoms: C_12  and  C_13 
REMARK    4  A    between atoms: C_13  and  C_15 
REMARK    5  A    between atoms: C_15  and  C_18 
REMARK    6  A    between atoms: C_15  and  C_19 
REMARK    7  A    between atoms: C_22  and  C_30 
ROOT
HETATM    1  N   UNK N   1      27.872  17.364   9.438  0.00  0.00    -0.196 NA
HETATM    2  C   UNK N   1      28.837  17.432   6.973  0.00  0.00     0.104 C 
HETATM    3  C   UNK N   1      28.321  17.396   8.371  0.00  0.00     0.079 C 
ENDROOT
BRANCH   2   4
HETATM    4  C   UNK N   1      28.343  16.157   6.209  0.00  0.00     0.065 C 
BRANCH   4   5
HETATM    5  C   UNK N   1      26.919  15.819   6.692  0.00  0.00     0.275 C 
BRANCH   5   6
HETATM    6  N   UNK N   1      25.976  15.155   5.819  0.00  0.00     0.088 N 
HETATM    7  C   UNK N   1      24.663  15.313   6.465  0.00  0.00     0.274 C 
HETATM    8  C   UNK N   1      23.505  15.286   5.477  0.00  0.00     0.056 C 
HETATM    9  C   UNK N   1      23.692  16.429   4.491  0.00  0.00     0.098 C 
HETATM   10  C   UNK N   1      24.945  16.093   3.708  0.00  0.00     0.056 C 
HETATM   11  C   UNK N   1      26.131  16.041   4.651  0.00  0.00     0.274 C 
BRANCH   9  12
HETATM   12  N   UNK N   1      22.503  16.561   3.640  0.00  0.00    -0.292 N 
HETATM   13  C   UNK N   1      21.663  17.607   3.448  0.00  0.00     0.066 A 
HETATM   14  C   UNK N   1      20.728  17.270   2.499  0.00  0.00     0.074 A 
HETATM   15  C   UNK N   1      21.671  18.863   4.057  0.00  0.00     0.032 A 
HETATM   16  N   UNK N   1      20.954  16.003   2.075  0.00  0.00    -0.231 N 
HETATM   17  C   UNK N   1      19.747  18.174   2.086  0.00  0.00     0.032 A 
HETATM   18  C   UNK N   1      22.031  15.585   2.812  0.00  0.00     0.337 A 
HETATM   19  C   UNK N   1      20.285  15.291   1.099  0.00  0.00     0.232 C 
HETATM   20  O   UNK N   1      22.536  14.478   2.722  0.00  0.00    -0.246 OA
HETATM   21  O   UNK N   1      19.355  15.806   0.495  0.00  0.00    -0.273 OA
HETATM   22  C   UNK N   1      19.733  19.448   2.686  0.00  0.00     0.002 A 
HETATM   23  C   UNK N   1      20.688  19.789   3.669  0.00  0.00     0.002 A 
BRANCH  19  24
HETATM   24  C   UNK N   1      20.726  13.890   0.745  0.00  0.00     0.099 C 
HETATM   25  C   UNK N   1      19.576  12.941   0.457  0.00  0.00     0.014 C 
ENDBRANCH  19  24
ENDBRANCH   9  12
ENDBRANCH   5   6
ENDBRANCH   4   5
ENDBRANCH   2   4
BRANCH   2  26
HETATM   26  C   UNK N   1      30.385  17.383   6.945  0.00  0.00    -0.031 A 
HETATM   27  C   UNK N   1      31.177  17.699   8.063  0.00  0.00     0.009 A 
HETATM   28  C   UNK N   1      32.569  17.751   7.979  0.00  0.00     0.001 A 
HETATM   29  C   UNK N   1      33.201  17.511   6.759  0.00  0.00     0.000 A 
HETATM   30  C   UNK N   1      32.439  17.187   5.638  0.00  0.00     0.001 A 
HETATM   31  C   UNK N   1      31.047  17.113   5.735  0.00  0.00     0.009 A 
ENDBRANCH   2  26
BRANCH   2  32
HETATM   32  C   UNK N   1      28.167  18.702   6.399  0.00  0.00    -0.031 A 
HETATM   33  C   UNK N   1      27.709  19.707   7.280  0.00  0.00     0.009 A 
HETATM   34  C   UNK N   1      27.197  20.915   6.789  0.00  0.00     0.001 A 
HETATM   35  C   UNK N   1      27.150  21.150   5.413  0.00  0.00     0.000 A 
HETATM   36  C   UNK N   1      27.596  20.173   4.526  0.00  0.00     0.001 A 
HETATM   37  C   UNK N   1      28.098  18.969   5.018  0.00  0.00     0.009 A 
ENDBRANCH   2  32
TORSDOF 7
ENDMDL
MODEL 2
REMARK VINA RESULT:      -9.1      3.699      7.118
REMARK  7 active torsions:
REMARK  status: ('A' for Active; 'I' for Inactive)
REMARK    1  A    between atoms: N_3  and  C_12 
REMARK    2  A    between atoms: N_4  and  C_7 
REMARK       I    between atoms: N_5  and  C_22 
REMARK    3  A    between atoms: C_12  and  C_13 
REMARK    4  A    between atoms: C_13  and  C_15 
REMARK    5  A    between atoms: C_15  and  C_18 
REMARK    6  A    between atoms: C_15  and  C_19 
REMARK    7  A    between atoms: C_22  and  C_30 
ROOT
HETATM    1  N   UNK N   1      22.719  10.306   6.583  0.00  0.00    -0.196 NA
HETATM    2  C   UNK N   1      23.191  12.466   8.039  0.00  0.00     0.104 C 
HETATM    3  C   UNK N   1      22.917  11.235   7.244  0.00  0.00     0.079 C 
ENDROOT
BRANCH   2   4
HETATM    4  C   UNK N   1      24.675  12.909   7.807  0.00  0.00     0.065 C 
BRANCH   4   5
HETATM    5  C   UNK N   1      25.072  12.550   6.363  0.00  0.00     0.275 C 
BRANCH   5   6
HETATM    6  N   UNK N   1      25.544  13.565   5.446  0.00  0.00     0.088 N 
HETATM    7  C   UNK N   1      24.442  13.780   4.496  0.00  0.00     0.274 C 
HETATM    8  C   UNK N   1      24.442  15.177   3.889  0.00  0.00     0.056 C 
HETATM    9  C   UNK N   1      24.303  16.187   5.017  0.00  0.00     0.098 C 
HETATM   10  C   UNK N   1      25.571  16.064   5.836  0.00  0.00     0.056 C 
HETATM   11  C   UNK N   1      25.664  14.666   6.418  0.00  0.00     0.274 C 
BRANCH   9  12
HETATM   12  N   UNK N   1      24.104  17.533   4.468  0.00  0.00    -0.292 N 
HETATM   13  C   UNK N   1      25.001  18.475   4.086  0.00  0.00     0.066 A 
HETATM   14  C   UNK N   1      24.330  19.557   3.569  0.00  0.00     0.074 A 
HETATM   15  C   UNK N   1      26.395  18.441   4.156  0.00  0.00     0.032 A 
HETATM   16  N   UNK N   1      22.996  19.324   3.617  0.00  0.00    -0.231 N 
HETATM   17  C   UNK N   1      25.011  20.672   3.075  0.00  0.00     0.032 A 
HETATM   18  C   UNK N   1      22.887  18.088   4.198  0.00  0.00     0.337 A 
HETATM   19  C   UNK N   1      21.967  20.123   3.159  0.00  0.00     0.232 C 
HETATM   20  O   UNK N   1      21.828  17.526   4.424  0.00  0.00    -0.246 OA
HETATM   21  O   UNK N   1      22.215  21.197   2.628  0.00  0.00    -0.273 OA
HETATM   22  C   UNK N   1      26.417  20.662   3.134  0.00  0.00     0.002 A 
HETATM   23  C   UNK N   1      27.105  19.554   3.676  0.00  0.00     0.002 A 
BRANCH  19  24
HETATM   24  C   UNK N   1      20.535  19.656   3.273  0.00  0.00     0.099 C 
HETATM   25  C   UNK N   1      20.007  18.986   2.017  0.00  0.00     0.014 C 
ENDBRANCH  19  24
ENDBRANCH   9  12
ENDBRANCH   5   6
ENDBRANCH   4   5
ENDBRANCH   2   4
BRANCH   2  26
HETATM   26  C   UNK N   1      23.051  12.194   9.559  0.00  0.00    -0.031 A 
HETATM   27  C   UNK N   1      21.808  12.167  10.216  0.00  0.00     0.009 A 
HETATM   28  C   UNK N   1      21.719  12.028  11.601  0.00  0.00     0.001 A 
HETATM   29  C   UNK N   1      22.881  11.939  12.367  0.00  0.00     0.000 A 
HETATM   30  C   UNK N   1      24.125  11.954  11.739  0.00  0.00     0.001 A 
HETATM   31  C   UNK N   1      24.207  12.070  10.348  0.00  0.00     0.009 A 
ENDBRANCH   2  26
BRANCH   2  32
HETATM   32  C   UNK N   1      22.215  13.493   7.420  0.00  0.00    -0.031 A 
HETATM   33  C   UNK N   1      21.198  13.047   6.546  0.00  0.00     0.009 A 
HETATM   34  C   UNK N   1      20.232  13.936   6.055  0.00  0.00     0.001 A 
HETATM   35  C   UNK N   1      20.253  15.279   6.440  0.00  0.00     0.000 A 
HETATM   36  C   UNK N   1      21.247  15.739   7.300  0.00  0.00     0.001 A 
HETATM   37  C   UNK N   1      22.211  14.854   7.781  0.00  0.00     0.009 A 
ENDBRANCH   2  32
TORSDOF 7
ENDMDL
MODEL 3
REMARK VINA RESULT:      -8.5      1.242      2.992
REMARK  7 active torsions:
REMARK  status: ('A' for Active; 'I' for Inactive)
REMARK    1  A    between atoms: N_3  and  C_12 
REMARK    2  A    between atoms: N_4  and  C_7 
REMARK       I    between atoms: N_5  and  C_22 
REMARK    3  A    between atoms: C_12  and  C_13 
REMARK    4  A    between atoms: C_13  and  C_15 
REMARK    5  A    between atoms: C_15  and  C_18 
REMARK    6  A    between atoms: C_15  and  C_19 
REMARK    7  A    between atoms: C_22  and  C_30 
ROOT
HETATM    1  N   UNK N   1      27.520  16.816   8.521  0.00  0.00    -0.196 NA
HETATM    2  C   UNK N   1      28.834  17.491   6.324  0.00  0.00     0.104 C 
HETATM    3  C   UNK N   1      28.120  17.111   7.576  0.00  0.00     0.079 C 
ENDROOT
BRANCH   2   4
HETATM    4  C   UNK N   1      28.540  16.420   5.219  0.00  0.00     0.065 C 
BRANCH   4   5
HETATM    5  C   UNK N   1      27.864  15.205   5.883  0.00  0.00     0.275 C 
BRANCH   5   6
HETATM    6  N   UNK N   1      26.652  14.636   5.334  0.00  0.00     0.088 N 
HETATM    7  C   UNK N   1      25.557  15.167   6.161  0.00  0.00     0.274 C 
HETATM    8  C   UNK N   1      24.230  15.241   5.419  0.00  0.00     0.056 C 
HETATM    9  C   UNK N   1      24.407  16.156   4.217  0.00  0.00     0.098 C 
HETATM   10  C   UNK N   1      25.383  15.446   3.302  0.00  0.00     0.056 C 
HETATM   11  C   UNK N   1      26.713  15.282   4.011  0.00  0.00     0.274 C 
BRANCH   9  12
HETATM   12  N   UNK N   1      23.108  16.410   3.582  0.00  0.00    -0.292 N 
HETATM   13  C   UNK N   1      22.277  15.583   2.903  0.00  0.00     0.066 A 
HETATM   14  C   UNK N   1      21.139  16.269   2.554  0.00  0.00     0.074 A 
HETATM   15  C   UNK N   1      22.453  14.238   2.571  0.00  0.00     0.032 A 
HETATM   16  N   UNK N   1      21.228  17.545   3.001  0.00  0.00    -0.231 N 
HETATM   17  C   UNK N   1      20.095  15.651   1.862  0.00  0.00     0.032 A 
HETATM   18  C   UNK N   1      22.457  17.609   3.602  0.00  0.00     0.337 A 
HETATM   19  C   UNK N   1      20.291  18.555   2.911  0.00  0.00     0.232 C 
HETATM   20  O   UNK N   1      22.914  18.612   4.127  0.00  0.00    -0.246 OA
HETATM   21  O   UNK N   1      19.214  18.344   2.370  0.00  0.00    -0.273 OA
HETATM   22  C   UNK N   1      20.249  14.295   1.516  0.00  0.00     0.002 A 
HETATM   23  C   UNK N   1      21.424  13.593   1.865  0.00  0.00     0.002 A 
BRANCH  19  24
HETATM   24  C   UNK N   1      20.574  19.910   3.517  0.00  0.00     0.099 C 
HETATM   25  C   UNK N   1      20.989  20.960   2.502  0.00  0.00     0.014 C 
ENDBRANCH  19  24
ENDBRANCH   9  12
ENDBRANCH   5   6
ENDBRANCH   4   5
ENDBRANCH   2   4
BRANCH   2  26
HETATM   26  C   UNK N   1      30.369  17.491   6.531  0.00  0.00    -0.031 A 
HETATM   27  C   UNK N   1      31.279  17.288   5.478  0.00  0.00     0.009 A 
HETATM   28  C   UNK N   1      32.651  17.186   5.711  0.00  0.00     0.001 A 
HETATM   29  C   UNK N   1      33.144  17.258   7.013  0.00  0.00     0.000 A 
HETATM   30  C   UNK N   1      32.263  17.467   8.073  0.00  0.00     0.001 A 
HETATM   31  C   UNK N   1      30.892  17.593   7.831  0.00  0.00     0.009 A 
ENDBRANCH   2  26
BRANCH   2  32
HETATM   32  C   UNK N   1      28.178  18.842   5.957  0.00  0.00    -0.031 A 
HETATM   33  C   UNK N   1      27.774  19.081   4.624  0.00  0.00     0.009 A 
HETATM   34  C   UNK N   1      27.081  20.249   4.282  0.00  0.00     0.001 A 
HETATM   35  C   UNK N   1      26.763  21.190   5.263  0.00  0.00     0.000 A 
HETATM   36  C   UNK N   1      27.152  20.975   6.583  0.00  0.00     0.001 A 
HETATM   37  C   UNK N   1      27.849  19.815   6.919  0.00  0.00     0.009 A 
ENDBRANCH   2  32
TORSDOF 7
ENDMDL
MODEL 4
REMARK VINA RESULT:      -8.5      3.910      6.206
REMARK  7 active torsions:
REMARK  status: ('A' for Active; 'I' for Inactive)
REMARK    1  A    between atoms: N_3  and  C_12 
REMARK    2  A    between atoms: N_4  and  C_7 
REMARK       I    between atoms: N_5  and  C_22 
REMARK    3  A    between atoms: C_12  and  C_13 
REMARK    4  A    between atoms: C_13  and  C_15 
REMARK    5  A    between atoms: C_15  and  C_18 
REMARK    6  A    between atoms: C_15  and  C_19 
REMARK    7  A    between atoms: C_22  and  C_30 
ROOT
HETATM    1  N   UNK N   1      31.055  16.577   3.160  0.00  0.00    -0.196 NA
HETATM    2  C   UNK N   1      29.982  16.703   5.577  0.00  0.00     0.104 C 
HETATM    3  C   UNK N   1      30.574  16.659   4.210  0.00  0.00     0.079 C 
ENDROOT
BRANCH   2   4
HETATM    4  C   UNK N   1      29.090  15.435   5.793  0.00  0.00     0.065 C 
BRANCH   4   5
HETATM    5  C   UNK N   1      28.318  15.152   4.489  0.00  0.00     0.275 C 
BRANCH   5   6
HETATM    6  N   UNK N   1      26.938  14.721   4.520  0.00  0.00     0.088 N 
HETATM    7  C   UNK N   1      26.917  13.524   5.375  0.00  0.00     0.274 C 
HETATM    8  C   UNK N   1      25.573  13.299   6.054  0.00  0.00     0.056 C 
HETATM    9  C   UNK N   1      25.269  14.510   6.922  0.00  0.00     0.098 C 
HETATM   10  C   UNK N   1      25.087  15.667   5.961  0.00  0.00     0.056 C 
HETATM   11  C   UNK N   1      26.379  15.902   5.202  0.00  0.00     0.274 C 
BRANCH   9  12
HETATM   12  N   UNK N   1      24.079  14.256   7.744  0.00  0.00    -0.292 N 
HETATM   13  C   UNK N   1      22.785  14.616   7.564  0.00  0.00     0.066 A 
HETATM   14  C   UNK N   1      22.021  14.085   8.576  0.00  0.00     0.074 A 
HETATM   15  C   UNK N   1      22.220  15.388   6.547  0.00  0.00     0.032 A 
HETATM   16  N   UNK N   1      22.817  13.383   9.418  0.00  0.00    -0.231 N 
HETATM   17  C   UNK N   1      20.640  14.280   8.628  0.00  0.00     0.032 A 
HETATM   18  C   UNK N   1      24.076  13.528   8.898  0.00  0.00     0.337 A 
HETATM   19  C   UNK N   1      22.455  12.650  10.532  0.00  0.00     0.232 C 
HETATM   20  O   UNK N   1      25.082  13.040   9.387  0.00  0.00    -0.246 OA
HETATM   21  O   UNK N   1      21.280  12.582  10.864  0.00  0.00    -0.273 OA
HETATM   22  C   UNK N   1      20.046  15.055   7.613  0.00  0.00     0.002 A 
HETATM   23  C   UNK N   1      20.834  15.609   6.580  0.00  0.00     0.002 A 
BRANCH  19  24
HETATM   24  C   UNK N   1      23.503  11.899  11.319  0.00  0.00     0.099 C 
HETATM   25  C   UNK N   1      23.242  11.871  12.815  0.00  0.00     0.014 C 
ENDBRANCH  19  24
ENDBRANCH   9  12
ENDBRANCH   5   6
ENDBRANCH   4   5
ENDBRANCH   2   4
BRANCH   2  26
HETATM   26  C   UNK N   1      29.046  17.926   5.744  0.00  0.00    -0.031 A 
HETATM   27  C   UNK N   1      28.661  18.742   4.665  0.00  0.00     0.009 A 
HETATM   28  C   UNK N   1      27.905  19.899   4.860  0.00  0.00     0.001 A 
HETATM   29  C   UNK N   1      27.537  20.280   6.149  0.00  0.00     0.000 A 
HETATM   30  C   UNK N   1      27.898  19.483   7.234  0.00  0.00     0.001 A 
HETATM   31  C   UNK N   1      28.635  18.313   7.031  0.00  0.00     0.009 A 
ENDBRANCH   2  26
BRANCH   2  32
HETATM   32  C   UNK N   1      31.231  16.650   6.488  0.00  0.00    -0.031 A 
HETATM   33  C   UNK N   1      32.331  17.491   6.211  0.00  0.00     0.009 A 
HETATM   34  C   UNK N   1      33.431  17.545   7.078  0.00  0.00     0.001 A 
HETATM   35  C   UNK N   1      33.445  16.776   8.244  0.00  0.00     0.000 A 
HETATM   36  C   UNK N   1      32.370  15.940   8.536  0.00  0.00     0.001 A 
HETATM   37  C   UNK N   1      31.281  15.882   7.667  0.00  0.00     0.009 A 
ENDBRANCH   2  32
TORSDOF 7
ENDMDL
MODEL 5
REMARK VINA RESULT:      -8.2      2.241      3.332
REMARK  7 active torsions:
REMARK  status: ('A' for Active; 'I' for Inactive)
REMARK    1  A    between atoms: N_3  and  C_12 
REMARK    2  A    between atoms: N_4  and  C_7 
REMARK       I    between atoms: N_5  and  C_22 
REMARK    3  A    between atoms: C_12  and  C_13 
REMARK    4  A    between atoms: C_13  and  C_15 
REMARK    5  A    between atoms: C_15  and  C_18 
REMARK    6  A    between atoms: C_15  and  C_19 
REMARK    7  A    between atoms: C_22  and  C_30 
ROOT
HETATM    1  N   UNK N   1      27.391  15.825   6.931  0.00  0.00    -0.196 NA
HETATM    2  C   UNK N   1      28.750  17.319   5.219  0.00  0.00     0.104 C 
HETATM    3  C   UNK N   1      28.010  16.473   6.197  0.00  0.00     0.079 C 
ENDROOT
BRANCH   2   4
HETATM    4  C   UNK N   1      28.526  16.752   3.776  0.00  0.00     0.065 C 
BRANCH   4   5
HETATM    5  C   UNK N   1      28.111  15.273   3.891  0.00  0.00     0.275 C 
BRANCH   5   6
HETATM    6  N   UNK N   1      26.867  14.803   3.322  0.00  0.00     0.088 N 
HETATM    7  C   UNK N   1      26.210  14.035   4.392  0.00  0.00     0.274 C 
HETATM    8  C   UNK N   1      24.693  14.009   4.263  0.00  0.00     0.056 C 
HETATM    9  C   UNK N   1      24.185  15.441   4.322  0.00  0.00     0.098 C 
HETATM   10  C   UNK N   1      24.721  16.118   3.076  0.00  0.00     0.056 C 
HETATM   11  C   UNK N   1      26.237  16.118   3.114  0.00  0.00     0.274 C 
BRANCH   9  12
HETATM   12  N   UNK N   1      22.719  15.454   4.395  0.00  0.00    -0.292 N 
HETATM   13  C   UNK N   1      21.785  14.999   3.524  0.00  0.00     0.066 A 
HETATM   14  C   UNK N   1      20.535  15.175   4.066  0.00  0.00     0.074 A 
HETATM   15  C   UNK N   1      21.964  14.422   2.265  0.00  0.00     0.032 A 
HETATM   16  N   UNK N   1      20.652  15.749   5.289  0.00  0.00    -0.231 N 
HETATM   17  C   UNK N   1      19.381  14.772   3.391  0.00  0.00     0.032 A 
HETATM   18  C   UNK N   1      22.000  15.932   5.451  0.00  0.00     0.337 A 
HETATM   19  C   UNK N   1      19.655  16.053   6.194  0.00  0.00     0.232 C 
HETATM   20  O   UNK N   1      22.511  16.438   6.437  0.00  0.00    -0.246 OA
HETATM   21  O   UNK N   1      18.488  15.802   5.927  0.00  0.00    -0.273 OA
HETATM   22  C   UNK N   1      19.535  14.187   2.119  0.00  0.00     0.002 A 
HETATM   23  C   UNK N   1      20.819  14.017   1.558  0.00  0.00     0.002 A 
BRANCH  19  24
HETATM   24  C   UNK N   1      20.005  16.659   7.533  0.00  0.00     0.099 C 
HETATM   25  C   UNK N   1      19.938  15.675   8.687  0.00  0.00     0.014 C 
ENDBRANCH  19  24
ENDBRANCH   9  12
ENDBRANCH   5   6
ENDBRANCH   4   5
ENDBRANCH   2   4
BRANCH   2  26
HETATM   26  C   UNK N   1      30.277  17.267   5.474  0.00  0.00    -0.031 A 
HETATM   27  C   UNK N   1      30.830  17.123   6.759  0.00  0.00     0.009 A 
HETATM   28  C   UNK N   1      32.207  17.188   6.971  0.00  0.00     0.001 A 
HETATM   29  C   UNK N   1      33.066  17.426   5.899  0.00  0.00     0.000 A 
HETATM   30  C   UNK N   1      32.544  17.563   4.614  0.00  0.00     0.001 A 
HETATM   31  C   UNK N   1      31.165  17.473   4.404  0.00  0.00     0.009 A 
ENDBRANCH   2  26
BRANCH   2  32
HETATM   32  C   UNK N   1      28.062  18.695   5.374  0.00  0.00    -0.031 A 
HETATM   33  C   UNK N   1      28.002  19.304   6.647  0.00  0.00     0.009 A 
HETATM   34  C   UNK N   1      27.484  20.597   6.802  0.00  0.00     0.001 A 
HETATM   35  C   UNK N   1      27.032  21.310   5.690  0.00  0.00     0.000 A 
HETATM   36  C   UNK N   1      27.081  20.729   4.425  0.00  0.00     0.001 A 
HETATM   37  C   UNK N   1      27.590  19.439   4.275  0.00  0.00     0.009 A 
ENDBRANCH   2  32
TORSDOF 7
ENDMDL
MODEL 6
REMARK VINA RESULT:      -8.2     12.348     15.050
REMARK  7 active torsions:
REMARK  status: ('A' for Active; 'I' for Inactive)
REMARK    1  A    between atoms: N_3  and  C_12 
REMARK    2  A    between atoms: N_4  and  C_7 
REMARK       I    between atoms: N_5  and  C_22 
REMARK    3  A    between atoms: C_12  and  C_13 
REMARK    4  A    between atoms: C_13  and  C_15 
REMARK    5  A    between atoms: C_15  and  C_18 
REMARK    6  A    between atoms: C_15  and  C_19 
REMARK    7  A    between atoms: C_22  and  C_30 
ROOT
HETATM    1  N   UNK N   1      27.425  23.466  -2.120  0.00  0.00    -0.196 NA
HETATM    2  C   UNK N   1      27.978  24.783  -4.349  0.00  0.00     0.104 C 
HETATM    3  C   UNK N   1      27.649  24.064  -3.086  0.00  0.00     0.079 C 
ENDROOT
BRANCH   2   4
HETATM    4  C   UNK N   1      29.530  24.976  -4.441  0.00  0.00     0.065 C 
BRANCH   4   5
HETATM    5  C   UNK N   1      30.184  24.257  -3.246  0.00  0.00     0.275 C 
BRANCH   5   6
HETATM    6  N   UNK N   1      31.259  23.310  -3.444  0.00  0.00     0.088 N 
HETATM    7  C   UNK N   1      30.619  21.985  -3.459  0.00  0.00     0.274 C 
HETATM    8  C   UNK N   1      31.397  20.954  -4.265  0.00  0.00     0.056 C 
HETATM    9  C   UNK N   1      31.500  21.450  -5.699  0.00  0.00     0.098 C 
HETATM   10  C   UNK N   1      32.355  22.700  -5.641  0.00  0.00     0.056 C 
HETATM   11  C   UNK N   1      31.660  23.748  -4.793  0.00  0.00     0.274 C 
BRANCH   9  12
HETATM   12  N   UNK N   1      32.072  20.404  -6.555  0.00  0.00    -0.292 N 
HETATM   13  C   UNK N   1      31.523  19.687  -7.565  0.00  0.00     0.066 A 
HETATM   14  C   UNK N   1      32.479  18.866  -8.112  0.00  0.00     0.074 A 
HETATM   15  C   UNK N   1      30.214  19.715  -8.052  0.00  0.00     0.032 A 
HETATM   16  N   UNK N   1      33.652  19.043  -7.456  0.00  0.00    -0.231 N 
HETATM   17  C   UNK N   1      32.193  18.028  -9.192  0.00  0.00     0.032 A 
HETATM   18  C   UNK N   1      33.364  19.970  -6.490  0.00  0.00     0.337 A 
HETATM   19  C   UNK N   1      34.876  18.458  -7.711  0.00  0.00     0.232 C 
HETATM   20  O   UNK N   1      34.173  20.391  -5.678  0.00  0.00    -0.246 OA
HETATM   21  O   UNK N   1      34.994  17.664  -8.634  0.00  0.00    -0.273 OA
HETATM   22  C   UNK N   1      30.881  18.037  -9.701  0.00  0.00     0.002 A 
HETATM   23  C   UNK N   1      29.895  18.874  -9.132  0.00  0.00     0.002 A 
BRANCH  19  24
HETATM   24  C   UNK N   1      36.081  18.825  -6.878  0.00  0.00     0.099 C 
HETATM   25  C   UNK N   1      37.178  19.524  -7.662  0.00  0.00     0.014 C 
ENDBRANCH  19  24
ENDBRANCH   9  12
ENDBRANCH   5   6
ENDBRANCH   4   5
ENDBRANCH   2   4
BRANCH   2  26
HETATM   26  C   UNK N   1      27.362  26.205  -4.363  0.00  0.00    -0.031 A 
HETATM   27  C   UNK N   1      26.407  26.629  -3.422  0.00  0.00     0.009 A 
HETATM   28  C   UNK N   1      25.790  27.877  -3.522  0.00  0.00     0.001 A 
HETATM   29  C   UNK N   1      26.099  28.721  -4.588  0.00  0.00     0.000 A 
HETATM   30  C   UNK N   1      27.049  28.328  -5.528  0.00  0.00     0.001 A 
HETATM   31  C   UNK N   1      27.681  27.087  -5.409  0.00  0.00     0.009 A 
ENDBRANCH   2  26
BRANCH   2  32
HETATM   32  C   UNK N   1      27.488  23.798  -5.436  0.00  0.00    -0.031 A 
HETATM   33  C   UNK N   1      26.104  23.668  -5.683  0.00  0.00     0.009 A 
HETATM   34  C   UNK N   1      25.633  22.867  -6.733  0.00  0.00     0.001 A 
HETATM   35  C   UNK N   1      26.534  22.198  -7.564  0.00  0.00     0.000 A 
HETATM   36  C   UNK N   1      27.904  22.313  -7.338  0.00  0.00     0.001 A 
HETATM   37  C   UNK N   1      28.368  23.104  -6.288  0.00  0.00     0.009 A 
ENDBRANCH   2  32
TORSDOF 7
ENDMDL
MODEL 7
REMARK VINA RESULT:      -8.1      1.748      3.395
REMARK  7 active torsions:
REMARK  status: ('A' for Active; 'I' for Inactive)
REMARK    1  A    between atoms: N_3  and  C_12 
REMARK    2  A    between atoms: N_4  and  C_7 
REMARK       I    between atoms: N_5  and  C_22 
REMARK    3  A    between atoms: C_12  and  C_13 
REMARK    4  A    between atoms: C_13  and  C_15 
REMARK    5  A    between atoms: C_15  and  C_18 
REMARK    6  A    between atoms: C_15  and  C_19 
REMARK    7  A    between atoms: C_22  and  C_30 
ROOT
HETATM    1  N   UNK N   1      27.994  17.405   9.513  0.00  0.00    -0.196 NA
HETATM    2  C   UNK N   1      28.958  17.452   7.048  0.00  0.00     0.104 C 
HETATM    3  C   UNK N   1      28.442  17.428   8.447  0.00  0.00     0.079 C 
ENDROOT
BRANCH   2   4
HETATM    4  C   UNK N   1      28.475  16.164   6.300  0.00  0.00     0.065 C 
BRANCH   4   5
HETATM    5  C   UNK N   1      27.022  15.870   6.720  0.00  0.00     0.275 C 
BRANCH   5   6
HETATM    6  N   UNK N   1      25.912  16.233   5.866  0.00  0.00     0.088 N 
HETATM    7  C   UNK N   1      26.435  16.169   4.492  0.00  0.00     0.274 C 
HETATM    8  C   UNK N   1      25.357  15.876   3.457  0.00  0.00     0.056 C 
HETATM    9  C   UNK N   1      24.727  14.533   3.791  0.00  0.00     0.098 C 
HETATM   10  C   UNK N   1      24.021  14.730   5.117  0.00  0.00     0.056 C 
HETATM   11  C   UNK N   1      25.038  15.090   6.183  0.00  0.00     0.274 C 
BRANCH   9  12
HETATM   12  N   UNK N   1      23.819  14.119   2.715  0.00  0.00    -0.292 N 
HETATM   13  C   UNK N   1      23.906  13.099   1.826  0.00  0.00     0.066 A 
HETATM   14  C   UNK N   1      22.772  13.076   1.050  0.00  0.00     0.074 A 
HETATM   15  C   UNK N   1      24.930  12.166   1.656  0.00  0.00     0.032 A 
HETATM   16  N   UNK N   1      21.948  14.083   1.428  0.00  0.00    -0.231 N 
HETATM   17  C   UNK N   1      22.583  12.109   0.061  0.00  0.00     0.032 A 
HETATM   18  C   UNK N   1      22.629  14.722   2.431  0.00  0.00     0.337 A 
HETATM   19  C   UNK N   1      20.690  14.391   0.948  0.00  0.00     0.232 C 
HETATM   20  O   UNK N   1      22.212  15.700   3.030  0.00  0.00    -0.246 OA
HETATM   21  O   UNK N   1      20.189  13.709   0.064  0.00  0.00    -0.273 OA
HETATM   22  C   UNK N   1      23.601  11.156  -0.130  0.00  0.00     0.002 A 
HETATM   23  C   UNK N   1      24.771  11.187   0.661  0.00  0.00     0.002 A 
BRANCH  19  24
HETATM   24  C   UNK N   1      19.913  15.543   1.539  0.00  0.00     0.099 C 
HETATM   25  C   UNK N   1      19.857  16.768   0.645  0.00  0.00     0.014 C 
ENDBRANCH  19  24
ENDBRANCH   9  12
ENDBRANCH   5   6
ENDBRANCH   4   5
ENDBRANCH   2   4
BRANCH   2  26
HETATM   26  C   UNK N   1      30.507  17.415   7.020  0.00  0.00    -0.031 A 
HETATM   27  C   UNK N   1      31.297  17.811   8.114  0.00  0.00     0.009 A 
HETATM   28  C   UNK N   1      32.688  17.871   8.024  0.00  0.00     0.001 A 
HETATM   29  C   UNK N   1      33.321  17.558   6.821  0.00  0.00     0.000 A 
HETATM   30  C   UNK N   1      32.561  17.153   5.726  0.00  0.00     0.001 A 
HETATM   31  C   UNK N   1      31.169  17.072   5.829  0.00  0.00     0.009 A 
ENDBRANCH   2  26
BRANCH   2  32
HETATM   32  C   UNK N   1      28.278  18.709   6.459  0.00  0.00    -0.031 A 
HETATM   33  C   UNK N   1      27.774  19.701   7.329  0.00  0.00     0.009 A 
HETATM   34  C   UNK N   1      27.251  20.900   6.827  0.00  0.00     0.001 A 
HETATM   35  C   UNK N   1      27.236  21.138   5.451  0.00  0.00     0.000 A 
HETATM   36  C   UNK N   1      27.727  20.173   4.574  0.00  0.00     0.001 A 
HETATM   37  C   UNK N   1      28.240  18.978   5.077  0.00  0.00     0.009 A 
ENDBRANCH   2  32
TORSDOF 7
ENDMDL
MODEL 8
REMARK VINA RESULT:      -7.8      4.149      9.858
REMARK  7 active torsions:
REMARK  status: ('A' for Active; 'I' for Inactive)
REMARK    1  A    between atoms: N_3  and  C_12 
REMARK    2  A    between atoms: N_4  and  C_7 
REMARK       I    between atoms: N_5  and  C_22 
REMARK    3  A    between atoms: C_12  and  C_13 
REMARK    4  A    between atoms: C_13  and  C_15 
REMARK    5  A    between atoms: C_15  and  C_18 
REMARK    6  A    between atoms: C_15  and  C_19 
REMARK    7  A    between atoms: C_22  and  C_30 
ROOT
HETATM    1  N   UNK N   1      20.096  14.213   6.574  0.00  0.00    -0.196 NA
HETATM    2  C   UNK N   1      21.959  12.357   6.876  0.00  0.00     0.104 C 
HETATM    3  C   UNK N   1      20.893  13.382   6.694  0.00  0.00     0.079 C 
ENDROOT
BRANCH   2   4
HETATM    4  C   UNK N   1      23.259  12.830   6.141  0.00  0.00     0.065 C 
BRANCH   4   5
HETATM    5  C   UNK N   1      23.135  14.339   5.852  0.00  0.00     0.275 C 
BRANCH   5   6
HETATM    6  N   UNK N   1      23.942  15.303   6.568  0.00  0.00     0.088 N 
HETATM    7  C   UNK N   1      24.979  14.516   7.253  0.00  0.00     0.274 C 
HETATM    8  C   UNK N   1      26.256  15.306   7.507  0.00  0.00     0.056 C 
HETATM    9  C   UNK N   1      26.810  15.760   6.166  0.00  0.00     0.098 C 
HETATM   10  C   UNK N   1      25.793  16.736   5.611  0.00  0.00     0.056 C 
HETATM   11  C   UNK N   1      24.473  16.022   5.396  0.00  0.00     0.274 C 
BRANCH   9  12
HETATM   12  N   UNK N   1      28.139  16.357   6.345  0.00  0.00    -0.292 N 
HETATM   13  C   UNK N   1      28.652  17.086   7.367  0.00  0.00     0.066 A 
HETATM   14  C   UNK N   1      29.971  17.368   7.106  0.00  0.00     0.074 A 
HETATM   15  C   UNK N   1      28.027  17.519   8.538  0.00  0.00     0.032 A 
HETATM   16  N   UNK N   1      30.319  16.828   5.912  0.00  0.00    -0.231 N 
HETATM   17  C   UNK N   1      30.757  18.090   8.006  0.00  0.00     0.032 A 
HETATM   18  C   UNK N   1      29.168  16.239   5.458  0.00  0.00     0.337 A 
HETATM   19  C   UNK N   1      31.554  16.830   5.295  0.00  0.00     0.232 C 
HETATM   20  O   UNK N   1      29.073  15.647   4.395  0.00  0.00    -0.246 OA
HETATM   21  O   UNK N   1      32.508  17.372   5.837  0.00  0.00    -0.273 OA
HETATM   22  C   UNK N   1      30.150  18.539   9.195  0.00  0.00     0.002 A 
HETATM   23  C   UNK N   1      28.791  18.258   9.457  0.00  0.00     0.002 A 
BRANCH  19  24
HETATM   24  C   UNK N   1      31.742  16.129   3.970  0.00  0.00     0.099 C 
HETATM   25  C   UNK N   1      32.874  16.695   3.133  0.00  0.00     0.014 C 
ENDBRANCH  19  24
ENDBRANCH   9  12
ENDBRANCH   5   6
ENDBRANCH   4   5
ENDBRANCH   2   4
BRANCH   2  26
HETATM   26  C   UNK N   1      21.559  11.009   6.225  0.00  0.00    -0.031 A 
HETATM   27  C   UNK N   1      22.452   9.929   6.102  0.00  0.00     0.009 A 
HETATM   28  C   UNK N   1      22.099   8.766   5.415  0.00  0.00     0.001 A 
HETATM   29  C   UNK N   1      20.845   8.669   4.812  0.00  0.00     0.000 A 
HETATM   30  C   UNK N   1      19.939   9.721   4.929  0.00  0.00     0.001 A 
HETATM   31  C   UNK N   1      20.290  10.874   5.638  0.00  0.00     0.009 A 
ENDBRANCH   2  26
BRANCH   2  32
HETATM   32  C   UNK N   1      22.172  12.358   8.408  0.00  0.00    -0.031 A 
HETATM   33  C   UNK N   1      21.127  12.791   9.255  0.00  0.00     0.009 A 
HETATM   34  C   UNK N   1      21.248  12.702  10.648  0.00  0.00     0.001 A 
HETATM   35  C   UNK N   1      22.404  12.164  11.220  0.00  0.00     0.000 A 
HETATM   36  C   UNK N   1      23.446  11.732  10.403  0.00  0.00     0.001 A 
HETATM   37  C   UNK N   1      23.325  11.829   9.017  0.00  0.00     0.009 A 
ENDBRANCH   2  32
TORSDOF 7
ENDMDL
MODEL 9
REMARK VINA RESULT:      -7.8      5.512     11.844
REMARK  7 active torsions:
REMARK  status: ('A' for Active; 'I' for Inactive)
REMARK    1  A    between atoms: N_3  and  C_12 
REMARK    2  A    between atoms: N_4  and  C_7 
REMARK       I    between atoms: N_5  and  C_22 
REMARK    3  A    between atoms: C_12  and  C_13 
REMARK    4  A    between atoms: C_13  and  C_15 
REMARK    5  A    between atoms: C_15  and  C_18 
REMARK    6  A    between atoms: C_15  and  C_19 
REMARK    7  A    between atoms: C_22  and  C_30 
ROOT
HETATM    1  N   UNK N   1      29.384  14.339   5.368  0.00  0.00    -0.196 NA
HETATM    2  C   UNK N   1      29.383  16.969   5.672  0.00  0.00     0.104 C 
HETATM    3  C   UNK N   1      29.381  15.485   5.530  0.00  0.00     0.079 C 
ENDROOT
BRANCH   2   4
HETATM    4  C   UNK N   1      30.696  17.544   5.040  0.00  0.00     0.065 C 
BRANCH   4   5
HETATM    5  C   UNK N   1      31.445  16.395   4.339  0.00  0.00     0.275 C 
BRANCH   5   6
HETATM    6  N   UNK N   1      32.861  16.190   4.553  0.00  0.00     0.088 N 
HETATM    7  C   UNK N   1      33.195  16.967   5.757  0.00  0.00     0.274 C 
HETATM    8  C   UNK N   1      34.394  16.411   6.513  0.00  0.00     0.056 C 
HETATM    9  C   UNK N   1      34.071  14.987   6.938  0.00  0.00     0.098 C 
HETATM   10  C   UNK N   1      33.954  14.192   5.653  0.00  0.00     0.056 C 
HETATM   11  C   UNK N   1      32.812  14.742   4.821  0.00  0.00     0.274 C 
BRANCH   9  12
HETATM   12  N   UNK N   1      35.117  14.478   7.833  0.00  0.00    -0.292 N 
HETATM   13  C   UNK N   1      36.404  14.133   7.585  0.00  0.00     0.066 A 
HETATM   14  C   UNK N   1      37.012  13.773   8.763  0.00  0.00     0.074 A 
HETATM   15  C   UNK N   1      37.093  14.121   6.371  0.00  0.00     0.032 A 
HETATM   16  N   UNK N   1      36.122  13.878   9.780  0.00  0.00    -0.231 N 
HETATM   17  C   UNK N   1      38.355  13.391   8.806  0.00  0.00     0.032 A 
HETATM   18  C   UNK N   1      34.962  14.286   9.175  0.00  0.00     0.337 A 
HETATM   19  C   UNK N   1      36.327  13.663  11.128  0.00  0.00     0.232 C 
HETATM   20  O   UNK N   1      33.913  14.487   9.765  0.00  0.00    -0.246 OA
HETATM   21  O   UNK N   1      37.432  13.330  11.533  0.00  0.00    -0.273 OA
HETATM   22  C   UNK N   1      39.072  13.371   7.595  0.00  0.00     0.002 A 
HETATM   23  C   UNK N   1      38.442  13.731   6.383  0.00  0.00     0.002 A 
BRANCH  19  24
HETATM   24  C   UNK N   1      35.201  13.877  12.111  0.00  0.00     0.099 C 
HETATM   25  C   UNK N   1      35.393  13.151  13.431  0.00  0.00     0.014 C 
ENDBRANCH  19  24
ENDBRANCH   9  12
ENDBRANCH   5   6
ENDBRANCH   4   5
ENDBRANCH   2   4
BRANCH   2  26
HETATM   26  C   UNK N   1      29.398  17.390   7.163  0.00  0.00    -0.031 A 
HETATM   27  C   UNK N   1      28.225  17.529   7.926  0.00  0.00     0.009 A 
HETATM   28  C   UNK N   1      28.260  18.014   9.234  0.00  0.00     0.001 A 
HETATM   29  C   UNK N   1      29.475  18.397   9.801  0.00  0.00     0.000 A 
HETATM   30  C   UNK N   1      30.653  18.260   9.069  0.00  0.00     0.001 A 
HETATM   31  C   UNK N   1      30.614  17.752   7.767  0.00  0.00     0.009 A 
ENDBRANCH   2  26
BRANCH   2  32
HETATM   32  C   UNK N   1      28.150  17.391   4.839  0.00  0.00    -0.031 A 
HETATM   33  C   UNK N   1      27.123  16.452   4.592  0.00  0.00     0.009 A 
HETATM   34  C   UNK N   1      25.946  16.832   3.935  0.00  0.00     0.001 A 
HETATM   35  C   UNK N   1      25.764  18.156   3.528  0.00  0.00     0.000 A 
HETATM   36  C   UNK N   1      26.763  19.097   3.761  0.00  0.00     0.001 A 
HETATM   37  C   UNK N   1      27.938  18.714   4.409  0.00  0.00     0.009 A 
ENDBRANCH   2  32
TORSDOF 7
ENDMDL
