MODEL 1
REMARK VINA RESULT:      -5.6      0.000      0.000
REMARK  5 active torsions:
REMARK  status: ('A' for Active; 'I' for Inactive)
REMARK    1  A    between atoms: N_1  and  C_3 
REMARK    2  A    between atoms: N_1  and  C_7 
REMARK    3  A    between atoms: N_1  and  C_8 
REMARK    4  A    between atoms: C_3  and  C_4 
REMARK    5  A    between atoms: C_4  and  C_5 
ROOT
HETATM    1  N   UNK N   1      27.810  19.058   8.453  0.00  0.00    -0.365 N 
HETATM    2  C   UNK N   1      28.884  17.645   7.072  0.00  0.00    -0.029 A 
HETATM    3  C   UNK N   1      28.350  18.659   6.322  0.00  0.00    -0.002 A 
HETATM    4  C   UNK N   1      27.708  19.498   7.186  0.00  0.00     0.042 A 
HETATM    5  C   UNK N   1      28.537  17.910   8.396  0.00  0.00     0.096 A 
HETATM    6  C   UNK N   1      28.388  18.896   4.950  0.00  0.00     0.014 A 
HETATM    7  C   UNK N   1      27.056  20.646   6.742  0.00  0.00     0.030 A 
HETATM    8  C   UNK N   1      27.736  20.045   4.468  0.00  0.00     0.001 A 
HETATM    9  C   UNK N   1      27.074  20.918   5.361  0.00  0.00     0.002 A 
HETATM   10  H   UNK N   1      27.435  19.482   9.258  0.00  0.00     0.165 HD
ENDROOT
BRANCH   2  11
HETATM   11  C   UNK N   1      29.702  16.517   6.529  0.00  0.00     0.071 C 
BRANCH  11  12
HETATM   12  C   UNK N   1      31.036  16.311   7.241  0.00  0.00     0.277 C 
BRANCH  12  13
HETATM   13  N   UNK N   1      31.934  17.431   6.966  0.00  0.00     0.088 N 
BRANCH  13  14
HETATM   14  C   UNK N   1      32.984  16.976   6.059  0.00  0.00     0.268 C 
HETATM   15  C   UNK N   1      32.736  17.530   4.668  0.00  0.00     0.037 C 
ENDBRANCH  13  14
BRANCH  13  16
HETATM   16  C   UNK N   1      32.563  17.795   8.230  0.00  0.00     0.268 C 
HETATM   17  C   UNK N   1      33.985  18.287   8.005  0.00  0.00     0.037 C 
ENDBRANCH  13  16
ENDBRANCH  12  13
ENDBRANCH  11  12
ENDBRANCH   2  11
TORSDOF 5
ENDMDL
MODEL 2
REMARK VINA RESULT:      -5.3      8.452     10.944
REMARK  5 active torsions:
REMARK  status: ('A' for Active; 'I' for Inactive)
REMARK    1  A    between atoms: N_1  and  C_3 
REMARK    2  A    between atoms: N_1  and  C_7 
REMARK    3  A    between atoms: N_1  and  C_8 
REMARK    4  A    between atoms: C_3  and  C_4 
REMARK    5  A    between atoms: C_4  and  C_5 
ROOT
HETATM    1  N   UNK N   1      21.178  12.073  11.576  0.00  0.00    -0.365 N 
HETATM    2  C   UNK N   1      21.065  13.414   9.775  0.00  0.00    -0.029 A 
HETATM    3  C   UNK N   1      22.380  13.107  10.002  0.00  0.00    -0.002 A 
HETATM    4  C   UNK N   1      22.415  12.293  11.097  0.00  0.00     0.042 A 
HETATM    5  C   UNK N   1      20.331  12.762  10.765  0.00  0.00     0.096 A 
HETATM    6  C   UNK N   1      23.535  13.486   9.322  0.00  0.00     0.014 A 
HETATM    7  C   UNK N   1      23.615  11.790  11.596  0.00  0.00     0.030 A 
HETATM    8  C   UNK N   1      24.764  12.999   9.803  0.00  0.00     0.001 A 
HETATM    9  C   UNK N   1      24.804  12.152  10.934  0.00  0.00     0.002 A 
HETATM   10  H   UNK N   1      20.935  11.523  12.356  0.00  0.00     0.165 HD
ENDROOT
BRANCH   2  11
HETATM   11  C   UNK N   1      20.565  14.260   8.647  0.00  0.00     0.071 C 
BRANCH  11  12
HETATM   12  C   UNK N   1      20.612  15.761   8.920  0.00  0.00     0.277 C 
BRANCH  12  13
HETATM   13  N   UNK N   1      20.015  16.496   7.806  0.00  0.00     0.088 N 
BRANCH  13  14
HETATM   14  C   UNK N   1      21.085  16.962   6.928  0.00  0.00     0.268 C 
HETATM   15  C   UNK N   1      20.626  16.900   5.483  0.00  0.00     0.037 C 
ENDBRANCH  13  14
BRANCH  13  16
HETATM   16  C   UNK N   1      19.359  17.668   8.372  0.00  0.00     0.268 C 
HETATM   17  C   UNK N   1      18.114  17.269   9.150  0.00  0.00     0.037 C 
ENDBRANCH  13  16
ENDBRANCH  12  13
ENDBRANCH  11  12
ENDBRANCH   2  11
TORSDOF 5
ENDMDL
MODEL 3
REMARK VINA RESULT:      -5.3     10.897     13.602
REMARK  5 active torsions:
REMARK  status: ('A' for Active; 'I' for Inactive)
REMARK    1  A    between atoms: N_1  and  C_3 
REMARK    2  A    between atoms: N_1  and  C_7 
REMARK    3  A    between atoms: N_1  and  C_8 
REMARK    4  A    between atoms: C_3  and  C_4 
REMARK    5  A    between atoms: C_4  and  C_5 
ROOT
HETATM    1  N   UNK N   1      35.269  13.514  19.307  0.00  0.00    -0.365 N 
HETATM    2  C   UNK N   1      35.280  13.153  17.088  0.00  0.00    -0.029 A 
HETATM    3  C   UNK N   1      35.228  11.940  17.722  0.00  0.00    -0.002 A 
HETATM    4  C   UNK N   1      35.221  12.192  19.063  0.00  0.00     0.042 A 
HETATM    5  C   UNK N   1      35.305  14.122  18.091  0.00  0.00     0.096 A 
HETATM    6  C   UNK N   1      35.186  10.645  17.211  0.00  0.00     0.014 A 
HETATM    7  C   UNK N   1      35.167  11.163  20.001  0.00  0.00     0.030 A 
HETATM    8  C   UNK N   1      35.134   9.582  18.131  0.00  0.00     0.001 A 
HETATM    9  C   UNK N   1      35.123   9.840  19.520  0.00  0.00     0.002 A 
HETATM   10  H   UNK N   1      35.275  13.953  20.188  0.00  0.00     0.165 HD
ENDROOT
BRANCH   2  11
HETATM   11  C   UNK N   1      35.272  13.346  15.605  0.00  0.00     0.071 C 
BRANCH  11  12
HETATM   12  C   UNK N   1      36.638  13.669  15.006  0.00  0.00     0.277 C 
BRANCH  12  13
HETATM   13  N   UNK N   1      36.705  13.207  13.621  0.00  0.00     0.088 N 
BRANCH  13  14
HETATM   14  C   UNK N   1      35.493  13.636  12.927  0.00  0.00     0.268 C 
HETATM   15  C   UNK N   1      35.784  14.884  12.113  0.00  0.00     0.037 C 
ENDBRANCH  13  14
BRANCH  13  16
HETATM   16  C   UNK N   1      36.706  11.750  13.657  0.00  0.00     0.268 C 
HETATM   17  C   UNK N   1      37.975  11.226  14.314  0.00  0.00     0.037 C 
ENDBRANCH  13  16
ENDBRANCH  12  13
ENDBRANCH  11  12
ENDBRANCH   2  11
TORSDOF 5
ENDMDL
MODEL 4
REMARK VINA RESULT:      -5.2     10.963     13.035
REMARK  5 active torsions:
REMARK  status: ('A' for Active; 'I' for Inactive)
REMARK    1  A    between atoms: N_1  and  C_3 
REMARK    2  A    between atoms: N_1  and  C_7 
REMARK    3  A    between atoms: N_1  and  C_8 
REMARK    4  A    between atoms: C_3  and  C_4 
REMARK    5  A    between atoms: C_4  and  C_5 
ROOT
HETATM    1  N   UNK N   1      25.452  24.664  -5.972  0.00  0.00    -0.365 N 
HETATM    2  C   UNK N   1      26.692  24.423  -4.113  0.00  0.00    -0.029 A 
HETATM    3  C   UNK N   1      26.247  25.718  -4.170  0.00  0.00    -0.002 A 
HETATM    4  C   UNK N   1      25.499  25.831  -5.305  0.00  0.00     0.042 A 
HETATM    5  C   UNK N   1      26.188  23.783  -5.244  0.00  0.00     0.096 A 
HETATM    6  C   UNK N   1      26.449  26.790  -3.304  0.00  0.00     0.014 A 
HETATM    7  C   UNK N   1      24.888  27.032  -5.662  0.00  0.00     0.030 A 
HETATM    8  C   UNK N   1      25.849  28.018  -3.637  0.00  0.00     0.001 A 
HETATM    9  C   UNK N   1      25.070  28.138  -4.810  0.00  0.00     0.002 A 
HETATM   10  H   UNK N   1      24.980  24.485  -6.818  0.00  0.00     0.165 HD
ENDROOT
BRANCH   2  11
HETATM   11  C   UNK N   1      27.525  23.852  -3.009  0.00  0.00     0.071 C 
BRANCH  11  12
HETATM   12  C   UNK N   1      28.812  23.180  -3.479  0.00  0.00     0.277 C 
BRANCH  12  13
HETATM   13  N   UNK N   1      29.975  23.926  -3.000  0.00  0.00     0.088 N 
BRANCH  13  14
HETATM   14  C   UNK N   1      30.451  24.790  -4.077  0.00  0.00     0.268 C 
HETATM   15  C   UNK N   1      30.829  26.148  -3.515  0.00  0.00     0.037 C 
ENDBRANCH  13  14
BRANCH  13  16
HETATM   16  C   UNK N   1      31.020  22.950  -2.716  0.00  0.00     0.268 C 
HETATM   17  C   UNK N   1      30.806  21.678  -3.523  0.00  0.00     0.037 C 
ENDBRANCH  13  16
ENDBRANCH  12  13
ENDBRANCH  11  12
ENDBRANCH   2  11
TORSDOF 5
ENDMDL
MODEL 5
REMARK VINA RESULT:      -5.1      1.558      5.281
REMARK  5 active torsions:
REMARK  status: ('A' for Active; 'I' for Inactive)
REMARK    1  A    between atoms: N_1  and  C_3 
REMARK    2  A    between atoms: N_1  and  C_7 
REMARK    3  A    between atoms: N_1  and  C_8 
REMARK    4  A    between atoms: C_3  and  C_4 
REMARK    5  A    between atoms: C_4  and  C_5 
ROOT
HETATM    1  N   UNK N   1      31.257  17.739   9.185  0.00  0.00    -0.365 N 
HETATM    2  C   UNK N   1      29.896  17.324   7.445  0.00  0.00    -0.029 A 
HETATM    3  C   UNK N   1      31.186  17.366   6.984  0.00  0.00    -0.002 A 
HETATM    4  C   UNK N   1      31.985  17.617   8.061  0.00  0.00     0.042 A 
HETATM    5  C   UNK N   1      29.961  17.559   8.818  0.00  0.00     0.096 A 
HETATM    6  C   UNK N   1      31.701  17.199   5.701  0.00  0.00     0.014 A 
HETATM    7  C   UNK N   1      33.369  17.718   7.937  0.00  0.00     0.030 A 
HETATM    8  C   UNK N   1      33.095  17.299   5.540  0.00  0.00     0.001 A 
HETATM    9  C   UNK N   1      33.926  17.556   6.654  0.00  0.00     0.002 A 
HETATM   10  H   UNK N   1      31.596  17.921  10.092  0.00  0.00     0.165 HD
ENDROOT
BRANCH   2  11
HETATM   11  C   UNK N   1      28.694  17.040   6.601  0.00  0.00     0.071 C 
BRANCH  11  12
HETATM   12  C   UNK N   1      27.878  18.276   6.236  0.00  0.00     0.277 C 
BRANCH  12  13
HETATM   13  N   UNK N   1      28.288  18.784   4.928  0.00  0.00     0.088 N 
BRANCH  13  14
HETATM   14  C   UNK N   1      27.670  20.091   4.721  0.00  0.00     0.268 C 
HETATM   15  C   UNK N   1      27.554  20.820   6.048  0.00  0.00     0.037 C 
ENDBRANCH  13  14
BRANCH  13  16
HETATM   16  C   UNK N   1      27.748  17.871   3.928  0.00  0.00     0.268 C 
HETATM   17  C   UNK N   1      26.242  18.042   3.797  0.00  0.00     0.037 C 
ENDBRANCH  13  16
ENDBRANCH  12  13
ENDBRANCH  11  12
ENDBRANCH   2  11
TORSDOF 5
ENDMDL
MODEL 6
REMARK VINA RESULT:      -5.0      8.084     10.736
REMARK  5 active torsions:
REMARK  status: ('A' for Active; 'I' for Inactive)
REMARK    1  A    between atoms: N_1  and  C_3 
REMARK    2  A    between atoms: N_1  and  C_7 
REMARK    3  A    between atoms: N_1  and  C_8 
REMARK    4  A    between atoms: C_3  and  C_4 
REMARK    5  A    between atoms: C_4  and  C_5 
ROOT
HETATM    1  N   UNK N   1      24.590  13.335   8.627  0.00  0.00    -0.365 N 
HETATM    2  C   UNK N   1      22.362  13.629   8.567  0.00  0.00    -0.029 A 
HETATM    3  C   UNK N   1      22.684  13.008   9.744  0.00  0.00    -0.002 A 
HETATM    4  C   UNK N   1      24.039  12.845   9.751  0.00  0.00     0.042 A 
HETATM    5  C   UNK N   1      23.562  13.824   7.883  0.00  0.00     0.096 A 
HETATM    6  C   UNK N   1      21.881  12.582  10.799  0.00  0.00     0.014 A 
HETATM    7  C   UNK N   1      24.698  12.244  10.822  0.00  0.00     0.030 A 
HETATM    8  C   UNK N   1      22.514  11.967  11.894  0.00  0.00     0.001 A 
HETATM    9  C   UNK N   1      23.918  11.800  11.906  0.00  0.00     0.002 A 
HETATM   10  H   UNK N   1      25.546  13.339   8.390  0.00  0.00     0.165 HD
ENDROOT
BRANCH   2  11
HETATM   11  C   UNK N   1      20.980  14.030   8.159  0.00  0.00     0.071 C 
BRANCH  11  12
HETATM   12  C   UNK N   1      20.461  15.285   8.855  0.00  0.00     0.277 C 
BRANCH  12  13
HETATM   13  N   UNK N   1      19.757  16.138   7.899  0.00  0.00     0.088 N 
BRANCH  13  14
HETATM   14  C   UNK N   1      20.623  16.355   6.743  0.00  0.00     0.268 C 
HETATM   15  C   UNK N   1      21.087  17.800   6.714  0.00  0.00     0.037 C 
ENDBRANCH  13  14
BRANCH  13  16
HETATM   16  C   UNK N   1      19.551  17.427   8.549  0.00  0.00     0.268 C 
HETATM   17  C   UNK N   1      18.203  17.467   9.254  0.00  0.00     0.037 C 
ENDBRANCH  13  16
ENDBRANCH  12  13
ENDBRANCH  11  12
ENDBRANCH   2  11
TORSDOF 5
ENDMDL
MODEL 7
REMARK VINA RESULT:      -5.0     10.770     13.013
REMARK  5 active torsions:
REMARK  status: ('A' for Active; 'I' for Inactive)
REMARK    1  A    between atoms: N_1  and  C_3 
REMARK    2  A    between atoms: N_1  and  C_7 
REMARK    3  A    between atoms: N_1  and  C_8 
REMARK    4  A    between atoms: C_3  and  C_4 
REMARK    5  A    between atoms: C_4  and  C_5 
ROOT
HETATM    1  N   UNK N   1      35.288   9.595  17.034  0.00  0.00    -0.365 N 
HETATM    2  C   UNK N   1      34.635  10.893  15.319  0.00  0.00    -0.029 A 
HETATM    3  C   UNK N   1      34.839  11.693  16.412  0.00  0.00    -0.002 A 
HETATM    4  C   UNK N   1      35.234  10.878  17.433  0.00  0.00     0.042 A 
HETATM    5  C   UNK N   1      34.919   9.590  15.725  0.00  0.00     0.096 A 
HETATM    6  C   UNK N   1      34.705  13.070  16.573  0.00  0.00     0.014 A 
HETATM    7  C   UNK N   1      35.531  11.381  18.698  0.00  0.00     0.030 A 
HETATM    8  C   UNK N   1      34.993  13.610  17.839  0.00  0.00     0.001 A 
HETATM    9  C   UNK N   1      35.407  12.770  18.897  0.00  0.00     0.002 A 
HETATM   10  H   UNK N   1      35.543   8.816  17.580  0.00  0.00     0.165 HD
ENDROOT
BRANCH   2  11
HETATM   11  C   UNK N   1      34.224  11.381  13.966  0.00  0.00     0.071 C 
BRANCH  11  12
HETATM   12  C   UNK N   1      35.337  11.347  12.922  0.00  0.00     0.277 C 
BRANCH  12  13
HETATM   13  N   UNK N   1      36.512  12.064  13.414  0.00  0.00     0.088 N 
BRANCH  13  14
HETATM   14  C   UNK N   1      36.662  13.298  12.646  0.00  0.00     0.268 C 
HETATM   15  C   UNK N   1      36.295  14.489  13.514  0.00  0.00     0.037 C 
ENDBRANCH  13  14
BRANCH  13  16
HETATM   16  C   UNK N   1      37.671  11.224  13.138  0.00  0.00     0.268 C 
HETATM   17  C   UNK N   1      38.278  10.698  14.431  0.00  0.00     0.037 C 
ENDBRANCH  13  16
ENDBRANCH  12  13
ENDBRANCH  11  12
ENDBRANCH   2  11
TORSDOF 5
ENDMDL
MODEL 8
REMARK VINA RESULT:      -5.0     11.945     13.615
REMARK  5 active torsions:
REMARK  status: ('A' for Active; 'I' for Inactive)
REMARK    1  A    between atoms: N_1  and  C_3 
REMARK    2  A    between atoms: N_1  and  C_7 
REMARK    3  A    between atoms: N_1  and  C_8 
REMARK    4  A    between atoms: C_3  and  C_4 
REMARK    5  A    between atoms: C_4  and  C_5 
ROOT
HETATM    1  N   UNK N   1      37.096  13.653  14.350  0.00  0.00    -0.365 N 
HETATM    2  C   UNK N   1      35.571  12.254  15.229  0.00  0.00    -0.029 A 
HETATM    3  C   UNK N   1      35.791  13.268  16.122  0.00  0.00    -0.002 A 
HETATM    4  C   UNK N   1      36.717  14.099  15.561  0.00  0.00     0.042 A 
HETATM    5  C   UNK N   1      36.392  12.509  14.131  0.00  0.00     0.096 A 
HETATM    6  C   UNK N   1      35.242  13.512  17.378  0.00  0.00     0.014 A 
HETATM    7  C   UNK N   1      37.164  15.245  16.215  0.00  0.00     0.030 A 
HETATM    8  C   UNK N   1      35.674  14.660  18.068  0.00  0.00     0.001 A 
HETATM    9  C   UNK N   1      36.630  15.524  17.487  0.00  0.00     0.002 A 
HETATM   10  H   UNK N   1      37.750  14.070  13.743  0.00  0.00     0.165 HD
ENDROOT
BRANCH   2  11
HETATM   11  C   UNK N   1      34.599  11.134  15.426  0.00  0.00     0.071 C 
BRANCH  11  12
HETATM   12  C   UNK N   1      35.191   9.744  15.208  0.00  0.00     0.277 C 
BRANCH  12  13
HETATM   13  N   UNK N   1      35.445   9.096  16.493  0.00  0.00     0.088 N 
BRANCH  13  14
HETATM   14  C   UNK N   1      34.648   9.764  17.519  0.00  0.00     0.268 C 
HETATM   15  C   UNK N   1      35.505  10.025  18.744  0.00  0.00     0.037 C 
ENDBRANCH  13  14
BRANCH  13  16
HETATM   16  C   UNK N   1      36.851   9.312  16.810  0.00  0.00     0.268 C 
HETATM   17  C   UNK N   1      37.713   9.175  15.563  0.00  0.00     0.037 C 
ENDBRANCH  13  16
ENDBRANCH  12  13
ENDBRANCH  11  12
ENDBRANCH   2  11
TORSDOF 5
ENDMDL
MODEL 9
REMARK VINA RESULT:      -4.9     11.009     13.526
REMARK  5 active torsions:
REMARK  status: ('A' for Active; 'I' for Inactive)
REMARK    1  A    between atoms: N_1  and  C_3 
REMARK    2  A    between atoms: N_1  and  C_7 
REMARK    3  A    between atoms: N_1  and  C_8 
REMARK    4  A    between atoms: C_3  and  C_4 
REMARK    5  A    between atoms: C_4  and  C_5 
ROOT
HETATM    1  N   UNK N   1      35.190   9.798  18.679  0.00  0.00    -0.365 N 
HETATM    2  C   UNK N   1      34.919  10.136  16.473  0.00  0.00    -0.029 A 
HETATM    3  C   UNK N   1      35.017  11.356  17.087  0.00  0.00    -0.002 A 
HETATM    4  C   UNK N   1      35.182  11.117  18.421  0.00  0.00     0.042 A 
HETATM    5  C   UNK N   1      35.028   9.177  17.479  0.00  0.00     0.096 A 
HETATM    6  C   UNK N   1      34.975  12.646  16.564  0.00  0.00     0.014 A 
HETATM    7  C   UNK N   1      35.321  12.157  19.338  0.00  0.00     0.030 A 
HETATM    8  C   UNK N   1      35.109  13.719  17.464  0.00  0.00     0.001 A 
HETATM    9  C   UNK N   1      35.283  13.475  18.845  0.00  0.00     0.002 A 
HETATM   10  H   UNK N   1      35.292   9.367  19.559  0.00  0.00     0.165 HD
ENDROOT
BRANCH   2  11
HETATM   11  C   UNK N   1      34.762   9.928  15.000  0.00  0.00     0.071 C 
BRANCH  11  12
HETATM   12  C   UNK N   1      36.078   9.746  14.249  0.00  0.00     0.277 C 
BRANCH  12  13
HETATM   13  N   UNK N   1      36.174  10.712  13.155  0.00  0.00     0.088 N 
BRANCH  13  14
HETATM   14  C   UNK N   1      37.153  11.733  13.520  0.00  0.00     0.268 C 
HETATM   15  C   UNK N   1      38.185  11.140  14.462  0.00  0.00     0.037 C 
ENDBRANCH  13  14
BRANCH  13  16
HETATM   16  C   UNK N   1      34.873  11.360  13.043  0.00  0.00     0.268 C 
HETATM   17  C   UNK N   1      35.032  12.849  12.776  0.00  0.00     0.037 C 
ENDBRANCH  13  16
ENDBRANCH  12  13
ENDBRANCH  11  12
ENDBRANCH   2  11
TORSDOF 5
ENDMDL
