MODEL 1
REMARK VINA RESULT:      -5.8      0.000      0.000
REMARK  9 active torsions:
REMARK  status: ('A' for Active; 'I' for Inactive)
REMARK    1  A    between atoms: O_1  and  C_5 
REMARK    2  A    between atoms: O_1  and  C_13 
REMARK    3  A    between atoms: O_2  and  C_8 
REMARK    4  A    between atoms: O_2  and  C_14 
REMARK    5  A    between atoms: N_4  and  C_15 
REMARK    6  A    between atoms: C_5  and  C_6 
REMARK    7  A    between atoms: C_5  and  C_7 
REMARK    8  A    between atoms: C_5  and  C_8 
REMARK    9  A    between atoms: C_14  and  C_15 
ROOT
HETATM    1  C   UNK N   1      36.105  12.240  15.462  0.00  0.00     0.203 C 
ENDROOT
BRANCH   1   2
HETATM    2  O   UNK N   1      37.175  13.164  15.273  0.00  0.00    -0.361 OA
BRANCH   2   3
HETATM    3  C   UNK N   1      36.716  14.464  14.995  0.00  0.00     0.166 C 
HETATM    4  C   UNK N   1      37.412  15.442  15.921  0.00  0.00     0.033 C 
ENDBRANCH   2   3
ENDBRANCH   1   2
BRANCH   1   5
HETATM    5  C   UNK N   1      35.737  12.090  16.961  0.00  0.00    -0.009 A 
HETATM    6  C   UNK N   1      35.310  13.199  17.721  0.00  0.00     0.011 A 
HETATM    7  C   UNK N   1      35.082  13.090  19.093  0.00  0.00     0.001 A 
HETATM    8  C   UNK N   1      35.312  11.877  19.741  0.00  0.00     0.000 A 
HETATM    9  C   UNK N   1      35.744  10.767  19.009  0.00  0.00     0.001 A 
HETATM   10  C   UNK N   1      35.947  10.868  17.627  0.00  0.00     0.011 A 
ENDBRANCH   1   5
BRANCH   1  11
HETATM   11  C   UNK N   1      36.567  10.930  14.832  0.00  0.00    -0.009 A 
HETATM   12  C   UNK N   1      37.923  10.794  14.473  0.00  0.00     0.011 A 
HETATM   13  C   UNK N   1      38.385   9.635  13.847  0.00  0.00     0.001 A 
HETATM   14  C   UNK N   1      37.498   8.597  13.562  0.00  0.00     0.000 A 
HETATM   15  C   UNK N   1      36.149   8.715  13.913  0.00  0.00     0.001 A 
HETATM   16  C   UNK N   1      35.683   9.875  14.545  0.00  0.00     0.011 A 
ENDBRANCH   1  11
BRANCH   1  17
HETATM   17  C   UNK N   1      34.866  12.637  14.665  0.00  0.00     0.303 C 
HETATM   18  O   UNK N   1      33.740  12.441  15.106  0.00  0.00    -0.261 OA
BRANCH  17  19
HETATM   19  O   UNK N   1      35.041  13.227  13.458  0.00  0.00    -0.317 OA
BRANCH  19  20
HETATM   20  C   UNK N   1      34.859  12.599  12.252  0.00  0.00     0.209 C 
BRANCH  20  21
HETATM   21  C   UNK N   1      35.697  13.308  11.190  0.00  0.00     0.298 C 
BRANCH  21  22
HETATM   22  N   UNK N   1      36.681  12.404  10.598  0.00  0.00     0.082 N 
HETATM   23  C   UNK N   1      37.960  12.685  11.222  0.00  0.00     0.309 C 
HETATM   24  C   UNK N   1      36.330  11.036  10.948  0.00  0.00     0.309 C 
ENDBRANCH  21  22
ENDBRANCH  20  21
ENDBRANCH  19  20
ENDBRANCH  17  19
ENDBRANCH   1  17
TORSDOF 9
ENDMDL
MODEL 2
REMARK VINA RESULT:      -5.8      5.985     10.041
REMARK  9 active torsions:
REMARK  status: ('A' for Active; 'I' for Inactive)
REMARK    1  A    between atoms: O_1  and  C_5 
REMARK    2  A    between atoms: O_1  and  C_13 
REMARK    3  A    between atoms: O_2  and  C_8 
REMARK    4  A    between atoms: O_2  and  C_14 
REMARK    5  A    between atoms: N_4  and  C_15 
REMARK    6  A    between atoms: C_5  and  C_6 
REMARK    7  A    between atoms: C_5  and  C_7 
REMARK    8  A    between atoms: C_5  and  C_8 
REMARK    9  A    between atoms: C_14  and  C_15 
ROOT
HETATM    1  C   UNK N   1      33.536  17.196   7.337  0.00  0.00     0.203 C 
ENDROOT
BRANCH   1   2
HETATM    2  O   UNK N   1      33.740  17.840   6.081  0.00  0.00    -0.361 OA
BRANCH   2   3
HETATM    3  C   UNK N   1      33.505  16.980   4.994  0.00  0.00     0.166 C 
HETATM    4  C   UNK N   1      32.650  17.700   3.970  0.00  0.00     0.033 C 
ENDBRANCH   2   3
ENDBRANCH   1   2
BRANCH   1   5
HETATM    5  C   UNK N   1      33.892  15.688   7.270  0.00  0.00    -0.009 A 
HETATM    6  C   UNK N   1      33.001  14.706   7.753  0.00  0.00     0.011 A 
HETATM    7  C   UNK N   1      33.362  13.360   7.792  0.00  0.00     0.001 A 
HETATM    8  C   UNK N   1      34.637  12.970   7.384  0.00  0.00     0.000 A 
HETATM    9  C   UNK N   1      35.539  13.927   6.911  0.00  0.00     0.001 A 
HETATM   10  C   UNK N   1      35.169  15.276   6.845  0.00  0.00     0.011 A 
ENDBRANCH   1   5
BRANCH   1  11
HETATM   11  C   UNK N   1      32.077  17.444   7.705  0.00  0.00    -0.009 A 
HETATM   12  C   UNK N   1      31.073  16.794   6.959  0.00  0.00     0.011 A 
HETATM   13  C   UNK N   1      29.722  17.027   7.222  0.00  0.00     0.001 A 
HETATM   14  C   UNK N   1      29.353  17.919   8.229  0.00  0.00     0.000 A 
HETATM   15  C   UNK N   1      30.337  18.571   8.980  0.00  0.00     0.001 A 
HETATM   16  C   UNK N   1      31.694  18.336   8.721  0.00  0.00     0.011 A 
ENDBRANCH   1  11
BRANCH   1  17
HETATM   17  C   UNK N   1      34.335  17.864   8.453  0.00  0.00     0.303 C 
HETATM   18  O   UNK N   1      34.913  18.929   8.266  0.00  0.00    -0.261 OA
BRANCH  17  19
HETATM   19  O   UNK N   1      34.380  17.257   9.662  0.00  0.00    -0.317 OA
BRANCH  19  20
HETATM   20  C   UNK N   1      35.520  17.093  10.408  0.00  0.00     0.209 C 
BRANCH  20  21
HETATM   21  C   UNK N   1      35.371  15.846  11.278  0.00  0.00     0.298 C 
BRANCH  21  22
HETATM   22  N   UNK N   1      35.499  14.626  10.483  0.00  0.00     0.082 N 
HETATM   23  C   UNK N   1      36.915  14.349  10.338  0.00  0.00     0.309 C 
HETATM   24  C   UNK N   1      34.923  13.518  11.228  0.00  0.00     0.309 C 
ENDBRANCH  21  22
ENDBRANCH  20  21
ENDBRANCH  19  20
ENDBRANCH  17  19
ENDBRANCH   1  17
TORSDOF 9
ENDMDL
MODEL 3
REMARK VINA RESULT:      -5.8      2.091      5.019
REMARK  9 active torsions:
REMARK  status: ('A' for Active; 'I' for Inactive)
REMARK    1  A    between atoms: O_1  and  C_5 
REMARK    2  A    between atoms: O_1  and  C_13 
REMARK    3  A    between atoms: O_2  and  C_8 
REMARK    4  A    between atoms: O_2  and  C_14 
REMARK    5  A    between atoms: N_4  and  C_15 
REMARK    6  A    between atoms: C_5  and  C_6 
REMARK    7  A    between atoms: C_5  and  C_7 
REMARK    8  A    between atoms: C_5  and  C_8 
REMARK    9  A    between atoms: C_14  and  C_15 
ROOT
HETATM    1  C   UNK N   1      35.720  12.828  14.013  0.00  0.00     0.203 C 
ENDROOT
BRANCH   1   2
HETATM    2  O   UNK N   1      34.347  12.481  14.176  0.00  0.00    -0.361 OA
BRANCH   2   3
HETATM    3  C   UNK N   1      34.102  11.123  13.902  0.00  0.00     0.166 C 
HETATM    4  C   UNK N   1      33.838  10.396  15.206  0.00  0.00     0.033 C 
ENDBRANCH   2   3
ENDBRANCH   1   2
BRANCH   1   5
HETATM    5  C   UNK N   1      36.613  11.570  13.853  0.00  0.00    -0.009 A 
HETATM    6  C   UNK N   1      37.493  11.166  14.879  0.00  0.00     0.011 A 
HETATM    7  C   UNK N   1      38.373  10.099  14.697  0.00  0.00     0.001 A 
HETATM    8  C   UNK N   1      38.419   9.438  13.470  0.00  0.00     0.000 A 
HETATM    9  C   UNK N   1      37.563   9.828  12.436  0.00  0.00     0.001 A 
HETATM   10  C   UNK N   1      36.659  10.881  12.627  0.00  0.00     0.011 A 
ENDBRANCH   1   5
BRANCH   1  11
HETATM   11  C   UNK N   1      36.089  13.665  15.234  0.00  0.00    -0.009 A 
HETATM   12  C   UNK N   1      35.391  13.445  16.438  0.00  0.00     0.011 A 
HETATM   13  C   UNK N   1      35.656  14.219  17.570  0.00  0.00     0.001 A 
HETATM   14  C   UNK N   1      36.616  15.229  17.513  0.00  0.00     0.000 A 
HETATM   15  C   UNK N   1      37.319  15.459  16.325  0.00  0.00     0.001 A 
HETATM   16  C   UNK N   1      37.059  14.681  15.189  0.00  0.00     0.011 A 
ENDBRANCH   1  11
BRANCH   1  17
HETATM   17  C   UNK N   1      35.931  13.763  12.825  0.00  0.00     0.303 C 
HETATM   18  O   UNK N   1      36.974  13.745  12.182  0.00  0.00    -0.261 OA
BRANCH  17  19
HETATM   19  O   UNK N   1      34.927  14.609  12.489  0.00  0.00    -0.317 OA
BRANCH  19  20
HETATM   20  C   UNK N   1      34.561  14.907  11.200  0.00  0.00     0.209 C 
BRANCH  20  21
HETATM   21  C   UNK N   1      35.053  16.312  10.855  0.00  0.00     0.298 C 
BRANCH  21  22
HETATM   22  N   UNK N   1      35.142  16.503   9.409  0.00  0.00     0.082 N 
HETATM   23  C   UNK N   1      35.122  15.188   8.795  0.00  0.00     0.309 C 
HETATM   24  C   UNK N   1      33.950  17.201   8.954  0.00  0.00     0.309 C 
ENDBRANCH  21  22
ENDBRANCH  20  21
ENDBRANCH  19  20
ENDBRANCH  17  19
ENDBRANCH   1  17
TORSDOF 9
ENDMDL
MODEL 4
REMARK VINA RESULT:      -5.7      6.666     10.409
REMARK  9 active torsions:
REMARK  status: ('A' for Active; 'I' for Inactive)
REMARK    1  A    between atoms: O_1  and  C_5 
REMARK    2  A    between atoms: O_1  and  C_13 
REMARK    3  A    between atoms: O_2  and  C_8 
REMARK    4  A    between atoms: O_2  and  C_14 
REMARK    5  A    between atoms: N_4  and  C_15 
REMARK    6  A    between atoms: C_5  and  C_6 
REMARK    7  A    between atoms: C_5  and  C_7 
REMARK    8  A    between atoms: C_5  and  C_8 
REMARK    9  A    between atoms: C_14  and  C_15 
ROOT
HETATM    1  C   UNK N   1      32.532  16.334   7.140  0.00  0.00     0.203 C 
ENDROOT
BRANCH   1   2
HETATM    2  O   UNK N   1      32.581  14.943   7.449  0.00  0.00    -0.361 OA
BRANCH   2   3
HETATM    3  C   UNK N   1      32.345  14.689   8.813  0.00  0.00     0.166 C 
HETATM    4  C   UNK N   1      33.187  13.505   9.246  0.00  0.00     0.033 C 
ENDBRANCH   2   3
ENDBRANCH   1   2
BRANCH   1   5
HETATM    5  C   UNK N   1      31.237  16.995   7.680  0.00  0.00    -0.009 A 
HETATM    6  C   UNK N   1      29.974  16.667   7.143  0.00  0.00     0.011 A 
HETATM    7  C   UNK N   1      28.820  17.336   7.552  0.00  0.00     0.001 A 
HETATM    8  C   UNK N   1      28.910  18.374   8.479  0.00  0.00     0.000 A 
HETATM    9  C   UNK N   1      30.153  18.721   9.017  0.00  0.00     0.001 A 
HETATM   10  C   UNK N   1      31.309  18.032   8.628  0.00  0.00     0.011 A 
ENDBRANCH   1   5
BRANCH   1  11
HETATM   11  C   UNK N   1      32.658  16.431   5.623  0.00  0.00    -0.009 A 
HETATM   12  C   UNK N   1      33.335  15.404   4.934  0.00  0.00     0.011 A 
HETATM   13  C   UNK N   1      33.522  15.471   3.553  0.00  0.00     0.001 A 
HETATM   14  C   UNK N   1      33.042  16.569   2.839  0.00  0.00     0.000 A 
HETATM   15  C   UNK N   1      32.367  17.596   3.506  0.00  0.00     0.001 A 
HETATM   16  C   UNK N   1      32.174  17.530   4.892  0.00  0.00     0.011 A 
ENDBRANCH   1  11
BRANCH   1  17
HETATM   17  C   UNK N   1      33.752  17.077   7.678  0.00  0.00     0.303 C 
HETATM   18  O   UNK N   1      34.432  17.788   6.948  0.00  0.00    -0.261 OA
BRANCH  17  19
HETATM   19  O   UNK N   1      34.058  16.941   8.990  0.00  0.00    -0.317 OA
BRANCH  19  20
HETATM   20  C   UNK N   1      35.304  16.617   9.468  0.00  0.00     0.209 C 
BRANCH  20  21
HETATM   21  C   UNK N   1      35.231  16.468  10.987  0.00  0.00     0.298 C 
BRANCH  21  22
HETATM   22  N   UNK N   1      36.130  15.418  11.461  0.00  0.00     0.082 N 
HETATM   23  C   UNK N   1      35.320  14.429  12.145  0.00  0.00     0.309 C 
HETATM   24  C   UNK N   1      36.727  14.757  10.311  0.00  0.00     0.309 C 
ENDBRANCH  21  22
ENDBRANCH  20  21
ENDBRANCH  19  20
ENDBRANCH  17  19
ENDBRANCH   1  17
TORSDOF 9
ENDMDL
MODEL 5
REMARK VINA RESULT:      -5.7     22.006     25.440
REMARK  9 active torsions:
REMARK  status: ('A' for Active; 'I' for Inactive)
REMARK    1  A    between atoms: O_1  and  C_5 
REMARK    2  A    between atoms: O_1  and  C_13 
REMARK    3  A    between atoms: O_2  and  C_8 
REMARK    4  A    between atoms: O_2  and  C_14 
REMARK    5  A    between atoms: N_4  and  C_15 
REMARK    6  A    between atoms: C_5  and  C_6 
REMARK    7  A    between atoms: C_5  and  C_7 
REMARK    8  A    between atoms: C_5  and  C_8 
REMARK    9  A    between atoms: C_14  and  C_15 
ROOT
HETATM    1  C   UNK N   1      27.883  24.745  -4.787  0.00  0.00     0.203 C 
ENDROOT
BRANCH   1   2
HETATM    2  O   UNK N   1      28.624  25.911  -5.143  0.00  0.00    -0.361 OA
BRANCH   2   3
HETATM    3  C   UNK N   1      29.450  26.360  -4.098  0.00  0.00     0.166 C 
HETATM    4  C   UNK N   1      30.862  26.532  -4.624  0.00  0.00     0.033 C 
ENDBRANCH   2   3
ENDBRANCH   1   2
BRANCH   1   5
HETATM    5  C   UNK N   1      28.812  23.612  -4.280  0.00  0.00    -0.009 A 
HETATM    6  C   UNK N   1      29.186  23.529  -2.922  0.00  0.00     0.011 A 
HETATM    7  C   UNK N   1      30.105  22.576  -2.483  0.00  0.00     0.001 A 
HETATM    8  C   UNK N   1      30.698  21.709  -3.400  0.00  0.00     0.000 A 
HETATM    9  C   UNK N   1      30.349  21.779  -4.751  0.00  0.00     0.001 A 
HETATM   10  C   UNK N   1      29.406  22.717  -5.190  0.00  0.00     0.011 A 
ENDBRANCH   1   5
BRANCH   1  11
HETATM   11  C   UNK N   1      27.095  24.352  -6.033  0.00  0.00    -0.009 A 
HETATM   12  C   UNK N   1      27.233  25.137  -7.195  0.00  0.00     0.011 A 
HETATM   13  C   UNK N   1      26.496  24.850  -8.345  0.00  0.00     0.001 A 
HETATM   14  C   UNK N   1      25.603  23.779  -8.348  0.00  0.00     0.000 A 
HETATM   15  C   UNK N   1      25.455  22.989  -7.203  0.00  0.00     0.001 A 
HETATM   16  C   UNK N   1      26.197  23.272  -6.050  0.00  0.00     0.011 A 
ENDBRANCH   1  11
BRANCH   1  17
HETATM   17  C   UNK N   1      26.820  25.049  -3.736  0.00  0.00     0.303 C 
HETATM   18  O   UNK N   1      26.682  24.334  -2.751  0.00  0.00    -0.261 OA
BRANCH  17  19
HETATM   19  O   UNK N   1      26.037  26.140  -3.912  0.00  0.00    -0.317 OA
BRANCH  19  20
HETATM   20  C   UNK N   1      26.065  27.255  -3.111  0.00  0.00     0.209 C 
BRANCH  20  21
HETATM   21  C   UNK N   1      25.958  28.501  -3.990  0.00  0.00     0.298 C 
BRANCH  21  22
HETATM   22  N   UNK N   1      26.467  29.683  -3.297  0.00  0.00     0.082 N 
HETATM   23  C   UNK N   1      27.648  29.279  -2.559  0.00  0.00     0.309 C 
HETATM   24  C   UNK N   1      26.898  30.657  -4.287  0.00  0.00     0.309 C 
ENDBRANCH  21  22
ENDBRANCH  20  21
ENDBRANCH  19  20
ENDBRANCH  17  19
ENDBRANCH   1  17
TORSDOF 9
ENDMDL
MODEL 6
REMARK VINA RESULT:      -5.7      6.939     11.094
REMARK  9 active torsions:
REMARK  status: ('A' for Active; 'I' for Inactive)
REMARK    1  A    between atoms: O_1  and  C_5 
REMARK    2  A    between atoms: O_1  and  C_13 
REMARK    3  A    between atoms: O_2  and  C_8 
REMARK    4  A    between atoms: O_2  and  C_14 
REMARK    5  A    between atoms: N_4  and  C_15 
REMARK    6  A    between atoms: C_5  and  C_6 
REMARK    7  A    between atoms: C_5  and  C_7 
REMARK    8  A    between atoms: C_5  and  C_8 
REMARK    9  A    between atoms: C_14  and  C_15 
ROOT
HETATM    1  C   UNK N   1      31.988  16.761   7.162  0.00  0.00     0.203 C 
ENDROOT
BRANCH   1   2
HETATM    2  O   UNK N   1      32.677  17.885   7.705  0.00  0.00    -0.361 OA
BRANCH   2   3
HETATM    3  C   UNK N   1      34.021  17.939   7.294  0.00  0.00     0.166 C 
HETATM    4  C   UNK N   1      34.847  18.581   8.391  0.00  0.00     0.033 C 
ENDBRANCH   2   3
ENDBRANCH   1   2
BRANCH   1   5
HETATM    5  C   UNK N   1      32.357  16.528   5.674  0.00  0.00    -0.009 A 
HETATM    6  C   UNK N   1      33.215  15.475   5.291  0.00  0.00     0.011 A 
HETATM    7  C   UNK N   1      33.633  15.328   3.969  0.00  0.00     0.001 A 
HETATM    8  C   UNK N   1      33.232  16.255   3.007  0.00  0.00     0.000 A 
HETATM    9  C   UNK N   1      32.391  17.311   3.365  0.00  0.00     0.001 A 
HETATM   10  C   UNK N   1      31.947  17.444   4.687  0.00  0.00     0.011 A 
ENDBRANCH   1   5
BRANCH   1  11
HETATM   11  C   UNK N   1      30.503  17.039   7.367  0.00  0.00    -0.009 A 
HETATM   12  C   UNK N   1      30.106  17.794   8.490  0.00  0.00     0.011 A 
HETATM   13  C   UNK N   1      28.756  18.034   8.750  0.00  0.00     0.001 A 
HETATM   14  C   UNK N   1      27.781  17.516   7.898  0.00  0.00     0.000 A 
HETATM   15  C   UNK N   1      28.157  16.766   6.778  0.00  0.00     0.001 A 
HETATM   16  C   UNK N   1      29.512  16.528   6.512  0.00  0.00     0.011 A 
ENDBRANCH   1  11
BRANCH   1  17
HETATM   17  C   UNK N   1      32.258  15.490   7.964  0.00  0.00     0.303 C 
HETATM   18  O   UNK N   1      31.892  14.395   7.556  0.00  0.00    -0.261 OA
BRANCH  17  19
HETATM   19  O   UNK N   1      32.927  15.602   9.137  0.00  0.00    -0.317 OA
BRANCH  19  20
HETATM   20  C   UNK N   1      34.072  14.913   9.447  0.00  0.00     0.209 C 
BRANCH  20  21
HETATM   21  C   UNK N   1      34.219  14.851  10.967  0.00  0.00     0.298 C 
BRANCH  21  22
HETATM   22  N   UNK N   1      35.473  15.462  11.404  0.00  0.00     0.082 N 
HETATM   23  C   UNK N   1      35.920  14.743  12.581  0.00  0.00     0.309 C 
HETATM   24  C   UNK N   1      36.479  15.258  10.374  0.00  0.00     0.309 C 
ENDBRANCH  21  22
ENDBRANCH  20  21
ENDBRANCH  19  20
ENDBRANCH  17  19
ENDBRANCH   1  17
TORSDOF 9
ENDMDL
MODEL 7
REMARK VINA RESULT:      -5.6      9.986     13.286
REMARK  9 active torsions:
REMARK  status: ('A' for Active; 'I' for Inactive)
REMARK    1  A    between atoms: O_1  and  C_5 
REMARK    2  A    between atoms: O_1  and  C_13 
REMARK    3  A    between atoms: O_2  and  C_8 
REMARK    4  A    between atoms: O_2  and  C_14 
REMARK    5  A    between atoms: N_4  and  C_15 
REMARK    6  A    between atoms: C_5  and  C_6 
REMARK    7  A    between atoms: C_5  and  C_7 
REMARK    8  A    between atoms: C_5  and  C_8 
REMARK    9  A    between atoms: C_14  and  C_15 
ROOT
HETATM    1  C   UNK N   1      28.218  17.370   6.496  0.00  0.00     0.203 C 
ENDROOT
BRANCH   1   2
HETATM    2  O   UNK N   1      28.055  17.646   7.886  0.00  0.00    -0.361 OA
BRANCH   2   3
HETATM    3  C   UNK N   1      29.037  18.527   8.375  0.00  0.00     0.166 C 
HETATM    4  C   UNK N   1      29.366  18.152   9.807  0.00  0.00     0.033 C 
ENDBRANCH   2   3
ENDBRANCH   1   2
BRANCH   1   5
HETATM    5  C   UNK N   1      27.691  18.534   5.616  0.00  0.00    -0.009 A 
HETATM    6  C   UNK N   1      27.697  19.864   6.088  0.00  0.00     0.011 A 
HETATM    7  C   UNK N   1      27.126  20.897   5.344  0.00  0.00     0.001 A 
HETATM    8  C   UNK N   1      26.504  20.615   4.128  0.00  0.00     0.000 A 
HETATM    9  C   UNK N   1      26.479  19.303   3.646  0.00  0.00     0.001 A 
HETATM   10  C   UNK N   1      27.075  18.269   4.380  0.00  0.00     0.011 A 
ENDBRANCH   1   5
BRANCH   1  11
HETATM   11  C   UNK N   1      27.485  16.057   6.241  0.00  0.00    -0.009 A 
HETATM   12  C   UNK N   1      26.365  15.743   7.036  0.00  0.00     0.011 A 
HETATM   13  C   UNK N   1      25.691  14.531   6.876  0.00  0.00     0.001 A 
HETATM   14  C   UNK N   1      26.131  13.611   5.925  0.00  0.00     0.000 A 
HETATM   15  C   UNK N   1      27.241  13.907   5.127  0.00  0.00     0.001 A 
HETATM   16  C   UNK N   1      27.917  15.124   5.281  0.00  0.00     0.011 A 
ENDBRANCH   1  11
BRANCH   1  17
HETATM   17  C   UNK N   1      29.674  17.077   6.143  0.00  0.00     0.303 C 
HETATM   18  O   UNK N   1      30.218  17.627   5.193  0.00  0.00    -0.261 OA
BRANCH  17  19
HETATM   19  O   UNK N   1      30.357  16.199   6.917  0.00  0.00    -0.317 OA
BRANCH  19  20
HETATM   20  C   UNK N   1      31.712  15.997   6.851  0.00  0.00     0.209 C 
BRANCH  20  21
HETATM   21  C   UNK N   1      32.398  16.878   7.894  0.00  0.00     0.298 C 
BRANCH  21  22
HETATM   22  N   UNK N   1      33.206  17.918   7.262  0.00  0.00     0.082 N 
HETATM   23  C   UNK N   1      34.365  18.141   8.106  0.00  0.00     0.309 C 
HETATM   24  C   UNK N   1      33.699  17.419   5.988  0.00  0.00     0.309 C 
ENDBRANCH  21  22
ENDBRANCH  20  21
ENDBRANCH  19  20
ENDBRANCH  17  19
ENDBRANCH   1  17
TORSDOF 9
ENDMDL
MODEL 8
REMARK VINA RESULT:      -5.6      1.573      4.590
REMARK  9 active torsions:
REMARK  status: ('A' for Active; 'I' for Inactive)
REMARK    1  A    between atoms: O_1  and  C_5 
REMARK    2  A    between atoms: O_1  and  C_13 
REMARK    3  A    between atoms: O_2  and  C_8 
REMARK    4  A    between atoms: O_2  and  C_14 
REMARK    5  A    between atoms: N_4  and  C_15 
REMARK    6  A    between atoms: C_5  and  C_6 
REMARK    7  A    between atoms: C_5  and  C_7 
REMARK    8  A    between atoms: C_5  and  C_8 
REMARK    9  A    between atoms: C_14  and  C_15 
ROOT
HETATM    1  C   UNK N   1      35.548  11.944  15.442  0.00  0.00     0.203 C 
ENDROOT
BRANCH   1   2
HETATM    2  O   UNK N   1      34.233  11.584  15.022  0.00  0.00    -0.361 OA
BRANCH   2   3
HETATM    3  C   UNK N   1      34.184  10.294  14.465  0.00  0.00     0.166 C 
HETATM    4  C   UNK N   1      33.805  10.403  13.001  0.00  0.00     0.033 C 
ENDBRANCH   2   3
ENDBRANCH   1   2
BRANCH   1   5
HETATM    5  C   UNK N   1      36.574  10.823  15.132  0.00  0.00    -0.009 A 
HETATM    6  C   UNK N   1      36.864   9.819  16.079  0.00  0.00     0.011 A 
HETATM    7  C   UNK N   1      37.862   8.873  15.847  0.00  0.00     0.001 A 
HETATM    8  C   UNK N   1      38.618   8.934  14.677  0.00  0.00     0.000 A 
HETATM    9  C   UNK N   1      38.354   9.926  13.728  0.00  0.00     0.001 A 
HETATM   10  C   UNK N   1      37.334  10.861  13.948  0.00  0.00     0.011 A 
ENDBRANCH   1   5
BRANCH   1  11
HETATM   11  C   UNK N   1      35.442  12.255  16.931  0.00  0.00    -0.009 A 
HETATM   12  C   UNK N   1      35.517  11.190  17.851  0.00  0.00     0.011 A 
HETATM   13  C   UNK N   1      35.375  11.416  19.221  0.00  0.00     0.001 A 
HETATM   14  C   UNK N   1      35.148  12.708  19.693  0.00  0.00     0.000 A 
HETATM   15  C   UNK N   1      35.072  13.777  18.794  0.00  0.00     0.001 A 
HETATM   16  C   UNK N   1      35.218  13.554  17.419  0.00  0.00     0.011 A 
ENDBRANCH   1  11
BRANCH   1  17
HETATM   17  C   UNK N   1      36.007  13.253  14.805  0.00  0.00     0.303 C 
HETATM   18  O   UNK N   1      37.061  13.783  15.138  0.00  0.00    -0.261 OA
BRANCH  17  19
HETATM   19  O   UNK N   1      35.226  13.810  13.849  0.00  0.00    -0.317 OA
BRANCH  19  20
HETATM   20  C   UNK N   1      35.598  13.972  12.537  0.00  0.00     0.209 C 
BRANCH  20  21
HETATM   21  C   UNK N   1      35.811  15.459  12.261  0.00  0.00     0.298 C 
BRANCH  21  22
HETATM   22  N   UNK N   1      36.265  15.684  10.890  0.00  0.00     0.082 N 
HETATM   23  C   UNK N   1      36.481  14.383  10.285  0.00  0.00     0.309 C 
HETATM   24  C   UNK N   1      35.197  16.328  10.142  0.00  0.00     0.309 C 
ENDBRANCH  21  22
ENDBRANCH  20  21
ENDBRANCH  19  20
ENDBRANCH  17  19
ENDBRANCH   1  17
TORSDOF 9
ENDMDL
MODEL 9
REMARK VINA RESULT:      -5.5     11.287     14.457
REMARK  9 active torsions:
REMARK  status: ('A' for Active; 'I' for Inactive)
REMARK    1  A    between atoms: O_1  and  C_5 
REMARK    2  A    between atoms: O_1  and  C_13 
REMARK    3  A    between atoms: O_2  and  C_8 
REMARK    4  A    between atoms: O_2  and  C_14 
REMARK    5  A    between atoms: N_4  and  C_15 
REMARK    6  A    between atoms: C_5  and  C_6 
REMARK    7  A    between atoms: C_5  and  C_7 
REMARK    8  A    between atoms: C_5  and  C_8 
REMARK    9  A    between atoms: C_14  and  C_15 
ROOT
HETATM    1  C   UNK N   1      28.845  17.267   4.802  0.00  0.00     0.203 C 
ENDROOT
BRANCH   1   2
HETATM    2  O   UNK N   1      28.923  16.997   3.404  0.00  0.00    -0.361 OA
BRANCH   2   3
HETATM    3  C   UNK N   1      28.020  15.997   3.001  0.00  0.00     0.166 C 
HETATM    4  C   UNK N   1      28.739  15.021   2.090  0.00  0.00     0.033 C 
ENDBRANCH   2   3
ENDBRANCH   1   2
BRANCH   1   5
HETATM    5  C   UNK N   1      28.044  18.564   5.090  0.00  0.00    -0.009 A 
HETATM    6  C   UNK N   1      27.416  19.279   4.049  0.00  0.00     0.011 A 
HETATM    7  C   UNK N   1      26.787  20.500   4.288  0.00  0.00     0.001 A 
HETATM    8  C   UNK N   1      26.806  21.051   5.569  0.00  0.00     0.000 A 
HETATM    9  C   UNK N   1      27.430  20.365   6.614  0.00  0.00     0.001 A 
HETATM   10  C   UNK N   1      28.039  19.125   6.381  0.00  0.00     0.011 A 
ENDBRANCH   1   5
BRANCH   1  11
HETATM   11  C   UNK N   1      30.286  17.339   5.297  0.00  0.00    -0.009 A 
HETATM   12  C   UNK N   1      31.317  17.508   4.351  0.00  0.00     0.011 A 
HETATM   13  C   UNK N   1      32.656  17.529   4.747  0.00  0.00     0.001 A 
HETATM   14  C   UNK N   1      32.985  17.373   6.093  0.00  0.00     0.000 A 
HETATM   15  C   UNK N   1      31.974  17.205   7.045  0.00  0.00     0.001 A 
HETATM   16  C   UNK N   1      30.630  17.188   6.651  0.00  0.00     0.011 A 
ENDBRANCH   1  11
BRANCH   1  17
HETATM   17  C   UNK N   1      28.230  16.100   5.571  0.00  0.00     0.303 C 
HETATM   18  O   UNK N   1      28.812  15.026   5.662  0.00  0.00    -0.261 OA
BRANCH  17  19
HETATM   19  O   UNK N   1      27.026  16.286   6.163  0.00  0.00    -0.317 OA
BRANCH  19  20
HETATM   20  C   UNK N   1      26.096  15.296   6.362  0.00  0.00     0.209 C 
BRANCH  20  21
HETATM   21  C   UNK N   1      24.735  15.786   5.870  0.00  0.00     0.298 C 
BRANCH  21  22
HETATM   22  N   UNK N   1      24.877  16.690   4.731  0.00  0.00     0.082 N 
HETATM   23  C   UNK N   1      24.326  16.016   3.570  0.00  0.00     0.309 C 
HETATM   24  C   UNK N   1      24.059  17.870   4.963  0.00  0.00     0.309 C 
ENDBRANCH  21  22
ENDBRANCH  20  21
ENDBRANCH  19  20
ENDBRANCH  17  19
ENDBRANCH   1  17
TORSDOF 9
ENDMDL
