MODEL 1
REMARK VINA RESULT:      -6.3      0.000      0.000
REMARK  10 active torsions:
REMARK  status: ('A' for Active; 'I' for Inactive)
REMARK    1  A    between atoms: O_1  and  C_28 
REMARK    2  A    between atoms: O_1  and  C_29 
REMARK    3  A    between atoms: N_4  and  C_9 
REMARK    4  A    between atoms: N_5  and  C_10 
REMARK    5  A    between atoms: N_5  and  C_15 
REMARK    6  A    between atoms: N_5  and  C_16 
REMARK    7  A    between atoms: N_8  and  C_20 
REMARK    8  A    between atoms: C_9  and  C_10 
REMARK    9  A    between atoms: C_11  and  C_14 
REMARK   10  A    between atoms: C_14  and  C_18 
ROOT
HETATM    1  N   UNK N   1      35.615  12.379  13.067  0.00  0.00    -0.333 N 
HETATM    2  N   UNK N   1      36.798  14.230  13.597  0.00  0.00    -0.344 N 
ATOM      3  HN  UNK N   1      37.395  15.054  13.521  1.00  0.00     0.167 HD
HETATM    4  C   UNK N   1      36.402  13.394  12.598  0.00  0.00     0.088 A 
HETATM    5  C   UNK N   1      35.516  12.612  14.387  0.00  0.00     0.062 A 
HETATM    6  C   UNK N   1      36.227  13.727  14.699  0.00  0.00     0.063 A 
HETATM    7  C   UNK N   1      34.787  11.912  15.346  0.00  0.00     0.034 A 
HETATM    8  C   UNK N   1      36.257  14.257  15.982  0.00  0.00     0.068 A 
HETATM    9  C   UNK N   1      35.513  13.596  16.985  0.00  0.00     0.105 A 
HETATM   10  C   UNK N   1      34.789  12.418  16.661  0.00  0.00     0.038 A 
ENDROOT
BRANCH   4  11
HETATM   11  C   UNK N   1      36.726  13.653  11.147  0.00  0.00     0.115 C 
BRANCH  11  12
HETATM   12  C   UNK N   1      35.740  14.574  10.482  0.00  0.00    -0.051 A 
HETATM   13  C   UNK N   1      34.642  14.051   9.790  0.00  0.00     0.010 A 
HETATM   14  C   UNK N   1      33.732  14.912   9.163  0.00  0.00     0.037 A 
HETATM   15  C   UNK N   1      33.924  16.306   9.215  0.00  0.00     0.068 A 
HETATM   16  C   UNK N   1      35.019  16.821   9.912  0.00  0.00     0.037 A 
HETATM   17  C   UNK N   1      35.913  15.964  10.552  0.00  0.00     0.010 A 
BRANCH  15  18
HETATM   18  O   UNK N   1      33.080  17.170   8.603  0.00  0.00    -0.352 OA
BRANCH  18  19
HETATM   19  C   UNK N   1      33.487  18.130   7.706  0.00  0.00     0.171 C 
HETATM   20  C   UNK N   1      33.709  17.482   6.354  0.00  0.00     0.034 C 
ENDBRANCH  18  19
ENDBRANCH  15  18
ENDBRANCH  11  12
ENDBRANCH   4  11
BRANCH   1  21
HETATM   21  C   UNK N   1      34.922  11.278  12.386  0.00  0.00     0.161 C 
BRANCH  21  22
HETATM   22  C   UNK N   1      35.790  10.079  12.015  0.00  0.00     0.292 C 
BRANCH  22  23
HETATM   23  N   UNK N   1      36.268   9.366  13.199  0.00  0.00     0.089 N 
BRANCH  23  24
HETATM   24  C   UNK N   1      37.727   9.399  13.170  0.00  0.00     0.268 C 
HETATM   25  C   UNK N   1      38.271  10.248  14.305  0.00  0.00     0.037 C 
ENDBRANCH  23  24
BRANCH  23  26
HETATM   26  C   UNK N   1      35.790   7.971  13.219  0.00  0.00     0.268 C 
HETATM   27  C   UNK N   1      35.955   7.290  14.575  0.00  0.00     0.037 C 
ENDBRANCH  23  26
ENDBRANCH  22  23
ENDBRANCH  21  22
ENDBRANCH   1  21
BRANCH   9  28
HETATM   28  N   UNK N   1      35.456  14.133  18.301  0.00  0.00    -0.116 N 
HETATM   29  O   UNK N   1      35.768  15.394  18.515  0.00  0.00    -0.532 OA
HETATM   30  O   UNK N   1      35.186  13.430  19.228  0.00  0.00    -0.532 OA
ENDBRANCH   9  28
TORSDOF 10
ENDMDL
MODEL 2
REMARK VINA RESULT:      -6.3      8.039     11.125
REMARK  10 active torsions:
REMARK  status: ('A' for Active; 'I' for Inactive)
REMARK    1  A    between atoms: O_1  and  C_28 
REMARK    2  A    between atoms: O_1  and  C_29 
REMARK    3  A    between atoms: N_4  and  C_9 
REMARK    4  A    between atoms: N_5  and  C_10 
REMARK    5  A    between atoms: N_5  and  C_15 
REMARK    6  A    between atoms: N_5  and  C_16 
REMARK    7  A    between atoms: N_8  and  C_20 
REMARK    8  A    between atoms: C_9  and  C_10 
REMARK    9  A    between atoms: C_11  and  C_14 
REMARK   10  A    between atoms: C_14  and  C_18 
ROOT
HETATM    1  N   UNK N   1      30.309  16.670   5.868  0.00  0.00    -0.333 N 
HETATM    2  N   UNK N   1      29.988  17.638   7.884  0.00  0.00    -0.344 N 
ATOM      3  HN  UNK N   1      29.537  18.016   8.717  1.00  0.00     0.167 HD
HETATM    4  C   UNK N   1      29.395  17.038   6.815  0.00  0.00     0.088 A 
HETATM    5  C   UNK N   1      31.494  17.041   6.381  0.00  0.00     0.062 A 
HETATM    6  C   UNK N   1      31.295  17.621   7.594  0.00  0.00     0.063 A 
HETATM    7  C   UNK N   1      32.772  16.858   5.854  0.00  0.00     0.034 A 
HETATM    8  C   UNK N   1      32.344  18.047   8.397  0.00  0.00     0.068 A 
HETATM    9  C   UNK N   1      33.660  17.860   7.917  0.00  0.00     0.105 A 
HETATM   10  C   UNK N   1      33.864  17.274   6.640  0.00  0.00     0.038 A 
ENDROOT
BRANCH   4  11
HETATM   11  C   UNK N   1      27.917  16.740   6.770  0.00  0.00     0.115 C 
BRANCH  11  12
HETATM   12  C   UNK N   1      27.193  17.527   5.712  0.00  0.00    -0.051 A 
HETATM   13  C   UNK N   1      26.312  16.885   4.835  0.00  0.00     0.010 A 
HETATM   14  C   UNK N   1      25.647  17.621   3.844  0.00  0.00     0.037 A 
HETATM   15  C   UNK N   1      25.872  19.005   3.718  0.00  0.00     0.068 A 
HETATM   16  C   UNK N   1      26.748  19.640   4.602  0.00  0.00     0.037 A 
HETATM   17  C   UNK N   1      27.394  18.911   5.599  0.00  0.00     0.010 A 
BRANCH  15  18
HETATM   18  O   UNK N   1      25.267  19.747   2.760  0.00  0.00    -0.352 OA
BRANCH  18  19
HETATM   19  C   UNK N   1      24.298  20.687   3.020  0.00  0.00     0.171 C 
HETATM   20  C   UNK N   1      22.952  19.998   3.113  0.00  0.00     0.034 C 
ENDBRANCH  18  19
ENDBRANCH  15  18
ENDBRANCH  11  12
ENDBRANCH   4  11
BRANCH   1  21
HETATM   21  C   UNK N   1      30.167  15.964   4.588  0.00  0.00     0.161 C 
BRANCH  21  22
HETATM   22  C   UNK N   1      29.807  14.484   4.686  0.00  0.00     0.292 C 
BRANCH  22  23
HETATM   23  N   UNK N   1      29.484  13.914   3.379  0.00  0.00     0.089 N 
BRANCH  23  24
HETATM   24  C   UNK N   1      30.672  13.211   2.902  0.00  0.00     0.268 C 
HETATM   25  C   UNK N   1      30.401  12.533   1.572  0.00  0.00     0.037 C 
ENDBRANCH  23  24
BRANCH  23  26
HETATM   26  C   UNK N   1      29.091  14.959   2.416  0.00  0.00     0.268 C 
HETATM   27  C   UNK N   1      27.616  14.900   2.022  0.00  0.00     0.037 C 
ENDBRANCH  23  26
ENDBRANCH  22  23
ENDBRANCH  21  22
ENDBRANCH   1  21
BRANCH   9  28
HETATM   28  N   UNK N   1      34.773  18.218   8.728  0.00  0.00    -0.116 N 
HETATM   29  O   UNK N   1      35.425  19.338   8.498  0.00  0.00    -0.532 OA
HETATM   30  O   UNK N   1      35.162  17.476   9.579  0.00  0.00    -0.532 OA
ENDBRANCH   9  28
TORSDOF 10
ENDMDL
MODEL 3
REMARK VINA RESULT:      -6.2      3.676      6.696
REMARK  10 active torsions:
REMARK  status: ('A' for Active; 'I' for Inactive)
REMARK    1  A    between atoms: O_1  and  C_28 
REMARK    2  A    between atoms: O_1  and  C_29 
REMARK    3  A    between atoms: N_4  and  C_9 
REMARK    4  A    between atoms: N_5  and  C_10 
REMARK    5  A    between atoms: N_5  and  C_15 
REMARK    6  A    between atoms: N_5  and  C_16 
REMARK    7  A    between atoms: N_8  and  C_20 
REMARK    8  A    between atoms: C_9  and  C_10 
REMARK    9  A    between atoms: C_11  and  C_14 
REMARK   10  A    between atoms: C_14  and  C_18 
ROOT
HETATM    1  N   UNK N   1      35.040  15.599   8.465  0.00  0.00    -0.333 N 
HETATM    2  N   UNK N   1      34.744  17.136  10.094  0.00  0.00    -0.344 N 
ATOM      3  HN  UNK N   1      34.537  18.011  10.575  1.00  0.00     0.167 HD
HETATM    4  C   UNK N   1      34.669  16.881   8.759  0.00  0.00     0.088 A 
HETATM    5  C   UNK N   1      35.335  15.052   9.656  0.00  0.00     0.062 A 
HETATM    6  C   UNK N   1      35.153  15.980  10.632  0.00  0.00     0.063 A 
HETATM    7  C   UNK N   1      35.720  13.744   9.947  0.00  0.00     0.034 A 
HETATM    8  C   UNK N   1      35.314  15.686  11.979  0.00  0.00     0.068 A 
HETATM    9  C   UNK N   1      35.681  14.366  12.327  0.00  0.00     0.105 A 
HETATM   10  C   UNK N   1      35.892  13.404  11.303  0.00  0.00     0.038 A 
ENDROOT
BRANCH   4  11
HETATM   11  C   UNK N   1      34.135  17.887   7.770  0.00  0.00     0.115 C 
BRANCH  11  12
HETATM   12  C   UNK N   1      32.674  17.691   7.465  0.00  0.00    -0.051 A 
HETATM   13  C   UNK N   1      31.715  17.877   8.466  0.00  0.00     0.010 A 
HETATM   14  C   UNK N   1      30.356  17.683   8.181  0.00  0.00     0.037 A 
HETATM   15  C   UNK N   1      29.952  17.287   6.891  0.00  0.00     0.068 A 
HETATM   16  C   UNK N   1      30.916  17.110   5.896  0.00  0.00     0.037 A 
HETATM   17  C   UNK N   1      32.265  17.322   6.176  0.00  0.00     0.010 A 
BRANCH  15  18
HETATM   18  O   UNK N   1      28.653  17.067   6.582  0.00  0.00    -0.352 OA
BRANCH  18  19
HETATM   19  C   UNK N   1      27.977  17.743   5.593  0.00  0.00     0.171 C 
HETATM   20  C   UNK N   1      27.814  19.192   6.006  0.00  0.00     0.034 C 
ENDBRANCH  18  19
ENDBRANCH  15  18
ENDBRANCH  11  12
ENDBRANCH   4  11
BRANCH   1  21
HETATM   21  C   UNK N   1      35.080  14.853   7.200  0.00  0.00     0.161 C 
BRANCH  21  22
HETATM   22  C   UNK N   1      33.789  14.138   6.814  0.00  0.00     0.292 C 
BRANCH  22  23
HETATM   23  N   UNK N   1      33.818  13.669   5.429  0.00  0.00     0.089 N 
BRANCH  23  24
HETATM   24  C   UNK N   1      34.507  14.685   4.638  0.00  0.00     0.268 C 
HETATM   25  C   UNK N   1      33.615  15.198   3.523  0.00  0.00     0.037 C 
ENDBRANCH  23  24
BRANCH  23  26
HETATM   26  C   UNK N   1      32.458  13.451   4.904  0.00  0.00     0.268 C 
HETATM   27  C   UNK N   1      32.103  11.977   4.727  0.00  0.00     0.037 C 
ENDBRANCH  23  26
ENDBRANCH  22  23
ENDBRANCH  21  22
ENDBRANCH   1  21
BRANCH   9  28
HETATM   28  N   UNK N   1      35.796  13.994  13.695  0.00  0.00    -0.116 N 
HETATM   29  O   UNK N   1      34.851  13.277  14.266  0.00  0.00    -0.532 OA
HETATM   30  O   UNK N   1      36.716  14.382  14.350  0.00  0.00    -0.532 OA
ENDBRANCH   9  28
TORSDOF 10
ENDMDL
MODEL 4
REMARK VINA RESULT:      -6.1      8.114     12.019
REMARK  10 active torsions:
REMARK  status: ('A' for Active; 'I' for Inactive)
REMARK    1  A    between atoms: O_1  and  C_28 
REMARK    2  A    between atoms: O_1  and  C_29 
REMARK    3  A    between atoms: N_4  and  C_9 
REMARK    4  A    between atoms: N_5  and  C_10 
REMARK    5  A    between atoms: N_5  and  C_15 
REMARK    6  A    between atoms: N_5  and  C_16 
REMARK    7  A    between atoms: N_8  and  C_20 
REMARK    8  A    between atoms: C_9  and  C_10 
REMARK    9  A    between atoms: C_11  and  C_14 
REMARK   10  A    between atoms: C_14  and  C_18 
ROOT
HETATM    1  N   UNK N   1      29.603  16.928   5.679  0.00  0.00    -0.333 N 
HETATM    2  N   UNK N   1      31.502  17.074   4.462  0.00  0.00    -0.344 N 
ATOM      3  HN  UNK N   1      32.150  17.085   3.675  1.00  0.00     0.167 HD
HETATM    4  C   UNK N   1      30.151  16.906   4.427  0.00  0.00     0.088 A 
HETATM    5  C   UNK N   1      30.648  17.131   6.500  0.00  0.00     0.062 A 
HETATM    6  C   UNK N   1      31.786  17.219   5.763  0.00  0.00     0.063 A 
HETATM    7  C   UNK N   1      30.654  17.289   7.885  0.00  0.00     0.034 A 
HETATM    8  C   UNK N   1      33.022  17.496   6.331  0.00  0.00     0.068 A 
HETATM    9  C   UNK N   1      33.076  17.689   7.730  0.00  0.00     0.105 A 
HETATM   10  C   UNK N   1      31.889  17.573   8.500  0.00  0.00     0.038 A 
ENDROOT
BRANCH   4  11
HETATM   11  C   UNK N   1      29.378  16.816   3.134  0.00  0.00     0.115 C 
BRANCH  11  12
HETATM   12  C   UNK N   1      28.801  15.448   2.890  0.00  0.00    -0.051 A 
HETATM   13  C   UNK N   1      29.641  14.331   2.826  0.00  0.00     0.010 A 
HETATM   14  C   UNK N   1      29.100  13.060   2.588  0.00  0.00     0.037 A 
HETATM   15  C   UNK N   1      27.713  12.903   2.398  0.00  0.00     0.068 A 
HETATM   16  C   UNK N   1      26.882  14.023   2.469  0.00  0.00     0.037 A 
HETATM   17  C   UNK N   1      27.418  15.284   2.726  0.00  0.00     0.010 A 
BRANCH  15  18
HETATM   18  O   UNK N   1      27.156  11.696   2.143  0.00  0.00    -0.352 OA
BRANCH  18  19
HETATM   19  C   UNK N   1      25.812  11.432   2.271  0.00  0.00     0.171 C 
HETATM   20  C   UNK N   1      25.247  11.074   0.911  0.00  0.00     0.034 C 
ENDBRANCH  18  19
ENDBRANCH  15  18
ENDBRANCH  11  12
ENDBRANCH   4  11
BRANCH   1  21
HETATM   21  C   UNK N   1      28.214  16.837   6.146  0.00  0.00     0.161 C 
BRANCH  21  22
HETATM   22  C   UNK N   1      27.291  17.967   5.697  0.00  0.00     0.292 C 
BRANCH  22  23
HETATM   23  N   UNK N   1      27.978  19.258   5.684  0.00  0.00     0.089 N 
BRANCH  23  24
HETATM   24  C   UNK N   1      27.623  19.956   6.916  0.00  0.00     0.268 C 
HETATM   25  C   UNK N   1      26.978  21.296   6.611  0.00  0.00     0.037 C 
ENDBRANCH  23  24
BRANCH  23  26
HETATM   26  C   UNK N   1      27.589  20.064   4.512  0.00  0.00     0.268 C 
HETATM   27  C   UNK N   1      26.621  19.346   3.574  0.00  0.00     0.037 C 
ENDBRANCH  23  26
ENDBRANCH  22  23
ENDBRANCH  21  22
ENDBRANCH   1  21
BRANCH   9  28
HETATM   28  N   UNK N   1      34.305  18.039   8.355  0.00  0.00    -0.116 N 
HETATM   29  O   UNK N   1      34.653  17.474   9.492  0.00  0.00    -0.532 OA
HETATM   30  O   UNK N   1      34.997  18.893   7.887  0.00  0.00    -0.532 OA
ENDBRANCH   9  28
TORSDOF 10
ENDMDL
MODEL 5
REMARK VINA RESULT:      -6.0     11.521     15.594
REMARK  10 active torsions:
REMARK  status: ('A' for Active; 'I' for Inactive)
REMARK    1  A    between atoms: O_1  and  C_28 
REMARK    2  A    between atoms: O_1  and  C_29 
REMARK    3  A    between atoms: N_4  and  C_9 
REMARK    4  A    between atoms: N_5  and  C_10 
REMARK    5  A    between atoms: N_5  and  C_15 
REMARK    6  A    between atoms: N_5  and  C_16 
REMARK    7  A    between atoms: N_8  and  C_20 
REMARK    8  A    between atoms: C_9  and  C_10 
REMARK    9  A    between atoms: C_11  and  C_14 
REMARK   10  A    between atoms: C_14  and  C_18 
ROOT
HETATM    1  N   UNK N   1      22.913  17.079   5.562  0.00  0.00    -0.333 N 
HETATM    2  N   UNK N   1      23.705  15.037   6.117  0.00  0.00    -0.344 N 
ATOM      3  HN  UNK N   1      24.280  14.195   6.144  1.00  0.00     0.167 HD
HETATM    4  C   UNK N   1      23.892  16.149   5.353  0.00  0.00     0.088 A 
HETATM    5  C   UNK N   1      22.116  16.526   6.491  0.00  0.00     0.062 A 
HETATM    6  C   UNK N   1      22.598  15.300   6.822  0.00  0.00     0.063 A 
HETATM    7  C   UNK N   1      20.988  17.066   7.110  0.00  0.00     0.034 A 
HETATM    8  C   UNK N   1      22.020  14.514   7.810  0.00  0.00     0.068 A 
HETATM    9  C   UNK N   1      20.889  15.027   8.483  0.00  0.00     0.105 A 
HETATM   10  C   UNK N   1      20.374  16.300   8.120  0.00  0.00     0.038 A 
ENDROOT
BRANCH   4  11
HETATM   11  C   UNK N   1      25.105  16.335   4.475  0.00  0.00     0.115 C 
BRANCH  11  12
HETATM   12  C   UNK N   1      26.310  16.819   5.234  0.00  0.00    -0.051 A 
HETATM   13  C   UNK N   1      27.163  15.903   5.861  0.00  0.00     0.010 A 
HETATM   14  C   UNK N   1      28.278  16.359   6.576  0.00  0.00     0.037 A 
HETATM   15  C   UNK N   1      28.539  17.739   6.678  0.00  0.00     0.068 A 
HETATM   16  C   UNK N   1      27.687  18.646   6.045  0.00  0.00     0.037 A 
HETATM   17  C   UNK N   1      26.589  18.191   5.317  0.00  0.00     0.010 A 
BRANCH  15  18
HETATM   18  O   UNK N   1      29.593  18.220   7.379  0.00  0.00    -0.352 OA
BRANCH  18  19
HETATM   19  C   UNK N   1      30.050  17.664   8.551  0.00  0.00     0.171 C 
HETATM   20  C   UNK N   1      29.565  18.501   9.717  0.00  0.00     0.034 C 
ENDBRANCH  18  19
ENDBRANCH  15  18
ENDBRANCH  11  12
ENDBRANCH   4  11
BRANCH   1  21
HETATM   21  C   UNK N   1      22.709  18.429   5.020  0.00  0.00     0.161 C 
BRANCH  21  22
HETATM   22  C   UNK N   1      22.039  18.497   3.651  0.00  0.00     0.292 C 
BRANCH  22  23
HETATM   23  N   UNK N   1      20.668  18.999   3.740  0.00  0.00     0.089 N 
BRANCH  23  24
HETATM   24  C   UNK N   1      19.819  18.090   2.977  0.00  0.00     0.268 C 
HETATM   25  C   UNK N   1      19.621  16.782   3.722  0.00  0.00     0.037 C 
ENDBRANCH  23  24
BRANCH  23  26
HETATM   26  C   UNK N   1      20.559  20.368   3.203  0.00  0.00     0.268 C 
HETATM   27  C   UNK N   1      20.782  20.450   1.694  0.00  0.00     0.037 C 
ENDBRANCH  23  26
ENDBRANCH  22  23
ENDBRANCH  21  22
ENDBRANCH   1  21
BRANCH   9  28
HETATM   28  N   UNK N   1      20.298  14.293   9.549  0.00  0.00    -0.116 N 
HETATM   29  O   UNK N   1      19.016  14.432   9.816  0.00  0.00    -0.532 OA
HETATM   30  O   UNK N   1      20.970  13.595  10.246  0.00  0.00    -0.532 OA
ENDBRANCH   9  28
TORSDOF 10
ENDMDL
MODEL 6
REMARK VINA RESULT:      -6.0      2.235      7.247
REMARK  10 active torsions:
REMARK  status: ('A' for Active; 'I' for Inactive)
REMARK    1  A    between atoms: O_1  and  C_28 
REMARK    2  A    between atoms: O_1  and  C_29 
REMARK    3  A    between atoms: N_4  and  C_9 
REMARK    4  A    between atoms: N_5  and  C_10 
REMARK    5  A    between atoms: N_5  and  C_15 
REMARK    6  A    between atoms: N_5  and  C_16 
REMARK    7  A    between atoms: N_8  and  C_20 
REMARK    8  A    between atoms: C_9  and  C_10 
REMARK    9  A    between atoms: C_11  and  C_14 
REMARK   10  A    between atoms: C_14  and  C_18 
ROOT
HETATM    1  N   UNK N   1      35.272  13.354  10.928  0.00  0.00    -0.333 N 
HETATM    2  N   UNK N   1      36.591  15.105  11.475  0.00  0.00    -0.344 N 
ATOM      3  HN  UNK N   1      37.326  15.669  11.902  1.00  0.00     0.167 HD
HETATM    4  C   UNK N   1      36.359  13.774  11.641  0.00  0.00     0.088 A 
HETATM    5  C   UNK N   1      34.837  14.458  10.296  0.00  0.00     0.062 A 
HETATM    6  C   UNK N   1      35.635  15.507  10.628  0.00  0.00     0.063 A 
HETATM    7  C   UNK N   1      33.784  14.591   9.392  0.00  0.00     0.034 A 
HETATM    8  C   UNK N   1      35.473  16.770  10.075  0.00  0.00     0.068 A 
HETATM    9  C   UNK N   1      34.434  16.950   9.135  0.00  0.00     0.105 A 
HETATM   10  C   UNK N   1      33.588  15.857   8.807  0.00  0.00     0.038 A 
ENDROOT
BRANCH   4  11
HETATM   11  C   UNK N   1      37.279  12.884  12.441  0.00  0.00     0.115 C 
BRANCH  11  12
HETATM   12  C   UNK N   1      36.742  12.563  13.808  0.00  0.00    -0.051 A 
HETATM   13  C   UNK N   1      35.895  13.464  14.462  0.00  0.00     0.010 A 
HETATM   14  C   UNK N   1      35.404  13.166  15.741  0.00  0.00     0.037 A 
HETATM   15  C   UNK N   1      35.772  11.966  16.379  0.00  0.00     0.068 A 
HETATM   16  C   UNK N   1      36.613  11.068  15.717  0.00  0.00     0.037 A 
HETATM   17  C   UNK N   1      37.084  11.357  14.437  0.00  0.00     0.010 A 
BRANCH  15  18
HETATM   18  O   UNK N   1      35.338  11.652  17.622  0.00  0.00    -0.352 OA
BRANCH  18  19
HETATM   19  C   UNK N   1      35.201  12.569  18.638  0.00  0.00     0.171 C 
HETATM   20  C   UNK N   1      35.389  11.866  19.967  0.00  0.00     0.034 C 
ENDBRANCH  18  19
ENDBRANCH  15  18
ENDBRANCH  11  12
ENDBRANCH   4  11
BRANCH   1  21
HETATM   21  C   UNK N   1      34.665  12.029  10.749  0.00  0.00     0.161 C 
BRANCH  21  22
HETATM   22  C   UNK N   1      35.244  11.183   9.619  0.00  0.00     0.292 C 
BRANCH  22  23
HETATM   23  N   UNK N   1      35.841   9.944  10.115  0.00  0.00     0.089 N 
BRANCH  23  24
HETATM   24  C   UNK N   1      35.389   9.761  11.491  0.00  0.00     0.268 C 
HETATM   25  C   UNK N   1      34.475   8.554  11.603  0.00  0.00     0.037 C 
ENDBRANCH  23  24
BRANCH  23  26
HETATM   26  C   UNK N   1      37.314   9.997  10.066  0.00  0.00     0.268 C 
HETATM   27  C   UNK N   1      37.985   9.461  11.329  0.00  0.00     0.037 C 
ENDBRANCH  23  26
ENDBRANCH  22  23
ENDBRANCH  21  22
ENDBRANCH   1  21
BRANCH   9  28
HETATM   28  N   UNK N   1      34.265  18.206   8.489  0.00  0.00    -0.116 N 
HETATM   29  O   UNK N   1      35.235  19.097   8.511  0.00  0.00    -0.532 OA
HETATM   30  O   UNK N   1      33.223  18.486   7.979  0.00  0.00    -0.532 OA
ENDBRANCH   9  28
TORSDOF 10
ENDMDL
MODEL 7
REMARK VINA RESULT:      -6.0     13.158     15.844
REMARK  10 active torsions:
REMARK  status: ('A' for Active; 'I' for Inactive)
REMARK    1  A    between atoms: O_1  and  C_28 
REMARK    2  A    between atoms: O_1  and  C_29 
REMARK    3  A    between atoms: N_4  and  C_9 
REMARK    4  A    between atoms: N_5  and  C_10 
REMARK    5  A    between atoms: N_5  and  C_15 
REMARK    6  A    between atoms: N_5  and  C_16 
REMARK    7  A    between atoms: N_8  and  C_20 
REMARK    8  A    between atoms: C_9  and  C_10 
REMARK    9  A    between atoms: C_11  and  C_14 
REMARK   10  A    between atoms: C_14  and  C_18 
ROOT
HETATM    1  N   UNK N   1      22.070  16.488   5.800  0.00  0.00    -0.333 N 
HETATM    2  N   UNK N   1      23.349  14.635   5.987  0.00  0.00    -0.344 N 
ATOM      3  HN  UNK N   1      24.050  13.918   5.800  1.00  0.00     0.167 HD
HETATM    4  C   UNK N   1      23.098  15.762   5.266  0.00  0.00     0.088 A 
HETATM    5  C   UNK N   1      21.693  15.791   6.885  0.00  0.00     0.062 A 
HETATM    6  C   UNK N   1      22.467  14.679   6.993  0.00  0.00     0.063 A 
HETATM    7  C   UNK N   1      20.717  16.104   7.831  0.00  0.00     0.034 A 
HETATM    8  C   UNK N   1      22.356  13.796   8.058  0.00  0.00     0.068 A 
HETATM    9  C   UNK N   1      21.398  14.082   9.056  0.00  0.00     0.105 A 
HETATM   10  C   UNK N   1      20.575  15.233   8.929  0.00  0.00     0.038 A 
ENDROOT
BRANCH   4  11
HETATM   11  C   UNK N   1      23.946  16.179   4.089  0.00  0.00     0.115 C 
BRANCH  11  12
HETATM   12  C   UNK N   1      24.910  17.284   4.423  0.00  0.00    -0.051 A 
HETATM   13  C   UNK N   1      24.739  18.559   3.872  0.00  0.00     0.010 A 
HETATM   14  C   UNK N   1      25.644  19.583   4.178  0.00  0.00     0.037 A 
HETATM   15  C   UNK N   1      26.738  19.332   5.030  0.00  0.00     0.068 A 
HETATM   16  C   UNK N   1      26.898  18.059   5.581  0.00  0.00     0.037 A 
HETATM   17  C   UNK N   1      25.985  17.046   5.292  0.00  0.00     0.010 A 
BRANCH  15  18
HETATM   18  O   UNK N   1      27.648  20.289   5.331  0.00  0.00    -0.352 OA
BRANCH  18  19
HETATM   19  C   UNK N   1      27.322  21.512   5.868  0.00  0.00     0.171 C 
HETATM   20  C   UNK N   1      26.486  21.298   7.114  0.00  0.00     0.034 C 
ENDBRANCH  18  19
ENDBRANCH  15  18
ENDBRANCH  11  12
ENDBRANCH   4  11
BRANCH   1  21
HETATM   21  C   UNK N   1      21.473  17.775   5.418  0.00  0.00     0.161 C 
BRANCH  21  22
HETATM   22  C   UNK N   1      20.531  17.736   4.218  0.00  0.00     0.292 C 
BRANCH  22  23
HETATM   23  N   UNK N   1      21.126  18.361   3.037  0.00  0.00     0.089 N 
BRANCH  23  24
HETATM   24  C   UNK N   1      21.309  19.778   3.337  0.00  0.00     0.268 C 
HETATM   25  C   UNK N   1      20.864  20.639   2.169  0.00  0.00     0.037 C 
ENDBRANCH  23  24
BRANCH  23  26
HETATM   26  C   UNK N   1      20.266  18.198   1.851  0.00  0.00     0.268 C 
HETATM   27  C   UNK N   1      20.236  16.770   1.312  0.00  0.00     0.037 C 
ENDBRANCH  23  26
ENDBRANCH  22  23
ENDBRANCH  21  22
ENDBRANCH   1  21
BRANCH   9  28
HETATM   28  N   UNK N   1      21.288  13.246  10.202  0.00  0.00    -0.116 N 
HETATM   29  O   UNK N   1      20.101  12.900  10.656  0.00  0.00    -0.532 OA
HETATM   30  O   UNK N   1      22.266  12.906  10.796  0.00  0.00    -0.532 OA
ENDBRANCH   9  28
TORSDOF 10
ENDMDL
MODEL 8
REMARK VINA RESULT:      -6.0      1.531      2.406
REMARK  10 active torsions:
REMARK  status: ('A' for Active; 'I' for Inactive)
REMARK    1  A    between atoms: O_1  and  C_28 
REMARK    2  A    between atoms: O_1  and  C_29 
REMARK    3  A    between atoms: N_4  and  C_9 
REMARK    4  A    between atoms: N_5  and  C_10 
REMARK    5  A    between atoms: N_5  and  C_15 
REMARK    6  A    between atoms: N_5  and  C_16 
REMARK    7  A    between atoms: N_8  and  C_20 
REMARK    8  A    between atoms: C_9  and  C_10 
REMARK    9  A    between atoms: C_11  and  C_14 
REMARK   10  A    between atoms: C_14  and  C_18 
ROOT
HETATM    1  N   UNK N   1      35.459  12.426  12.967  0.00  0.00    -0.333 N 
HETATM    2  N   UNK N   1      36.918  14.060  13.520  0.00  0.00    -0.344 N 
ATOM      3  HN  UNK N   1      37.640  14.777  13.456  1.00  0.00     0.167 HD
HETATM    4  C   UNK N   1      36.401  13.305  12.512  0.00  0.00     0.088 A 
HETATM    5  C   UNK N   1      35.388  12.661  14.288  0.00  0.00     0.062 A 
HETATM    6  C   UNK N   1      36.266  13.646  14.614  0.00  0.00     0.063 A 
HETATM    7  C   UNK N   1      34.549  12.079  15.237  0.00  0.00     0.034 A 
HETATM    8  C   UNK N   1      36.371  14.153  15.902  0.00  0.00     0.068 A 
HETATM    9  C   UNK N   1      35.523  13.613  16.895  0.00  0.00     0.105 A 
HETATM   10  C   UNK N   1      34.622  12.568  16.556  0.00  0.00     0.038 A 
ENDROOT
BRANCH   4  11
HETATM   11  C   UNK N   1      36.773  13.520  11.065  0.00  0.00     0.115 C 
BRANCH  11  12
HETATM   12  C   UNK N   1      36.092  14.716  10.456  0.00  0.00    -0.051 A 
HETATM   13  C   UNK N   1      35.968  15.903  11.185  0.00  0.00     0.010 A 
HETATM   14  C   UNK N   1      35.324  17.011  10.618  0.00  0.00     0.037 A 
HETATM   15  C   UNK N   1      34.787  16.931   9.318  0.00  0.00     0.068 A 
HETATM   16  C   UNK N   1      34.920  15.744   8.595  0.00  0.00     0.037 A 
HETATM   17  C   UNK N   1      35.579  14.649   9.153  0.00  0.00     0.010 A 
BRANCH  15  18
HETATM   18  O   UNK N   1      34.138  17.971   8.744  0.00  0.00    -0.352 OA
BRANCH  18  19
HETATM   19  C   UNK N   1      33.163  17.828   7.785  0.00  0.00     0.171 C 
HETATM   20  C   UNK N   1      31.806  17.806   8.458  0.00  0.00     0.034 C 
ENDBRANCH  18  19
ENDBRANCH  15  18
ENDBRANCH  11  12
ENDBRANCH   4  11
BRANCH   1  21
HETATM   21  C   UNK N   1      34.603  11.455  12.271  0.00  0.00     0.161 C 
BRANCH  21  22
HETATM   22  C   UNK N   1      35.303  10.194  11.774  0.00  0.00     0.292 C 
BRANCH  22  23
HETATM   23  N   UNK N   1      35.013   9.929  10.366  0.00  0.00     0.089 N 
BRANCH  23  24
HETATM   24  C   UNK N   1      36.240  10.169   9.613  0.00  0.00     0.268 C 
HETATM   25  C   UNK N   1      37.399   9.389  10.207  0.00  0.00     0.037 C 
ENDBRANCH  23  24
BRANCH  23  26
HETATM   26  C   UNK N   1      33.930  10.796   9.865  0.00  0.00     0.268 C 
HETATM   27  C   UNK N   1      34.170  11.311   8.448  0.00  0.00     0.037 C 
ENDBRANCH  23  26
ENDBRANCH  22  23
ENDBRANCH  21  22
ENDBRANCH   1  21
BRANCH   9  28
HETATM   28  N   UNK N   1      35.542  14.141  18.216  0.00  0.00    -0.116 N 
HETATM   29  O   UNK N   1      35.199  13.384  19.236  0.00  0.00    -0.532 OA
HETATM   30  O   UNK N   1      35.807  15.291  18.401  0.00  0.00    -0.532 OA
ENDBRANCH   9  28
TORSDOF 10
ENDMDL
MODEL 9
REMARK VINA RESULT:      -5.9     19.146     22.951
REMARK  10 active torsions:
REMARK  status: ('A' for Active; 'I' for Inactive)
REMARK    1  A    between atoms: O_1  and  C_28 
REMARK    2  A    between atoms: O_1  and  C_29 
REMARK    3  A    between atoms: N_4  and  C_9 
REMARK    4  A    between atoms: N_5  and  C_10 
REMARK    5  A    between atoms: N_5  and  C_15 
REMARK    6  A    between atoms: N_5  and  C_16 
REMARK    7  A    between atoms: N_8  and  C_20 
REMARK    8  A    between atoms: C_9  and  C_10 
REMARK    9  A    between atoms: C_11  and  C_14 
REMARK   10  A    between atoms: C_14  and  C_18 
ROOT
HETATM    1  N   UNK N   1      28.444  23.400  -5.519  0.00  0.00    -0.333 N 
HETATM    2  N   UNK N   1      28.569  23.577  -3.269  0.00  0.00    -0.344 N 
ATOM      3  HN  UNK N   1      28.339  23.796  -2.300  1.00  0.00     0.167 HD
HETATM    4  C   UNK N   1      27.812  23.808  -4.377  0.00  0.00     0.088 A 
HETATM    5  C   UNK N   1      29.613  22.891  -5.093  0.00  0.00     0.062 A 
HETATM    6  C   UNK N   1      29.681  22.998  -3.740  0.00  0.00     0.063 A 
HETATM    7  C   UNK N   1      30.626  22.286  -5.835  0.00  0.00     0.034 A 
HETATM    8  C   UNK N   1      30.746  22.494  -3.005  0.00  0.00     0.068 A 
HETATM    9  C   UNK N   1      31.787  21.850  -3.711  0.00  0.00     0.105 A 
HETATM   10  C   UNK N   1      31.723  21.759  -5.127  0.00  0.00     0.038 A 
ENDROOT
BRANCH   4  11
HETATM   11  C   UNK N   1      26.407  24.353  -4.301  0.00  0.00     0.115 C 
BRANCH  11  12
HETATM   12  C   UNK N   1      26.359  25.856  -4.343  0.00  0.00    -0.051 A 
HETATM   13  C   UNK N   1      26.211  26.522  -5.564  0.00  0.00     0.010 A 
HETATM   14  C   UNK N   1      26.176  27.923  -5.600  0.00  0.00     0.037 A 
HETATM   15  C   UNK N   1      26.304  28.666  -4.410  0.00  0.00     0.068 A 
HETATM   16  C   UNK N   1      26.445  27.993  -3.195  0.00  0.00     0.037 A 
HETATM   17  C   UNK N   1      26.459  26.600  -3.158  0.00  0.00     0.010 A 
BRANCH  15  18
HETATM   18  O   UNK N   1      26.299  30.020  -4.405  0.00  0.00    -0.352 OA
BRANCH  18  19
HETATM   19  C   UNK N   1      27.435  30.789  -4.493  0.00  0.00     0.171 C 
HETATM   20  C   UNK N   1      28.462  30.059  -5.336  0.00  0.00     0.034 C 
ENDBRANCH  18  19
ENDBRANCH  15  18
ENDBRANCH  11  12
ENDBRANCH   4  11
BRANCH   1  21
HETATM   21  C   UNK N   1      28.025  23.395  -6.926  0.00  0.00     0.161 C 
BRANCH  21  22
HETATM   22  C   UNK N   1      27.239  22.167  -7.377  0.00  0.00     0.292 C 
BRANCH  22  23
HETATM   23  N   UNK N   1      26.225  22.504  -8.374  0.00  0.00     0.089 N 
BRANCH  23  24
HETATM   24  C   UNK N   1      25.695  23.821  -8.031  0.00  0.00     0.268 C 
HETATM   25  C   UNK N   1      25.347  24.606  -9.283  0.00  0.00     0.037 C 
ENDBRANCH  23  24
BRANCH  23  26
HETATM   26  C   UNK N   1      25.138  21.508  -8.397  0.00  0.00     0.268 C 
HETATM   27  C   UNK N   1      24.440  21.338  -7.050  0.00  0.00     0.037 C 
ENDBRANCH  23  26
ENDBRANCH  22  23
ENDBRANCH  21  22
ENDBRANCH   1  21
BRANCH   9  28
HETATM   28  N   UNK N   1      32.869  21.257  -3.002  0.00  0.00    -0.116 N 
HETATM   29  O   UNK N   1      33.788  20.573  -3.651  0.00  0.00    -0.532 OA
HETATM   30  O   UNK N   1      32.917  21.322  -1.811  0.00  0.00    -0.532 OA
ENDBRANCH   9  28
TORSDOF 10
ENDMDL
