MODEL 1
REMARK VINA RESULT:      -5.7      0.000      0.000
REMARK  3 active torsions:
REMARK  status: ('A' for Active; 'I' for Inactive)
REMARK    1  A    between atoms: N_1  and  C_5 
REMARK    2  A    between atoms: N_1  and  C_10 
REMARK    3  A    between atoms: C_4  and  C_9 
ROOT
HETATM    1  C   UNK N   1      26.105  26.558  -4.696  0.00  0.00    -0.004 C 
HETATM    2  C   UNK N   1      25.593  26.288  -6.877  0.00  0.00     0.009 C 
HETATM    3  C   UNK N   1      26.211  25.046  -4.917  0.00  0.00     0.045 C 
HETATM    4  C   UNK N   1      26.085  24.902  -6.437  0.00  0.00     0.089 C 
HETATM    5  C   UNK N   1      24.943  26.825  -5.619  0.00  0.00     0.012 C 
HETATM    6  C   UNK N   1      27.230  27.295  -5.432  0.00  0.00     0.006 C 
HETATM    7  C   UNK N   1      26.840  27.165  -6.907  0.00  0.00     0.007 C 
ENDROOT
BRANCH   3   8
HETATM    8  C   UNK N   1      27.354  24.275  -4.324  0.00  0.00    -0.052 A 
HETATM    9  C   UNK N   1      27.375  24.058  -2.939  0.00  0.00     0.007 A 
HETATM   10  C   UNK N   1      28.436  23.372  -2.346  0.00  0.00     0.001 A 
HETATM   11  C   UNK N   1      29.486  22.893  -3.135  0.00  0.00     0.000 A 
HETATM   12  C   UNK N   1      29.473  23.105  -4.518  0.00  0.00     0.001 A 
HETATM   13  C   UNK N   1      28.415  23.800  -5.110  0.00  0.00     0.007 A 
ENDBRANCH   3   8
BRANCH   4  14
HETATM   14  N   UNK N   1      25.238  23.782  -6.853  0.00  0.00    -0.416 N 
HETATM   15  H   UNK N   1      24.267  23.665  -6.562  0.00  0.00     0.153 HD
BRANCH  14  16
HETATM   16  C   UNK N   1      25.940  22.855  -7.731  0.00  0.00     0.110 C 
HETATM   17  C   UNK N   1      25.153  21.564  -7.815  0.00  0.00     0.026 C 
ENDBRANCH  14  16
ENDBRANCH   4  14
TORSDOF 3
ENDMDL
MODEL 2
REMARK VINA RESULT:      -5.6     13.680     15.894
REMARK  3 active torsions:
REMARK  status: ('A' for Active; 'I' for Inactive)
REMARK    1  A    between atoms: N_1  and  C_5 
REMARK    2  A    between atoms: N_1  and  C_10 
REMARK    3  A    between atoms: C_4  and  C_9 
ROOT
HETATM    1  C   UNK N   1      31.392  16.179   5.215  0.00  0.00    -0.004 C 
HETATM    2  C   UNK N   1      33.602  16.537   5.500  0.00  0.00     0.009 C 
HETATM    3  C   UNK N   1      31.557  16.294   6.734  0.00  0.00     0.045 C 
HETATM    4  C   UNK N   1      33.007  16.758   6.899  0.00  0.00     0.089 C 
HETATM    5  C   UNK N   1      32.693  15.477   4.916  0.00  0.00     0.012 C 
HETATM    6  C   UNK N   1      31.636  17.534   4.539  0.00  0.00     0.006 C 
HETATM    7  C   UNK N   1      33.148  17.738   4.678  0.00  0.00     0.007 C 
ENDROOT
BRANCH   3   8
HETATM    8  C   UNK N   1      30.569  17.083   7.543  0.00  0.00    -0.052 A 
HETATM    9  C   UNK N   1      29.208  17.002   7.213  0.00  0.00     0.007 A 
HETATM   10  C   UNK N   1      28.263  17.745   7.921  0.00  0.00     0.001 A 
HETATM   11  C   UNK N   1      28.669  18.573   8.971  0.00  0.00     0.000 A 
HETATM   12  C   UNK N   1      30.024  18.660   9.307  0.00  0.00     0.001 A 
HETATM   13  C   UNK N   1      30.973  17.924   8.592  0.00  0.00     0.007 A 
ENDBRANCH   3   8
BRANCH   4  14
HETATM   14  N   UNK N   1      33.719  16.087   7.988  0.00  0.00    -0.416 N 
HETATM   15  H   UNK N   1      33.682  15.081   8.158  0.00  0.00     0.153 HD
BRANCH  14  16
HETATM   16  C   UNK N   1      34.487  17.020   8.803  0.00  0.00     0.110 C 
HETATM   17  C   UNK N   1      34.457  18.385   8.150  0.00  0.00     0.026 C 
ENDBRANCH  14  16
ENDBRANCH   4  14
TORSDOF 3
ENDMDL
MODEL 3
REMARK VINA RESULT:      -5.6     22.880     26.167
REMARK  3 active torsions:
REMARK  status: ('A' for Active; 'I' for Inactive)
REMARK    1  A    between atoms: N_1  and  C_5 
REMARK    2  A    between atoms: N_1  and  C_10 
REMARK    3  A    between atoms: C_4  and  C_9 
ROOT
HETATM    1  C   UNK N   1      35.361   9.927  15.241  0.00  0.00    -0.004 C 
HETATM    2  C   UNK N   1      35.345  11.061  13.290  0.00  0.00     0.009 C 
HETATM    3  C   UNK N   1      36.067  11.246  15.573  0.00  0.00     0.045 C 
HETATM    4  C   UNK N   1      35.849  12.090  14.313  0.00  0.00     0.089 C 
HETATM    5  C   UNK N   1      35.884   9.756  13.837  0.00  0.00     0.012 C 
HETATM    6  C   UNK N   1      33.872  10.162  14.965  0.00  0.00     0.006 C 
HETATM    7  C   UNK N   1      33.866  10.872  13.607  0.00  0.00     0.007 C 
ENDROOT
BRANCH   3   8
HETATM    8  C   UNK N   1      35.755  11.968  16.850  0.00  0.00    -0.052 A 
HETATM    9  C   UNK N   1      35.709  11.236  18.046  0.00  0.00     0.007 A 
HETATM   10  C   UNK N   1      35.392  11.866  19.250  0.00  0.00     0.001 A 
HETATM   11  C   UNK N   1      35.122  13.237  19.271  0.00  0.00     0.000 A 
HETATM   12  C   UNK N   1      35.165  13.976  18.084  0.00  0.00     0.001 A 
HETATM   13  C   UNK N   1      35.472  13.343  16.876  0.00  0.00     0.007 A 
ENDBRANCH   3   8
BRANCH   4  14
HETATM   14  N   UNK N   1      37.033  12.845  13.899  0.00  0.00    -0.416 N 
HETATM   15  H   UNK N   1      37.882  12.924  14.459  0.00  0.00     0.153 HD
BRANCH  14  16
HETATM   16  C   UNK N   1      36.860  13.473  12.595  0.00  0.00     0.110 C 
HETATM   17  C   UNK N   1      35.991  14.703  12.752  0.00  0.00     0.026 C 
ENDBRANCH  14  16
ENDBRANCH   4  14
TORSDOF 3
ENDMDL
MODEL 4
REMARK VINA RESULT:      -5.5     24.499     26.845
REMARK  3 active torsions:
REMARK  status: ('A' for Active; 'I' for Inactive)
REMARK    1  A    between atoms: N_1  and  C_5 
REMARK    2  A    between atoms: N_1  and  C_10 
REMARK    3  A    between atoms: C_4  and  C_9 
ROOT
HETATM    1  C   UNK N   1      34.689   9.888  15.357  0.00  0.00    -0.004 C 
HETATM    2  C   UNK N   1      35.664  10.753  13.515  0.00  0.00     0.009 C 
HETATM    3  C   UNK N   1      35.811  10.770  15.912  0.00  0.00     0.045 C 
HETATM    4  C   UNK N   1      36.315  11.521  14.676  0.00  0.00     0.089 C 
HETATM    5  C   UNK N   1      35.401   9.392  14.124  0.00  0.00     0.012 C 
HETATM    6  C   UNK N   1      33.586  10.745  14.724  0.00  0.00     0.006 C 
HETATM    7  C   UNK N   1      34.234  11.275  13.441  0.00  0.00     0.007 C 
ENDROOT
BRANCH   3   8
HETATM    8  C   UNK N   1      35.561  11.652  17.100  0.00  0.00    -0.052 A 
HETATM    9  C   UNK N   1      35.367  13.025  16.893  0.00  0.00     0.007 A 
HETATM   10  C   UNK N   1      35.162  13.883  17.975  0.00  0.00     0.001 A 
HETATM   11  C   UNK N   1      35.144  13.372  19.276  0.00  0.00     0.000 A 
HETATM   12  C   UNK N   1      35.336  12.004  19.492  0.00  0.00     0.001 A 
HETATM   13  C   UNK N   1      35.552  11.147  18.410  0.00  0.00     0.007 A 
ENDBRANCH   3   8
BRANCH   4  14
HETATM   14  N   UNK N   1      37.774  11.629  14.606  0.00  0.00    -0.416 N 
HETATM   15  H   UNK N   1      38.313  12.358  15.074  0.00  0.00     0.153 HD
BRANCH  14  16
HETATM   16  C   UNK N   1      38.367  10.576  13.792  0.00  0.00     0.110 C 
HETATM   17  C   UNK N   1      39.097   9.606  14.696  0.00  0.00     0.026 C 
ENDBRANCH  14  16
ENDBRANCH   4  14
TORSDOF 3
ENDMDL
MODEL 5
REMARK VINA RESULT:      -5.3     23.744     26.093
REMARK  3 active torsions:
REMARK  status: ('A' for Active; 'I' for Inactive)
REMARK    1  A    between atoms: N_1  and  C_5 
REMARK    2  A    between atoms: N_1  and  C_10 
REMARK    3  A    between atoms: C_4  and  C_9 
ROOT
HETATM    1  C   UNK N   1      35.875  13.694  14.960  0.00  0.00    -0.004 C 
HETATM    2  C   UNK N   1      35.840  12.101  13.362  0.00  0.00     0.009 C 
HETATM    3  C   UNK N   1      34.974  12.601  15.545  0.00  0.00     0.045 C 
HETATM    4  C   UNK N   1      35.141  11.441  14.560  0.00  0.00     0.089 C 
HETATM    5  C   UNK N   1      35.459  13.558  13.517  0.00  0.00     0.012 C 
HETATM    6  C   UNK N   1      37.329  13.216  14.885  0.00  0.00     0.006 C 
HETATM    7  C   UNK N   1      37.311  12.184  13.753  0.00  0.00     0.007 C 
ENDROOT
BRANCH   3   8
HETATM    8  C   UNK N   1      35.111  12.202  16.985  0.00  0.00    -0.052 A 
HETATM    9  C   UNK N   1      35.061  13.199  17.970  0.00  0.00     0.007 A 
HETATM   10  C   UNK N   1      35.215  12.872  19.318  0.00  0.00     0.001 A 
HETATM   11  C   UNK N   1      35.416  11.541  19.694  0.00  0.00     0.000 A 
HETATM   12  C   UNK N   1      35.468  10.540  18.719  0.00  0.00     0.001 A 
HETATM   13  C   UNK N   1      35.324  10.868  17.369  0.00  0.00     0.007 A 
ENDBRANCH   3   8
BRANCH   4  14
HETATM   14  N   UNK N   1      33.887  10.753  14.244  0.00  0.00    -0.416 N 
HETATM   15  H   UNK N   1      33.116  10.644  14.903  0.00  0.00     0.153 HD
BRANCH  14  16
HETATM   16  C   UNK N   1      33.867  10.242  12.879  0.00  0.00     0.110 C 
HETATM   17  C   UNK N   1      34.773   9.032  12.792  0.00  0.00     0.026 C 
ENDBRANCH  14  16
ENDBRANCH   4  14
TORSDOF 3
ENDMDL
MODEL 6
REMARK VINA RESULT:      -5.3     11.207     13.872
REMARK  3 active torsions:
REMARK  status: ('A' for Active; 'I' for Inactive)
REMARK    1  A    between atoms: N_1  and  C_5 
REMARK    2  A    between atoms: N_1  and  C_10 
REMARK    3  A    between atoms: C_4  and  C_9 
ROOT
HETATM    1  C   UNK N   1      29.570  16.071   4.832  0.00  0.00    -0.004 C 
HETATM    2  C   UNK N   1      27.981  17.027   3.547  0.00  0.00     0.009 C 
HETATM    3  C   UNK N   1      29.418  17.479   5.416  0.00  0.00     0.045 C 
HETATM    4  C   UNK N   1      28.189  18.033   4.688  0.00  0.00     0.089 C 
HETATM    5  C   UNK N   1      29.358  16.422   3.381  0.00  0.00     0.012 C 
HETATM    6  C   UNK N   1      28.318  15.230   5.109  0.00  0.00     0.006 C 
HETATM    7  C   UNK N   1      27.262  15.843   4.183  0.00  0.00     0.007 C 
ENDROOT
BRANCH   3   8
HETATM    8  C   UNK N   1      29.387  17.680   6.902  0.00  0.00    -0.052 A 
HETATM    9  C   UNK N   1      30.574  17.517   7.631  0.00  0.00     0.007 A 
HETATM   10  C   UNK N   1      30.579  17.665   9.019  0.00  0.00     0.001 A 
HETATM   11  C   UNK N   1      29.396  17.983   9.692  0.00  0.00     0.000 A 
HETATM   12  C   UNK N   1      28.207  18.147   8.974  0.00  0.00     0.001 A 
HETATM   13  C   UNK N   1      28.200  17.989   7.585  0.00  0.00     0.007 A 
ENDBRANCH   3   8
BRANCH   4  14
HETATM   14  N   UNK N   1      28.335  19.428   4.265  0.00  0.00    -0.416 N 
HETATM   15  H   UNK N   1      29.169  19.800   3.812  0.00  0.00     0.153 HD
BRANCH  14  16
HETATM   16  C   UNK N   1      27.152  20.223   4.568  0.00  0.00     0.110 C 
HETATM   17  C   UNK N   1      27.438  21.093   5.774  0.00  0.00     0.026 C 
ENDBRANCH  14  16
ENDBRANCH   4  14
TORSDOF 3
ENDMDL
MODEL 7
REMARK VINA RESULT:      -5.3      2.369      4.116
REMARK  3 active torsions:
REMARK  status: ('A' for Active; 'I' for Inactive)
REMARK    1  A    between atoms: N_1  and  C_5 
REMARK    2  A    between atoms: N_1  and  C_10 
REMARK    3  A    between atoms: C_4  and  C_9 
ROOT
HETATM    1  C   UNK N   1      27.316  26.830  -5.970  0.00  0.00    -0.004 C 
HETATM    2  C   UNK N   1      25.570  27.847  -4.967  0.00  0.00     0.009 C 
HETATM    3  C   UNK N   1      27.663  26.778  -4.479  0.00  0.00     0.045 C 
HETATM    4  C   UNK N   1      26.379  27.263  -3.800  0.00  0.00     0.089 C 
HETATM    5  C   UNK N   1      26.642  28.179  -5.982  0.00  0.00     0.012 C 
HETATM    6  C   UNK N   1      26.127  25.914  -6.283  0.00  0.00     0.006 C 
HETATM    7  C   UNK N   1      24.935  26.645  -5.656  0.00  0.00     0.007 C 
ENDROOT
BRANCH   3   8
HETATM    8  C   UNK N   1      28.234  25.526  -3.880  0.00  0.00    -0.052 A 
HETATM    9  C   UNK N   1      27.363  24.609  -3.275  0.00  0.00     0.007 A 
HETATM   10  C   UNK N   1      27.859  23.448  -2.680  0.00  0.00     0.001 A 
HETATM   11  C   UNK N   1      29.232  23.191  -2.688  0.00  0.00     0.000 A 
HETATM   12  C   UNK N   1      30.109  24.100  -3.289  0.00  0.00     0.001 A 
HETATM   13  C   UNK N   1      29.614  25.268  -3.876  0.00  0.00     0.007 A 
ENDBRANCH   3   8
BRANCH   4  14
HETATM   14  N   UNK N   1      26.614  28.184  -2.686  0.00  0.00    -0.416 N 
HETATM   15  H   UNK N   1      25.981  28.292  -1.893  0.00  0.00     0.153 HD
BRANCH  14  16
HETATM   16  C   UNK N   1      27.856  28.932  -2.841  0.00  0.00     0.110 C 
HETATM   17  C   UNK N   1      28.044  29.830  -1.637  0.00  0.00     0.026 C 
ENDBRANCH  14  16
ENDBRANCH   4  14
TORSDOF 3
ENDMDL
MODEL 8
REMARK VINA RESULT:      -5.3     14.751     16.876
REMARK  3 active torsions:
REMARK  status: ('A' for Active; 'I' for Inactive)
REMARK    1  A    between atoms: N_1  and  C_5 
REMARK    2  A    between atoms: N_1  and  C_10 
REMARK    3  A    between atoms: C_4  and  C_9 
ROOT
HETATM    1  C   UNK N   1      33.181  17.579   6.798  0.00  0.00    -0.004 C 
HETATM    2  C   UNK N   1      34.155  15.984   8.063  0.00  0.00     0.009 C 
HETATM    3  C   UNK N   1      32.010  16.707   7.262  0.00  0.00     0.045 C 
HETATM    4  C   UNK N   1      32.651  15.773   8.292  0.00  0.00     0.089 C 
HETATM    5  C   UNK N   1      34.206  16.485   6.635  0.00  0.00     0.012 C 
HETATM    6  C   UNK N   1      33.779  18.357   7.977  0.00  0.00     0.006 C 
HETATM    7  C   UNK N   1      34.495  17.277   8.794  0.00  0.00     0.007 C 
ENDROOT
BRANCH   3   8
HETATM    8  C   UNK N   1      30.734  17.343   7.728  0.00  0.00    -0.052 A 
HETATM    9  C   UNK N   1      29.676  17.481   6.817  0.00  0.00     0.007 A 
HETATM   10  C   UNK N   1      28.484  18.096   7.203  0.00  0.00     0.001 A 
HETATM   11  C   UNK N   1      28.337  18.574   8.508  0.00  0.00     0.000 A 
HETATM   12  C   UNK N   1      29.386  18.441   9.424  0.00  0.00     0.001 A 
HETATM   13  C   UNK N   1      30.583  17.835   9.034  0.00  0.00     0.007 A 
ENDBRANCH   3   8
BRANCH   4  14
HETATM   14  N   UNK N   1      32.198  14.384   8.190  0.00  0.00    -0.416 N 
HETATM   15  H   UNK N   1      31.304  14.106   7.785  0.00  0.00     0.153 HD
BRANCH  14  16
HETATM   16  C   UNK N   1      33.170  13.444   8.734  0.00  0.00     0.110 C 
HETATM   17  C   UNK N   1      33.486  12.399   7.685  0.00  0.00     0.026 C 
ENDBRANCH  14  16
ENDBRANCH   4  14
TORSDOF 3
ENDMDL
MODEL 9
REMARK VINA RESULT:      -5.3      1.666      4.337
REMARK  3 active torsions:
REMARK  status: ('A' for Active; 'I' for Inactive)
REMARK    1  A    between atoms: N_1  and  C_5 
REMARK    2  A    between atoms: N_1  and  C_10 
REMARK    3  A    between atoms: C_4  and  C_9 
ROOT
HETATM    1  C   UNK N   1      25.930  26.057  -8.224  0.00  0.00    -0.004 C 
HETATM    2  C   UNK N   1      26.596  24.021  -7.516  0.00  0.00     0.009 C 
HETATM    3  C   UNK N   1      25.791  26.130  -6.700  0.00  0.00     0.045 C 
HETATM    4  C   UNK N   1      26.454  24.835  -6.222  0.00  0.00     0.089 C 
HETATM    5  C   UNK N   1      25.524  24.616  -8.403  0.00  0.00     0.012 C 
HETATM    6  C   UNK N   1      27.406  25.991  -8.631  0.00  0.00     0.006 C 
HETATM    7  C   UNK N   1      27.833  24.581  -8.208  0.00  0.00     0.007 C 
ENDROOT
BRANCH   3   8
HETATM    8  C   UNK N   1      26.241  27.355  -5.959  0.00  0.00    -0.052 A 
HETATM    9  C   UNK N   1      25.576  27.712  -4.776  0.00  0.00     0.007 A 
HETATM   10  C   UNK N   1      25.945  28.861  -4.076  0.00  0.00     0.001 A 
HETATM   11  C   UNK N   1      26.987  29.663  -4.549  0.00  0.00     0.000 A 
HETATM   12  C   UNK N   1      27.656  29.315  -5.727  0.00  0.00     0.001 A 
HETATM   13  C   UNK N   1      27.280  28.170  -6.435  0.00  0.00     0.007 A 
ENDBRANCH   3   8
BRANCH   4  14
HETATM   14  N   UNK N   1      25.725  24.163  -5.144  0.00  0.00    -0.416 N 
HETATM   15  H   UNK N   1      24.835  23.682  -5.273  0.00  0.00     0.153 HD
BRANCH  14  16
HETATM   16  C   UNK N   1      26.416  24.262  -3.864  0.00  0.00     0.110 C 
HETATM   17  C   UNK N   1      27.884  24.530  -4.116  0.00  0.00     0.026 C 
ENDBRANCH  14  16
ENDBRANCH   4  14
TORSDOF 3
ENDMDL
