MODEL 1
REMARK VINA RESULT:      -6.4      0.000      0.000
REMARK  9 active torsions:
REMARK  status: ('A' for Active; 'I' for Inactive)
REMARK    1  A    between atoms: O_1  and  C_13 
REMARK    2  A    between atoms: O_1  and  C_25 
REMARK    3  A    between atoms: O_2  and  C_14 
REMARK    4  A    between atoms: O_2  and  C_19 
REMARK    5  A    between atoms: N_5  and  C_12 
REMARK    6  A    between atoms: C_6  and  C_11 
REMARK    7  A    between atoms: C_6  and  C_13 
REMARK    8  A    between atoms: C_12  and  C_14 
REMARK    9  A    between atoms: C_17  and  C_19 
ROOT
HETATM    1  N   UNK N   1      33.642  14.879   9.708  0.00  0.00    -0.410 N 
HETATM    2  C   UNK N   1      32.956  16.491   7.323  0.00  0.00     0.078 C 
HETATM    3  C   UNK N   1      34.040  16.920   8.323  0.00  0.00     0.044 C 
HETATM    4  C   UNK N   1      32.898  14.953   7.327  0.00  0.00     0.044 C 
HETATM    5  C   UNK N   1      33.823  16.337   9.724  0.00  0.00     0.118 C 
HETATM    6  C   UNK N   1      32.686  14.363   8.722  0.00  0.00     0.118 C 
ENDROOT
BRANCH   2   7
HETATM    7  C   UNK N   1      31.590  17.105   7.694  0.00  0.00    -0.040 A 
HETATM    8  C   UNK N   1      30.403  16.694   7.057  0.00  0.00     0.008 A 
HETATM    9  C   UNK N   1      29.176  17.278   7.387  0.00  0.00     0.001 A 
HETATM   10  C   UNK N   1      29.114  18.281   8.355  0.00  0.00     0.000 A 
HETATM   11  C   UNK N   1      30.277  18.698   9.001  0.00  0.00     0.001 A 
HETATM   12  C   UNK N   1      31.503  18.115   8.672  0.00  0.00     0.008 A 
ENDBRANCH   2   7
BRANCH   2  13
HETATM   13  C   UNK N   1      33.436  16.952   5.951  0.00  0.00     0.272 C 
HETATM   14  O   UNK N   1      34.167  17.928   5.860  0.00  0.00    -0.264 OA
BRANCH  13  15
HETATM   15  O   UNK N   1      33.092  16.251   4.835  0.00  0.00    -0.321 OA
BRANCH  15  16
HETATM   16  C   UNK N   1      32.884  16.857   3.616  0.00  0.00     0.174 C 
HETATM   17  C   UNK N   1      31.460  16.620   3.162  0.00  0.00     0.034 C 
ENDBRANCH  15  16
ENDBRANCH  13  15
ENDBRANCH   2  13
BRANCH   1  18
HETATM   18  C   UNK N   1      34.884  14.112   9.794  0.00  0.00     0.143 C 
BRANCH  18  19
HETATM   19  C   UNK N   1      35.012  13.267  11.056  0.00  0.00     0.187 C 
BRANCH  19  20
HETATM   20  O   UNK N   1      34.601  14.042  12.147  0.00  0.00    -0.387 OA
BRANCH  20  21
HETATM   21  C   UNK N   1      35.619  13.974  13.109  0.00  0.00     0.199 C 
BRANCH  21  22
HETATM   22  C   UNK N   1      35.606  12.639  13.866  0.00  0.00     0.145 C 
HETATM   23  O   UNK N   1      34.367  12.403  14.486  0.00  0.00    -0.384 OA
HETATM   24  C   UNK N   1      34.460  12.948  15.779  0.00  0.00     0.168 C 
HETATM   25  C   UNK N   1      35.919  13.093  16.158  0.00  0.00     0.029 C 
HETATM   26  C   UNK N   1      36.663  12.630  14.940  0.00  0.00     0.036 C 
ENDBRANCH  21  22
ENDBRANCH  20  21
ENDBRANCH  19  20
ENDBRANCH  18  19
ENDBRANCH   1  18
TORSDOF 9
ENDMDL
MODEL 2
REMARK VINA RESULT:      -6.4      1.825      3.257
REMARK  9 active torsions:
REMARK  status: ('A' for Active; 'I' for Inactive)
REMARK    1  A    between atoms: O_1  and  C_13 
REMARK    2  A    between atoms: O_1  and  C_25 
REMARK    3  A    between atoms: O_2  and  C_14 
REMARK    4  A    between atoms: O_2  and  C_19 
REMARK    5  A    between atoms: N_5  and  C_12 
REMARK    6  A    between atoms: C_6  and  C_11 
REMARK    7  A    between atoms: C_6  and  C_13 
REMARK    8  A    between atoms: C_12  and  C_14 
REMARK    9  A    between atoms: C_17  and  C_19 
ROOT
HETATM    1  N   UNK N   1      34.817  16.571   8.767  0.00  0.00    -0.410 N 
HETATM    2  C   UNK N   1      32.137  16.972   7.577  0.00  0.00     0.078 C 
HETATM    3  C   UNK N   1      32.461  15.784   8.494  0.00  0.00     0.044 C 
HETATM    4  C   UNK N   1      33.041  18.145   7.993  0.00  0.00     0.044 C 
HETATM    5  C   UNK N   1      33.949  15.417   8.491  0.00  0.00     0.118 C 
HETATM    6  C   UNK N   1      34.528  17.787   7.997  0.00  0.00     0.118 C 
ENDROOT
BRANCH   2   7
HETATM    7  C   UNK N   1      32.350  16.599   6.095  0.00  0.00    -0.040 A 
HETATM    8  C   UNK N   1      32.241  15.267   5.650  0.00  0.00     0.008 A 
HETATM    9  C   UNK N   1      32.461  14.941   4.308  0.00  0.00     0.001 A 
HETATM   10  C   UNK N   1      32.795  15.938   3.390  0.00  0.00     0.000 A 
HETATM   11  C   UNK N   1      32.903  17.263   3.810  0.00  0.00     0.001 A 
HETATM   12  C   UNK N   1      32.682  17.589   5.150  0.00  0.00     0.008 A 
ENDBRANCH   2   7
BRANCH   2  13
HETATM   13  C   UNK N   1      30.689  17.353   7.868  0.00  0.00     0.272 C 
HETATM   14  O   UNK N   1      30.426  18.030   8.852  0.00  0.00    -0.264 OA
BRANCH  13  15
HETATM   15  O   UNK N   1      29.698  16.981   7.011  0.00  0.00    -0.321 OA
BRANCH  15  16
HETATM   16  C   UNK N   1      28.916  17.896   6.344  0.00  0.00     0.174 C 
HETATM   17  C   UNK N   1      28.981  17.637   4.854  0.00  0.00     0.034 C 
ENDBRANCH  15  16
ENDBRANCH  13  15
ENDBRANCH   2  13
BRANCH   1  18
HETATM   18  C   UNK N   1      35.078  16.810  10.185  0.00  0.00     0.143 C 
BRANCH  18  19
HETATM   19  C   UNK N   1      35.948  15.748  10.849  0.00  0.00     0.187 C 
BRANCH  19  20
HETATM   20  O   UNK N   1      35.149  15.021  11.740  0.00  0.00    -0.387 OA
BRANCH  20  21
HETATM   21  C   UNK N   1      35.988  14.561  12.765  0.00  0.00     0.199 C 
BRANCH  21  22
HETATM   22  C   UNK N   1      35.649  13.123  13.184  0.00  0.00     0.145 C 
HETATM   23  O   UNK N   1      34.613  13.086  14.133  0.00  0.00    -0.384 OA
HETATM   24  C   UNK N   1      35.229  13.136  15.396  0.00  0.00     0.168 C 
HETATM   25  C   UNK N   1      36.675  12.705  15.264  0.00  0.00     0.029 C 
HETATM   26  C   UNK N   1      36.852  12.454  13.796  0.00  0.00     0.036 C 
ENDBRANCH  21  22
ENDBRANCH  20  21
ENDBRANCH  19  20
ENDBRANCH  18  19
ENDBRANCH   1  18
TORSDOF 9
ENDMDL
MODEL 3
REMARK VINA RESULT:      -6.1      1.316      1.544
REMARK  9 active torsions:
REMARK  status: ('A' for Active; 'I' for Inactive)
REMARK    1  A    between atoms: O_1  and  C_13 
REMARK    2  A    between atoms: O_1  and  C_25 
REMARK    3  A    between atoms: O_2  and  C_14 
REMARK    4  A    between atoms: O_2  and  C_19 
REMARK    5  A    between atoms: N_5  and  C_12 
REMARK    6  A    between atoms: C_6  and  C_11 
REMARK    7  A    between atoms: C_6  and  C_13 
REMARK    8  A    between atoms: C_12  and  C_14 
REMARK    9  A    between atoms: C_17  and  C_19 
ROOT
HETATM    1  N   UNK N   1      34.055  14.467  10.176  0.00  0.00    -0.410 N 
HETATM    2  C   UNK N   1      33.736  16.019   7.676  0.00  0.00     0.078 C 
HETATM    3  C   UNK N   1      34.665  16.471   8.813  0.00  0.00     0.044 C 
HETATM    4  C   UNK N   1      33.669  14.482   7.710  0.00  0.00     0.044 C 
HETATM    5  C   UNK N   1      34.241  15.925  10.181  0.00  0.00     0.118 C 
HETATM    6  C   UNK N   1      33.250  13.929   9.073  0.00  0.00     0.118 C 
ENDROOT
BRANCH   2   7
HETATM    7  C   UNK N   1      32.335  16.645   7.827  0.00  0.00    -0.040 A 
HETATM    8  C   UNK N   1      31.204  16.074   7.211  0.00  0.00     0.008 A 
HETATM    9  C   UNK N   1      29.944  16.668   7.336  0.00  0.00     0.001 A 
HETATM   10  C   UNK N   1      29.793  17.841   8.077  0.00  0.00     0.000 A 
HETATM   11  C   UNK N   1      30.898  18.419   8.698  0.00  0.00     0.001 A 
HETATM   12  C   UNK N   1      32.157  17.826   8.574  0.00  0.00     0.008 A 
ENDBRANCH   2   7
BRANCH   2  13
HETATM   13  C   UNK N   1      34.415  16.443   6.377  0.00  0.00     0.272 C 
HETATM   14  O   UNK N   1      35.383  15.817   5.967  0.00  0.00    -0.264 OA
BRANCH  13  15
HETATM   15  O   UNK N   1      33.918  17.483   5.653  0.00  0.00    -0.321 OA
BRANCH  15  16
HETATM   16  C   UNK N   1      33.481  17.338   4.356  0.00  0.00     0.174 C 
HETATM   17  C   UNK N   1      32.034  17.771   4.251  0.00  0.00     0.034 C 
ENDBRANCH  15  16
ENDBRANCH  13  15
ENDBRANCH   2  13
BRANCH   1  18
HETATM   18  C   UNK N   1      35.267  13.700  10.462  0.00  0.00     0.143 C 
BRANCH  18  19
HETATM   19  C   UNK N   1      35.092  12.634  11.538  0.00  0.00     0.187 C 
BRANCH  19  20
HETATM   20  O   UNK N   1      34.641  13.259  12.706  0.00  0.00    -0.387 OA
BRANCH  20  21
HETATM   21  C   UNK N   1      35.481  12.841  13.749  0.00  0.00     0.199 C 
BRANCH  21  22
HETATM   22  C   UNK N   1      34.684  12.412  14.990  0.00  0.00     0.145 C 
HETATM   23  O   UNK N   1      35.528  12.096  16.068  0.00  0.00    -0.384 OA
HETATM   24  C   UNK N   1      35.801  10.720  15.969  0.00  0.00     0.168 C 
HETATM   25  C   UNK N   1      34.738  10.059  15.117  0.00  0.00     0.029 C 
HETATM   26  C   UNK N   1      33.853  11.192  14.688  0.00  0.00     0.036 C 
ENDBRANCH  21  22
ENDBRANCH  20  21
ENDBRANCH  19  20
ENDBRANCH  18  19
ENDBRANCH   1  18
TORSDOF 9
ENDMDL
MODEL 4
REMARK VINA RESULT:      -6.0     10.772     12.569
REMARK  9 active torsions:
REMARK  status: ('A' for Active; 'I' for Inactive)
REMARK    1  A    between atoms: O_1  and  C_13 
REMARK    2  A    between atoms: O_1  and  C_25 
REMARK    3  A    between atoms: O_2  and  C_14 
REMARK    4  A    between atoms: O_2  and  C_19 
REMARK    5  A    between atoms: N_5  and  C_12 
REMARK    6  A    between atoms: C_6  and  C_11 
REMARK    7  A    between atoms: C_6  and  C_13 
REMARK    8  A    between atoms: C_12  and  C_14 
REMARK    9  A    between atoms: C_17  and  C_19 
ROOT
HETATM    1  N   UNK N   1      21.201  16.387   6.876  0.00  0.00    -0.410 N 
HETATM    2  C   UNK N   1      21.356  16.263   3.923  0.00  0.00     0.078 C 
HETATM    3  C   UNK N   1      22.587  16.071   4.821  0.00  0.00     0.044 C 
HETATM    4  C   UNK N   1      20.124  15.778   4.708  0.00  0.00     0.044 C 
HETATM    5  C   UNK N   1      22.443  16.757   6.184  0.00  0.00     0.118 C 
HETATM    6  C   UNK N   1      19.976  16.456   6.071  0.00  0.00     0.118 C 
ENDROOT
BRANCH   2   7
HETATM    7  C   UNK N   1      21.207  17.738   3.500  0.00  0.00    -0.040 A 
HETATM    8  C   UNK N   1      22.319  18.599   3.430  0.00  0.00     0.008 A 
HETATM    9  C   UNK N   1      22.164  19.941   3.069  0.00  0.00     0.001 A 
HETATM   10  C   UNK N   1      20.897  20.446   2.773  0.00  0.00     0.000 A 
HETATM   11  C   UNK N   1      19.784  19.609   2.831  0.00  0.00     0.001 A 
HETATM   12  C   UNK N   1      19.938  18.268   3.192  0.00  0.00     0.008 A 
ENDBRANCH   2   7
BRANCH   2  13
HETATM   13  C   UNK N   1      21.556  15.341   2.724  0.00  0.00     0.272 C 
HETATM   14  O   UNK N   1      21.997  14.213   2.893  0.00  0.00    -0.264 OA
BRANCH  13  15
HETATM   15  O   UNK N   1      21.200  15.755   1.477  0.00  0.00    -0.321 OA
BRANCH  15  16
HETATM   16  C   UNK N   1      20.052  15.321   0.853  0.00  0.00     0.174 C 
HETATM   17  C   UNK N   1      19.441  16.455   0.057  0.00  0.00     0.034 C 
ENDBRANCH  15  16
ENDBRANCH  13  15
ENDBRANCH   2  13
BRANCH   1  18
HETATM   18  C   UNK N   1      21.303  15.190   7.708  0.00  0.00     0.143 C 
BRANCH  18  19
HETATM   19  C   UNK N   1      20.568  15.289   9.041  0.00  0.00     0.187 C 
BRANCH  19  20
HETATM   20  O   UNK N   1      20.815  14.118   9.766  0.00  0.00    -0.387 OA
BRANCH  20  21
HETATM   21  C   UNK N   1      22.133  13.728   9.485  0.00  0.00     0.199 C 
BRANCH  21  22
HETATM   22  C   UNK N   1      22.358  12.232   9.749  0.00  0.00     0.145 C 
HETATM   23  O   UNK N   1      21.901  11.853  11.023  0.00  0.00    -0.384 OA
HETATM   24  C   UNK N   1      22.991  12.006  11.898  0.00  0.00     0.168 C 
HETATM   25  C   UNK N   1      24.278  12.009  11.099  0.00  0.00     0.029 C 
HETATM   26  C   UNK N   1      23.826  11.898   9.673  0.00  0.00     0.036 C 
ENDBRANCH  21  22
ENDBRANCH  20  21
ENDBRANCH  19  20
ENDBRANCH  18  19
ENDBRANCH   1  18
TORSDOF 9
ENDMDL
MODEL 5
REMARK VINA RESULT:      -5.8     16.439     20.050
REMARK  9 active torsions:
REMARK  status: ('A' for Active; 'I' for Inactive)
REMARK    1  A    between atoms: O_1  and  C_13 
REMARK    2  A    between atoms: O_1  and  C_25 
REMARK    3  A    between atoms: O_2  and  C_14 
REMARK    4  A    between atoms: O_2  and  C_19 
REMARK    5  A    between atoms: N_5  and  C_12 
REMARK    6  A    between atoms: C_6  and  C_11 
REMARK    7  A    between atoms: C_6  and  C_13 
REMARK    8  A    between atoms: C_12  and  C_14 
REMARK    9  A    between atoms: C_17  and  C_19 
ROOT
HETATM    1  N   UNK N   1      26.757  26.385  -7.886  0.00  0.00    -0.410 N 
HETATM    2  C   UNK N   1      27.142  25.691  -5.035  0.00  0.00     0.078 C 
HETATM    3  C   UNK N   1      25.791  25.525  -5.748  0.00  0.00     0.044 C 
HETATM    4  C   UNK N   1      28.251  25.513  -6.087  0.00  0.00     0.044 C 
HETATM    5  C   UNK N   1      25.631  26.468  -6.946  0.00  0.00     0.118 C 
HETATM    6  C   UNK N   1      28.096  26.448  -7.288  0.00  0.00     0.118 C 
ENDROOT
BRANCH   2   7
HETATM    7  C   UNK N   1      27.236  27.068  -4.347  0.00  0.00    -0.040 A 
HETATM    8  C   UNK N   1      26.099  27.877  -4.162  0.00  0.00     0.008 A 
HETATM    9  C   UNK N   1      26.205  29.135  -3.559  0.00  0.00     0.001 A 
HETATM   10  C   UNK N   1      27.448  29.604  -3.132  0.00  0.00     0.000 A 
HETATM   11  C   UNK N   1      28.586  28.816  -3.301  0.00  0.00     0.001 A 
HETATM   12  C   UNK N   1      28.480  27.560  -3.903  0.00  0.00     0.008 A 
ENDBRANCH   2   7
BRANCH   2  13
HETATM   13  C   UNK N   1      27.238  24.544  -4.034  0.00  0.00     0.272 C 
HETATM   14  O   UNK N   1      26.319  24.340  -3.254  0.00  0.00    -0.264 OA
BRANCH  13  15
HETATM   15  O   UNK N   1      28.323  23.720  -4.041  0.00  0.00    -0.321 OA
BRANCH  15  16
HETATM   16  C   UNK N   1      29.198  23.642  -2.981  0.00  0.00     0.174 C 
HETATM   17  C   UNK N   1      30.485  24.361  -3.325  0.00  0.00     0.034 C 
ENDBRANCH  15  16
ENDBRANCH  13  15
ENDBRANCH   2  13
BRANCH   1  18
HETATM   18  C   UNK N   1      26.612  25.362  -8.920  0.00  0.00     0.143 C 
BRANCH  18  19
HETATM   19  C   UNK N   1      25.173  25.121  -9.365  0.00  0.00     0.187 C 
BRANCH  19  20
HETATM   20  O   UNK N   1      24.783  23.852  -8.921  0.00  0.00    -0.387 OA
BRANCH  20  21
HETATM   21  C   UNK N   1      25.900  23.012  -9.040  0.00  0.00     0.199 C 
BRANCH  21  22
HETATM   22  C   UNK N   1      25.998  22.018  -7.874  0.00  0.00     0.145 C 
HETATM   23  O   UNK N   1      26.905  22.453  -6.892  0.00  0.00    -0.384 OA
HETATM   24  C   UNK N   1      28.156  21.916  -7.242  0.00  0.00     0.168 C 
HETATM   25  C   UNK N   1      27.953  20.735  -8.168  0.00  0.00     0.029 C 
HETATM   26  C   UNK N   1      26.467  20.673  -8.365  0.00  0.00     0.036 C 
ENDBRANCH  21  22
ENDBRANCH  20  21
ENDBRANCH  19  20
ENDBRANCH  18  19
ENDBRANCH   1  18
TORSDOF 9
ENDMDL
MODEL 6
REMARK VINA RESULT:      -5.8     14.821     17.882
REMARK  9 active torsions:
REMARK  status: ('A' for Active; 'I' for Inactive)
REMARK    1  A    between atoms: O_1  and  C_13 
REMARK    2  A    between atoms: O_1  and  C_25 
REMARK    3  A    between atoms: O_2  and  C_14 
REMARK    4  A    between atoms: O_2  and  C_19 
REMARK    5  A    between atoms: N_5  and  C_12 
REMARK    6  A    between atoms: C_6  and  C_11 
REMARK    7  A    between atoms: C_6  and  C_13 
REMARK    8  A    between atoms: C_12  and  C_14 
REMARK    9  A    between atoms: C_17  and  C_19 
ROOT
HETATM    1  N   UNK N   1      29.051  24.182  -3.272  0.00  0.00    -0.410 N 
HETATM    2  C   UNK N   1      27.159  24.997  -5.397  0.00  0.00     0.078 C 
HETATM    3  C   UNK N   1      28.651  24.757  -5.671  0.00  0.00     0.044 C 
HETATM    4  C   UNK N   1      26.746  24.089  -4.225  0.00  0.00     0.044 C 
HETATM    5  C   UNK N   1      29.525  24.956  -4.428  0.00  0.00     0.118 C 
HETATM    6  C   UNK N   1      27.616  24.280  -2.982  0.00  0.00     0.118 C 
ENDROOT
BRANCH   2   7
HETATM    7  C   UNK N   1      26.890  26.482  -5.078  0.00  0.00    -0.040 A 
HETATM    8  C   UNK N   1      26.035  26.865  -4.026  0.00  0.00     0.008 A 
HETATM    9  C   UNK N   1      25.781  28.215  -3.765  0.00  0.00     0.001 A 
HETATM   10  C   UNK N   1      26.375  29.204  -4.549  0.00  0.00     0.000 A 
HETATM   11  C   UNK N   1      27.229  28.847  -5.592  0.00  0.00     0.001 A 
HETATM   12  C   UNK N   1      27.484  27.498  -5.852  0.00  0.00     0.008 A 
ENDBRANCH   2   7
BRANCH   2  13
HETATM   13  C   UNK N   1      26.416  24.538  -6.647  0.00  0.00     0.272 C 
HETATM   14  O   UNK N   1      25.286  24.949  -6.867  0.00  0.00    -0.264 OA
BRANCH  13  15
HETATM   15  O   UNK N   1      27.027  23.710  -7.540  0.00  0.00    -0.321 OA
BRANCH  15  16
HETATM   16  C   UNK N   1      26.553  22.449  -7.822  0.00  0.00     0.174 C 
HETATM   17  C   UNK N   1      27.707  21.471  -7.889  0.00  0.00     0.034 C 
ENDBRANCH  15  16
ENDBRANCH  13  15
ENDBRANCH   2  13
BRANCH   1  18
HETATM   18  C   UNK N   1      29.586  22.823  -3.191  0.00  0.00     0.143 C 
BRANCH  18  19
HETATM   19  C   UNK N   1      30.974  22.733  -2.566  0.00  0.00     0.187 C 
BRANCH  19  20
HETATM   20  O   UNK N   1      31.445  21.425  -2.731  0.00  0.00    -0.387 OA
BRANCH  20  21
HETATM   21  C   UNK N   1      30.692  20.842  -3.761  0.00  0.00     0.199 C 
BRANCH  21  22
HETATM   22  C   UNK N   1      31.585  20.250  -4.861  0.00  0.00     0.145 C 
HETATM   23  O   UNK N   1      32.776  20.980  -5.016  0.00  0.00    -0.384 OA
HETATM   24  C   UNK N   1      32.513  21.964  -5.985  0.00  0.00     0.168 C 
HETATM   25  C   UNK N   1      31.310  21.551  -6.806  0.00  0.00     0.029 C 
HETATM   26  C   UNK N   1      30.867  20.260  -6.186  0.00  0.00     0.036 C 
ENDBRANCH  21  22
ENDBRANCH  20  21
ENDBRANCH  19  20
ENDBRANCH  18  19
ENDBRANCH   1  18
TORSDOF 9
ENDMDL
MODEL 7
REMARK VINA RESULT:      -5.8     10.535     14.134
REMARK  9 active torsions:
REMARK  status: ('A' for Active; 'I' for Inactive)
REMARK    1  A    between atoms: O_1  and  C_13 
REMARK    2  A    between atoms: O_1  and  C_25 
REMARK    3  A    between atoms: O_2  and  C_14 
REMARK    4  A    between atoms: O_2  and  C_19 
REMARK    5  A    between atoms: N_5  and  C_12 
REMARK    6  A    between atoms: C_6  and  C_11 
REMARK    7  A    between atoms: C_6  and  C_13 
REMARK    8  A    between atoms: C_12  and  C_14 
REMARK    9  A    between atoms: C_17  and  C_19 
ROOT
HETATM    1  N   UNK N   1      22.121  15.810   7.241  0.00  0.00    -0.410 N 
HETATM    2  C   UNK N   1      21.973  12.858   7.390  0.00  0.00     0.078 C 
HETATM    3  C   UNK N   1      20.729  13.752   7.502  0.00  0.00     0.044 C 
HETATM    4  C   UNK N   1      22.998  13.591   6.507  0.00  0.00     0.044 C 
HETATM    5  C   UNK N   1      21.052  15.161   8.011  0.00  0.00     0.118 C 
HETATM    6  C   UNK N   1      23.323  15.000   7.006  0.00  0.00     0.118 C 
ENDROOT
BRANCH   2   7
HETATM    7  C   UNK N   1      22.556  12.546   8.784  0.00  0.00    -0.040 A 
HETATM    8  C   UNK N   1      21.725  12.406   9.912  0.00  0.00     0.008 A 
HETATM    9  C   UNK N   1      22.270  12.148  11.175  0.00  0.00     0.001 A 
HETATM   10  C   UNK N   1      23.652  12.027  11.330  0.00  0.00     0.000 A 
HETATM   11  C   UNK N   1      24.491  12.157  10.224  0.00  0.00     0.001 A 
HETATM   12  C   UNK N   1      23.947  12.415   8.964  0.00  0.00     0.008 A 
ENDBRANCH   2   7
BRANCH   2  13
HETATM   13  C   UNK N   1      21.527  11.595   6.661  0.00  0.00     0.272 C 
HETATM   14  O   UNK N   1      22.302  10.656   6.544  0.00  0.00    -0.264 OA
BRANCH  13  15
HETATM   15  O   UNK N   1      20.255  11.494   6.185  0.00  0.00    -0.321 OA
BRANCH  15  16
HETATM   16  C   UNK N   1      19.974  11.029   4.920  0.00  0.00     0.174 C 
HETATM   17  C   UNK N   1      19.212   9.724   5.011  0.00  0.00     0.034 C 
ENDBRANCH  15  16
ENDBRANCH  13  15
ENDBRANCH   2  13
BRANCH   1  18
HETATM   18  C   UNK N   1      21.661  16.551   6.067  0.00  0.00     0.143 C 
BRANCH  18  19
HETATM   19  C   UNK N   1      22.763  17.304   5.331  0.00  0.00     0.187 C 
BRANCH  19  20
HETATM   20  O   UNK N   1      22.699  16.961   3.975  0.00  0.00    -0.387 OA
BRANCH  20  21
HETATM   21  C   UNK N   1      21.805  17.854   3.365  0.00  0.00     0.199 C 
BRANCH  21  22
HETATM   22  C   UNK N   1      22.009  19.295   3.856  0.00  0.00     0.145 C 
HETATM   23  O   UNK N   1      20.816  19.853   4.345  0.00  0.00    -0.384 OA
HETATM   24  C   UNK N   1      20.197  20.485   3.252  0.00  0.00     0.168 C 
HETATM   25  C   UNK N   1      21.230  20.756   2.179  0.00  0.00     0.029 C 
HETATM   26  C   UNK N   1      22.496  20.171   2.731  0.00  0.00     0.036 C 
ENDBRANCH  21  22
ENDBRANCH  20  21
ENDBRANCH  19  20
ENDBRANCH  18  19
ENDBRANCH   1  18
TORSDOF 9
ENDMDL
MODEL 8
REMARK VINA RESULT:      -5.7     10.585     14.178
REMARK  9 active torsions:
REMARK  status: ('A' for Active; 'I' for Inactive)
REMARK    1  A    between atoms: O_1  and  C_13 
REMARK    2  A    between atoms: O_1  and  C_25 
REMARK    3  A    between atoms: O_2  and  C_14 
REMARK    4  A    between atoms: O_2  and  C_19 
REMARK    5  A    between atoms: N_5  and  C_12 
REMARK    6  A    between atoms: C_6  and  C_11 
REMARK    7  A    between atoms: C_6  and  C_13 
REMARK    8  A    between atoms: C_12  and  C_14 
REMARK    9  A    between atoms: C_17  and  C_19 
ROOT
HETATM    1  N   UNK N   1      22.626  15.756   6.886  0.00  0.00    -0.410 N 
HETATM    2  C   UNK N   1      22.184  12.841   7.155  0.00  0.00     0.078 C 
HETATM    3  C   UNK N   1      21.025  13.846   7.076  0.00  0.00     0.044 C 
HETATM    4  C   UNK N   1      23.368  13.429   6.367  0.00  0.00     0.044 C 
HETATM    5  C   UNK N   1      21.419  15.248   7.553  0.00  0.00     0.118 C 
HETATM    6  C   UNK N   1      23.765  14.830   6.834  0.00  0.00     0.118 C 
ENDROOT
BRANCH   2   7
HETATM    7  C   UNK N   1      22.571  12.560   8.621  0.00  0.00    -0.040 A 
HETATM    8  C   UNK N   1      21.601  12.504   9.640  0.00  0.00     0.008 A 
HETATM    9  C   UNK N   1      21.970  12.273  10.969  0.00  0.00     0.001 A 
HETATM   10  C   UNK N   1      23.313  12.096  11.302  0.00  0.00     0.000 A 
HETATM   11  C   UNK N   1      24.289  12.143  10.308  0.00  0.00     0.001 A 
HETATM   12  C   UNK N   1      23.921  12.373   8.980  0.00  0.00     0.008 A 
ENDBRANCH   2   7
BRANCH   2  13
HETATM   13  C   UNK N   1      21.706  11.583   6.438  0.00  0.00     0.272 C 
HETATM   14  O   UNK N   1      20.513  11.315   6.414  0.00  0.00    -0.264 OA
BRANCH  13  15
HETATM   15  O   UNK N   1      22.598  10.786   5.788  0.00  0.00    -0.321 OA
BRANCH  15  16
HETATM   16  C   UNK N   1      22.745   9.448   6.080  0.00  0.00     0.174 C 
HETATM   17  C   UNK N   1      23.749   9.275   7.200  0.00  0.00     0.034 C 
ENDBRANCH  15  16
ENDBRANCH  13  15
ENDBRANCH   2  13
BRANCH   1  18
HETATM   18  C   UNK N   1      22.375  16.465   5.632  0.00  0.00     0.143 C 
BRANCH  18  19
HETATM   19  C   UNK N   1      22.247  17.976   5.783  0.00  0.00     0.187 C 
BRANCH  19  20
HETATM   20  O   UNK N   1      21.354  18.440   4.809  0.00  0.00    -0.387 OA
BRANCH  20  21
HETATM   21  C   UNK N   1      21.411  17.540   3.735  0.00  0.00     0.199 C 
BRANCH  21  22
HETATM   22  C   UNK N   1      20.017  17.230   3.171  0.00  0.00     0.145 C 
HETATM   23  O   UNK N   1      19.865  15.863   2.879  0.00  0.00    -0.384 OA
HETATM   24  C   UNK N   1      20.265  15.698   1.541  0.00  0.00     0.168 C 
HETATM   25  C   UNK N   1      20.201  17.033   0.830  0.00  0.00     0.029 C 
HETATM   26  C   UNK N   1      19.779  17.999   1.897  0.00  0.00     0.036 C 
ENDBRANCH  21  22
ENDBRANCH  20  21
ENDBRANCH  19  20
ENDBRANCH  18  19
ENDBRANCH   1  18
TORSDOF 9
ENDMDL
MODEL 9
REMARK VINA RESULT:      -5.7      3.308      8.965
REMARK  9 active torsions:
REMARK  status: ('A' for Active; 'I' for Inactive)
REMARK    1  A    between atoms: O_1  and  C_13 
REMARK    2  A    between atoms: O_1  and  C_25 
REMARK    3  A    between atoms: O_2  and  C_14 
REMARK    4  A    between atoms: O_2  and  C_19 
REMARK    5  A    between atoms: N_5  and  C_12 
REMARK    6  A    between atoms: C_6  and  C_11 
REMARK    7  A    between atoms: C_6  and  C_13 
REMARK    8  A    between atoms: C_12  and  C_14 
REMARK    9  A    between atoms: C_17  and  C_19 
ROOT
HETATM    1  N   UNK N   1      31.728  16.177   5.702  0.00  0.00    -0.410 N 
HETATM    2  C   UNK N   1      33.672  16.425   7.920  0.00  0.00     0.078 C 
HETATM    3  C   UNK N   1      33.988  16.893   6.492  0.00  0.00     0.044 C 
HETATM    4  C   UNK N   1      32.154  16.561   8.132  0.00  0.00     0.044 C 
HETATM    5  C   UNK N   1      33.171  16.152   5.428  0.00  0.00     0.118 C 
HETATM    6  C   UNK N   1      31.331  15.827   7.071  0.00  0.00     0.118 C 
ENDROOT
BRANCH   2   7
HETATM    7  C   UNK N   1      34.141  14.973   8.141  0.00  0.00    -0.040 A 
HETATM    8  C   UNK N   1      33.339  14.037   8.822  0.00  0.00     0.008 A 
HETATM    9  C   UNK N   1      33.790  12.730   9.037  0.00  0.00     0.001 A 
HETATM   10  C   UNK N   1      35.048  12.338   8.577  0.00  0.00     0.000 A 
HETATM   11  C   UNK N   1      35.855  13.248   7.896  0.00  0.00     0.001 A 
HETATM   12  C   UNK N   1      35.405  14.553   7.681  0.00  0.00     0.008 A 
ENDBRANCH   2   7
BRANCH   2  13
HETATM   13  C   UNK N   1      34.377  17.403   8.855  0.00  0.00     0.272 C 
HETATM   14  O   UNK N   1      34.781  18.473   8.421  0.00  0.00    -0.264 OA
BRANCH  13  15
HETATM   15  O   UNK N   1      34.516  17.107  10.176  0.00  0.00    -0.321 OA
BRANCH  15  16
HETATM   16  C   UNK N   1      35.708  16.682  10.718  0.00  0.00     0.174 C 
HETATM   17  C   UNK N   1      35.478  15.442  11.555  0.00  0.00     0.034 C 
ENDBRANCH  15  16
ENDBRANCH  13  15
ENDBRANCH   2  13
BRANCH   1  18
HETATM   18  C   UNK N   1      31.026  17.336   5.154  0.00  0.00     0.143 C 
BRANCH  18  19
HETATM   19  C   UNK N   1      29.543  17.394   5.506  0.00  0.00     0.187 C 
BRANCH  19  20
HETATM   20  O   UNK N   1      28.998  18.543   4.922  0.00  0.00    -0.387 OA
BRANCH  20  21
HETATM   21  C   UNK N   1      27.994  19.007   5.784  0.00  0.00     0.199 C 
BRANCH  21  22
HETATM   22  C   UNK N   1      27.206  20.175   5.172  0.00  0.00     0.145 C 
HETATM   23  O   UNK N   1      25.895  20.241   5.674  0.00  0.00    -0.384 OA
HETATM   24  C   UNK N   1      25.101  19.466   4.811  0.00  0.00     0.168 C 
HETATM   25  C   UNK N   1      25.810  19.310   3.482  0.00  0.00     0.029 C 
HETATM   26  C   UNK N   1      27.115  20.023   3.676  0.00  0.00     0.036 C 
ENDBRANCH  21  22
ENDBRANCH  20  21
ENDBRANCH  19  20
ENDBRANCH  18  19
ENDBRANCH   1  18
TORSDOF 9
ENDMDL
