MODEL 1
REMARK VINA RESULT:      -5.2      0.000      0.000
REMARK  5 active torsions:
REMARK  status: ('A' for Active; 'I' for Inactive)
REMARK    1  A    between atoms: O_1  and  C_7 
REMARK    2  A    between atoms: O_2  and  C_10 
REMARK    3  A    between atoms: N_3  and  C_5 
REMARK    4  A    between atoms: C_4  and  C_5 
REMARK    5  A    between atoms: C_4  and  C_6 
ROOT
HETATM    1  C   UNK N   1      26.263  25.340  -4.058  0.00  0.00    -0.020 A 
HETATM    2  C   UNK N   1      25.546  25.355  -5.293  0.00  0.00     0.074 A 
HETATM    3  C   UNK N   1      26.428  26.538  -3.350  0.00  0.00     0.046 A 
HETATM    4  C   UNK N   1      25.898  27.738  -3.816  0.00  0.00     0.068 A 
HETATM    5  C   UNK N   1      25.027  26.572  -5.755  0.00  0.00     0.040 A 
HETATM    6  C   UNK N   1      25.196  27.751  -5.029  0.00  0.00     0.039 A 
ENDROOT
BRANCH   1   7
HETATM    7  C   UNK N   1      26.883  24.091  -3.489  0.00  0.00     0.065 C 
BRANCH   7   8
HETATM    8  C   UNK N   1      28.409  24.095  -3.541  0.00  0.00     0.074 C 
HETATM    9  C   UNK N   1      28.885  23.563  -4.882  0.00  0.00     0.032 C 
BRANCH   8  10
HETATM   10  N   UNK N   1      28.927  23.236  -2.493  0.00  0.00    -0.426 N 
HETATM   11  H   UNK N   1      28.318  22.546  -2.052  0.00  0.00     0.150 HD
HETATM   12  H   UNK N   1      29.900  23.321  -2.197  0.00  0.00     0.150 HD
ENDBRANCH   8  10
ENDBRANCH   7   8
ENDBRANCH   1   7
BRANCH   2  13
HETATM   13  O   UNK N   1      25.333  24.261  -6.074  0.00  0.00    -0.355 OA
HETATM   14  C   UNK N   1      25.954  23.974  -7.266  0.00  0.00     0.210 C 
ENDBRANCH   2  13
BRANCH   4  15
HETATM   15  O   UNK N   1      26.075  28.863  -3.084  0.00  0.00    -0.356 OA
HETATM   16  C   UNK N   1      26.491  30.059  -3.623  0.00  0.00     0.210 C 
ENDBRANCH   4  15
TORSDOF 5
ENDMDL
MODEL 2
REMARK VINA RESULT:      -4.9     13.100     15.040
REMARK  5 active torsions:
REMARK  status: ('A' for Active; 'I' for Inactive)
REMARK    1  A    between atoms: O_1  and  C_7 
REMARK    2  A    between atoms: O_2  and  C_10 
REMARK    3  A    between atoms: N_3  and  C_5 
REMARK    4  A    between atoms: C_4  and  C_5 
REMARK    5  A    between atoms: C_4  and  C_6 
ROOT
HETATM    1  C   UNK N   1      30.945  17.220   6.819  0.00  0.00    -0.020 A 
HETATM    2  C   UNK N   1      30.740  17.127   5.408  0.00  0.00     0.074 A 
HETATM    3  C   UNK N   1      32.235  17.474   7.306  0.00  0.00     0.046 A 
HETATM    4  C   UNK N   1      33.316  17.650   6.446  0.00  0.00     0.068 A 
HETATM    5  C   UNK N   1      31.840  17.297   4.556  0.00  0.00     0.040 A 
HETATM    6  C   UNK N   1      33.113  17.557   5.063  0.00  0.00     0.039 A 
ENDROOT
BRANCH   1   7
HETATM    7  C   UNK N   1      29.836  17.028   7.819  0.00  0.00     0.065 C 
BRANCH   7   8
HETATM    8  C   UNK N   1      29.227  18.341   8.306  0.00  0.00     0.074 C 
HETATM    9  C   UNK N   1      29.597  18.580   9.760  0.00  0.00     0.032 C 
BRANCH   8  10
HETATM   10  N   UNK N   1      27.781  18.265   8.204  0.00  0.00    -0.426 N 
HETATM   11  H   UNK N   1      27.239  17.842   8.958  0.00  0.00     0.150 HD
HETATM   12  H   UNK N   1      27.307  18.633   7.380  0.00  0.00     0.150 HD
ENDBRANCH   8  10
ENDBRANCH   7   8
ENDBRANCH   1   7
BRANCH   2  13
HETATM   13  O   UNK N   1      29.541  16.873   4.819  0.00  0.00    -0.355 OA
HETATM   14  C   UNK N   1      28.617  17.804   4.407  0.00  0.00     0.210 C 
ENDBRANCH   2  13
BRANCH   4  15
HETATM   15  O   UNK N   1      34.537  17.907   6.971  0.00  0.00    -0.356 OA
HETATM   16  C   UNK N   1      34.728  18.335   8.265  0.00  0.00     0.210 C 
ENDBRANCH   4  15
TORSDOF 5
ENDMDL
MODEL 3
REMARK VINA RESULT:      -4.5     13.775     15.773
REMARK  5 active torsions:
REMARK  status: ('A' for Active; 'I' for Inactive)
REMARK    1  A    between atoms: O_1  and  C_7 
REMARK    2  A    between atoms: O_2  and  C_10 
REMARK    3  A    between atoms: N_3  and  C_5 
REMARK    4  A    between atoms: C_4  and  C_5 
REMARK    5  A    between atoms: C_4  and  C_6 
ROOT
HETATM    1  C   UNK N   1      31.240  17.206   7.248  0.00  0.00    -0.020 A 
HETATM    2  C   UNK N   1      31.749  17.217   5.914  0.00  0.00     0.074 A 
HETATM    3  C   UNK N   1      32.129  17.376   8.319  0.00  0.00     0.046 A 
HETATM    4  C   UNK N   1      33.492  17.568   8.109  0.00  0.00     0.068 A 
HETATM    5  C   UNK N   1      33.124  17.401   5.719  0.00  0.00     0.040 A 
HETATM    6  C   UNK N   1      33.989  17.577   6.800  0.00  0.00     0.039 A 
ENDROOT
BRANCH   1   7
HETATM    7  C   UNK N   1      29.784  16.989   7.566  0.00  0.00     0.065 C 
BRANCH   7   8
HETATM    8  C   UNK N   1      29.036  18.282   7.885  0.00  0.00     0.074 C 
HETATM    9  C   UNK N   1      28.813  18.398   9.383  0.00  0.00     0.032 C 
BRANCH   8  10
HETATM   10  N   UNK N   1      27.743  18.262   7.225  0.00  0.00    -0.426 N 
HETATM   11  H   UNK N   1      27.519  17.516   6.567  0.00  0.00     0.150 HD
HETATM   12  H   UNK N   1      27.060  18.994   7.420  0.00  0.00     0.150 HD
ENDBRANCH   8  10
ENDBRANCH   7   8
ENDBRANCH   1   7
BRANCH   2  13
HETATM   13  O   UNK N   1      30.988  17.050   4.798  0.00  0.00    -0.355 OA
HETATM   14  C   UNK N   1      31.380  16.455   3.622  0.00  0.00     0.210 C 
ENDBRANCH   2  13
BRANCH   4  15
HETATM   15  O   UNK N   1      34.302  17.742   9.180  0.00  0.00    -0.356 OA
HETATM   16  C   UNK N   1      34.893  16.700   9.858  0.00  0.00     0.210 C 
ENDBRANCH   4  15
TORSDOF 5
ENDMDL
MODEL 4
REMARK VINA RESULT:      -4.4     14.322     15.411
REMARK  5 active torsions:
REMARK  status: ('A' for Active; 'I' for Inactive)
REMARK    1  A    between atoms: O_1  and  C_7 
REMARK    2  A    between atoms: O_2  and  C_10 
REMARK    3  A    between atoms: N_3  and  C_5 
REMARK    4  A    between atoms: C_4  and  C_5 
REMARK    5  A    between atoms: C_4  and  C_6 
ROOT
HETATM    1  C   UNK N   1      32.345  17.331   5.785  0.00  0.00    -0.020 A 
HETATM    2  C   UNK N   1      32.954  17.696   7.024  0.00  0.00     0.074 A 
HETATM    3  C   UNK N   1      30.985  16.991   5.767  0.00  0.00     0.046 A 
HETATM    4  C   UNK N   1      30.214  17.015   6.927  0.00  0.00     0.068 A 
HETATM    5  C   UNK N   1      32.168  17.705   8.184  0.00  0.00     0.040 A 
HETATM    6  C   UNK N   1      30.814  17.371   8.141  0.00  0.00     0.039 A 
ENDROOT
BRANCH   1   7
HETATM    7  C   UNK N   1      33.107  17.265   4.488  0.00  0.00     0.065 C 
BRANCH   7   8
HETATM    8  C   UNK N   1      33.178  15.857   3.900  0.00  0.00     0.074 C 
HETATM    9  C   UNK N   1      34.253  15.051   4.608  0.00  0.00     0.032 C 
BRANCH   8  10
HETATM   10  N   UNK N   1      33.517  15.942   2.491  0.00  0.00    -0.426 N 
HETATM   11  H   UNK N   1      34.180  15.282   2.086  0.00  0.00     0.150 HD
HETATM   12  H   UNK N   1      33.092  16.662   1.907  0.00  0.00     0.150 HD
ENDBRANCH   8  10
ENDBRANCH   7   8
ENDBRANCH   1   7
BRANCH   2  13
HETATM   13  O   UNK N   1      34.265  18.031   7.168  0.00  0.00    -0.355 OA
HETATM   14  C   UNK N   1      34.850  18.588   8.281  0.00  0.00     0.210 C 
ENDBRANCH   2  13
BRANCH   4  15
HETATM   15  O   UNK N   1      28.902  16.691   6.849  0.00  0.00    -0.356 OA
HETATM   16  C   UNK N   1      27.952  17.166   7.724  0.00  0.00     0.210 C 
ENDBRANCH   4  15
TORSDOF 5
ENDMDL
MODEL 5
REMARK VINA RESULT:      -4.3     13.266     15.494
REMARK  5 active torsions:
REMARK  status: ('A' for Active; 'I' for Inactive)
REMARK    1  A    between atoms: O_1  and  C_7 
REMARK    2  A    between atoms: O_2  and  C_10 
REMARK    3  A    between atoms: N_3  and  C_5 
REMARK    4  A    between atoms: C_4  and  C_5 
REMARK    5  A    between atoms: C_4  and  C_6 
ROOT
HETATM    1  C   UNK N   1      31.035  17.056   6.517  0.00  0.00    -0.020 A 
HETATM    2  C   UNK N   1      30.968  17.650   7.814  0.00  0.00     0.074 A 
HETATM    3  C   UNK N   1      32.290  16.769   5.961  0.00  0.00     0.046 A 
HETATM    4  C   UNK N   1      33.470  17.038   6.651  0.00  0.00     0.068 A 
HETATM    5  C   UNK N   1      32.164  17.924   8.491  0.00  0.00     0.040 A 
HETATM    6  C   UNK N   1      33.402  17.622   7.923  0.00  0.00     0.039 A 
ENDROOT
BRANCH   1   7
HETATM    7  C   UNK N   1      29.812  16.747   5.696  0.00  0.00     0.065 C 
BRANCH   7   8
HETATM    8  C   UNK N   1      29.439  17.863   4.722  0.00  0.00     0.074 C 
HETATM    9  C   UNK N   1      28.243  18.636   5.250  0.00  0.00     0.032 C 
BRANCH   8  10
HETATM   10  N   UNK N   1      29.084  17.282   3.440  0.00  0.00    -0.426 N 
HETATM   11  H   UNK N   1      28.103  17.172   3.185  0.00  0.00     0.150 HD
HETATM   12  H   UNK N   1      29.816  16.985   2.795  0.00  0.00     0.150 HD
ENDBRANCH   8  10
ENDBRANCH   7   8
ENDBRANCH   1   7
BRANCH   2  13
HETATM   13  O   UNK N   1      29.813  17.984   8.449  0.00  0.00    -0.355 OA
HETATM   14  C   UNK N   1      29.700  18.604   9.671  0.00  0.00     0.210 C 
ENDBRANCH   2  13
BRANCH   4  15
HETATM   15  O   UNK N   1      34.653  16.728   6.072  0.00  0.00    -0.356 OA
HETATM   16  C   UNK N   1      35.033  15.439   5.771  0.00  0.00     0.210 C 
ENDBRANCH   4  15
TORSDOF 5
ENDMDL
MODEL 6
REMARK VINA RESULT:      -4.3     13.328     15.422
REMARK  5 active torsions:
REMARK  status: ('A' for Active; 'I' for Inactive)
REMARK    1  A    between atoms: O_1  and  C_7 
REMARK    2  A    between atoms: O_2  and  C_10 
REMARK    3  A    between atoms: N_3  and  C_5 
REMARK    4  A    between atoms: C_4  and  C_5 
REMARK    5  A    between atoms: C_4  and  C_6 
ROOT
HETATM    1  C   UNK N   1      31.554  16.961   7.154  0.00  0.00    -0.020 A 
HETATM    2  C   UNK N   1      32.869  17.253   6.676  0.00  0.00     0.074 A 
HETATM    3  C   UNK N   1      30.490  16.924   6.242  0.00  0.00     0.046 A 
HETATM    4  C   UNK N   1      30.688  17.150   4.882  0.00  0.00     0.068 A 
HETATM    5  C   UNK N   1      33.050  17.489   5.307  0.00  0.00     0.040 A 
HETATM    6  C   UNK N   1      31.978  17.437   4.416  0.00  0.00     0.039 A 
ENDROOT
BRANCH   1   7
HETATM    7  C   UNK N   1      31.249  16.719   8.608  0.00  0.00     0.065 C 
BRANCH   7   8
HETATM    8  C   UNK N   1      29.982  17.427   9.085  0.00  0.00     0.074 C 
HETATM    9  C   UNK N   1      30.248  18.913   9.254  0.00  0.00     0.032 C 
BRANCH   8  10
HETATM   10  N   UNK N   1      29.583  16.880  10.369  0.00  0.00    -0.426 N 
HETATM   11  H   UNK N   1      30.002  16.014  10.707  0.00  0.00     0.150 HD
HETATM   12  H   UNK N   1      28.883  17.362  10.934  0.00  0.00     0.150 HD
ENDBRANCH   8  10
ENDBRANCH   7   8
ENDBRANCH   1   7
BRANCH   2  13
HETATM   13  O   UNK N   1      33.975  17.329   7.464  0.00  0.00    -0.355 OA
HETATM   14  C   UNK N   1      34.409  18.433   8.161  0.00  0.00     0.210 C 
ENDBRANCH   2  13
BRANCH   4  15
HETATM   15  O   UNK N   1      29.626  17.087   4.046  0.00  0.00    -0.356 OA
HETATM   16  C   UNK N   1      28.451  17.770   4.262  0.00  0.00     0.210 C 
ENDBRANCH   4  15
TORSDOF 5
ENDMDL
MODEL 7
REMARK VINA RESULT:      -4.3     17.309     18.644
REMARK  5 active torsions:
REMARK  status: ('A' for Active; 'I' for Inactive)
REMARK    1  A    between atoms: O_1  and  C_7 
REMARK    2  A    between atoms: O_2  and  C_10 
REMARK    3  A    between atoms: N_3  and  C_5 
REMARK    4  A    between atoms: C_4  and  C_5 
REMARK    5  A    between atoms: C_4  and  C_6 
ROOT
HETATM    1  C   UNK N   1      21.581  13.329   9.033  0.00  0.00    -0.020 A 
HETATM    2  C   UNK N   1      21.992  13.113   7.681  0.00  0.00     0.074 A 
HETATM    3  C   UNK N   1      21.105  14.593   9.407  0.00  0.00     0.046 A 
HETATM    4  C   UNK N   1      21.010  15.637   8.490  0.00  0.00     0.068 A 
HETATM    5  C   UNK N   1      21.901  14.176   6.772  0.00  0.00     0.040 A 
HETATM    6  C   UNK N   1      21.415  15.423   7.165  0.00  0.00     0.039 A 
ENDROOT
BRANCH   1   7
HETATM    7  C   UNK N   1      21.664  12.262  10.092  0.00  0.00     0.065 C 
BRANCH   7   8
HETATM    8  C   UNK N   1      22.774  12.508  11.112  0.00  0.00     0.074 C 
HETATM    9  C   UNK N   1      24.121  12.143  10.514  0.00  0.00     0.032 C 
BRANCH   8  10
HETATM   10  N   UNK N   1      22.546  11.675  12.279  0.00  0.00    -0.426 N 
HETATM   11  H   UNK N   1      23.264  11.018  12.584  0.00  0.00     0.150 HD
HETATM   12  H   UNK N   1      21.668  11.747  12.793  0.00  0.00     0.150 HD
ENDBRANCH   8  10
ENDBRANCH   7   8
ENDBRANCH   1   7
BRANCH   2  13
HETATM   13  O   UNK N   1      22.482  11.937   7.204  0.00  0.00    -0.355 OA
HETATM   14  C   UNK N   1      21.886  11.120   6.273  0.00  0.00     0.210 C 
ENDBRANCH   2  13
BRANCH   4  15
HETATM   15  O   UNK N   1      20.529  16.832   8.904  0.00  0.00    -0.356 OA
HETATM   16  C   UNK N   1      19.214  17.210   8.758  0.00  0.00     0.210 C 
ENDBRANCH   4  15
TORSDOF 5
ENDMDL
MODEL 8
REMARK VINA RESULT:      -4.3     13.294     15.285
REMARK  5 active torsions:
REMARK  status: ('A' for Active; 'I' for Inactive)
REMARK    1  A    between atoms: O_1  and  C_7 
REMARK    2  A    between atoms: O_2  and  C_10 
REMARK    3  A    between atoms: N_3  and  C_5 
REMARK    4  A    between atoms: C_4  and  C_5 
REMARK    5  A    between atoms: C_4  and  C_6 
ROOT
HETATM    1  C   UNK N   1      32.429  17.310   5.764  0.00  0.00    -0.020 A 
HETATM    2  C   UNK N   1      31.110  17.227   6.308  0.00  0.00     0.074 A 
HETATM    3  C   UNK N   1      33.506  17.564   6.624  0.00  0.00     0.046 A 
HETATM    4  C   UNK N   1      33.321  17.724   7.995  0.00  0.00     0.068 A 
HETATM    5  C   UNK N   1      30.939  17.400   7.688  0.00  0.00     0.040 A 
HETATM    6  C   UNK N   1      32.027  17.644   8.526  0.00  0.00     0.039 A 
ENDROOT
BRANCH   1   7
HETATM    7  C   UNK N   1      32.717  17.165   4.294  0.00  0.00     0.065 C 
BRANCH   7   8
HETATM    8  C   UNK N   1      32.584  15.729   3.790  0.00  0.00     0.074 C 
HETATM    9  C   UNK N   1      33.684  15.425   2.788  0.00  0.00     0.032 C 
BRANCH   8  10
HETATM   10  N   UNK N   1      31.301  15.569   3.131  0.00  0.00    -0.426 N 
HETATM   11  H   UNK N   1      30.703  16.381   2.977  0.00  0.00     0.150 HD
HETATM   12  H   UNK N   1      30.999  14.646   2.821  0.00  0.00     0.150 HD
ENDBRANCH   8  10
ENDBRANCH   7   8
ENDBRANCH   1   7
BRANCH   2  13
HETATM   13  O   UNK N   1      29.988  16.999   5.573  0.00  0.00    -0.355 OA
HETATM   14  C   UNK N   1      29.126  17.949   5.078  0.00  0.00     0.210 C 
ENDBRANCH   2  13
BRANCH   4  15
HETATM   15  O   UNK N   1      34.400  17.953   8.780  0.00  0.00    -0.356 OA
HETATM   16  C   UNK N   1      34.912  17.021   9.654  0.00  0.00     0.210 C 
ENDBRANCH   4  15
TORSDOF 5
ENDMDL
MODEL 9
REMARK VINA RESULT:      -4.3     16.084     18.254
REMARK  5 active torsions:
REMARK  status: ('A' for Active; 'I' for Inactive)
REMARK    1  A    between atoms: O_1  and  C_7 
REMARK    2  A    between atoms: O_2  and  C_10 
REMARK    3  A    between atoms: N_3  and  C_5 
REMARK    4  A    between atoms: C_4  and  C_5 
REMARK    5  A    between atoms: C_4  and  C_6 
ROOT
HETATM    1  C   UNK N   1      42.695  22.342   2.863  0.00  0.00    -0.020 A 
HETATM    2  C   UNK N   1      41.586  22.852   2.121  0.00  0.00     0.074 A 
HETATM    3  C   UNK N   1      42.715  20.985   3.215  0.00  0.00     0.046 A 
HETATM    4  C   UNK N   1      41.685  20.123   2.846  0.00  0.00     0.068 A 
HETATM    5  C   UNK N   1      40.553  21.975   1.766  0.00  0.00     0.040 A 
HETATM    6  C   UNK N   1      40.598  20.626   2.119  0.00  0.00     0.039 A 
ENDROOT
BRANCH   1   7
HETATM    7  C   UNK N   1      43.842  23.207   3.316  0.00  0.00     0.065 C 
BRANCH   7   8
HETATM    8  C   UNK N   1      44.618  23.836   2.161  0.00  0.00     0.074 C 
HETATM    9  C   UNK N   1      44.871  22.800   1.079  0.00  0.00     0.032 C 
BRANCH   8  10
HETATM   10  N   UNK N   1      45.897  24.316   2.649  0.00  0.00    -0.426 N 
HETATM   11  H   UNK N   1      46.740  23.760   2.503  0.00  0.00     0.150 HD
HETATM   12  H   UNK N   1      45.954  25.211   3.136  0.00  0.00     0.150 HD
ENDBRANCH   8  10
ENDBRANCH   7   8
ENDBRANCH   1   7
BRANCH   2  13
HETATM   13  O   UNK N   1      41.450  24.150   1.735  0.00  0.00    -0.355 OA
HETATM   14  C   UNK N   1      40.784  24.607   0.622  0.00  0.00     0.210 C 
ENDBRANCH   2  13
BRANCH   4  15
HETATM   15  O   UNK N   1      41.764  18.819   3.200  0.00  0.00    -0.356 OA
HETATM   16  C   UNK N   1      42.561  17.905   2.549  0.00  0.00     0.210 C 
ENDBRANCH   4  15
TORSDOF 5
ENDMDL
