MODEL 1
REMARK VINA RESULT:      -7.2      0.000      0.000
REMARK  3 active torsions:
REMARK  status: ('A' for Active; 'I' for Inactive)
REMARK    1  A    between atoms: C_14  and  O_2 
REMARK    2  A    between atoms: O_3  and  C_20 
REMARK    3  A    between atoms: O_3  and  C_22 
ROOT
HETATM    1  O   UNK N   1      20.233  13.638   9.677  0.00  0.00    -0.338 OA
HETATM    2  N   UNK N   1      23.366  12.785   5.815  0.00  0.00     0.089 N 
HETATM    3  C   UNK N   1      22.078  13.133   8.406  0.00  0.00     0.030 C 
HETATM    4  C   UNK N   1      23.570  12.905   8.276  0.00  0.00     0.057 C 
HETATM    5  C   UNK N   1      23.982  13.572   6.922  0.00  0.00     0.235 C 
HETATM    6  C   UNK N   1      21.528  13.138   9.841  0.00  0.00     0.175 C 
HETATM    7  C   UNK N   1      21.442  12.157   7.396  0.00  0.00     0.048 C 
HETATM    8  C   UNK N   1      21.543  14.445   8.080  0.00  0.00    -0.003 A 
HETATM    9  C   UNK N   1      23.529  15.071   6.748  0.00  0.00     0.075 C 
HETATM   10  C   UNK N   1      21.913  12.511   5.955  0.00  0.00     0.273 C 
HETATM   11  C   UNK N   1      22.131  15.370   7.262  0.00  0.00    -0.046 A 
HETATM   12  C   UNK N   1      22.097  11.936  10.587  0.00  0.00     0.171 C 
HETATM   13  C   UNK N   1      24.263  12.912   9.625  0.00  0.00    -0.020 C 
HETATM   14  C   UNK N   1      20.388  14.642   8.773  0.00  0.00     0.110 A 
HETATM   15  C   UNK N   1      23.612  12.302  10.678  0.00  0.00     0.004 C 
HETATM   16  C   UNK N   1      21.432  16.573   7.046  0.00  0.00     0.011 A 
HETATM   17  C   UNK N   1      24.065  11.521   5.600  0.00  0.00     0.310 C 
HETATM   18  C   UNK N   1      19.653  15.814   8.597  0.00  0.00     0.102 A 
HETATM   19  C   UNK N   1      20.178  16.782   7.688  0.00  0.00     0.040 A 
ENDROOT
BRANCH  18  20
HETATM   20  O   UNK N   1      18.530  16.037   9.318  0.00  0.00    -0.349 OA
BRANCH  20  21
HETATM   21  C   UNK N   1      17.613  17.010   8.984  0.00  0.00     0.171 C 
HETATM   22  C   UNK N   1      17.467  17.986  10.134  0.00  0.00     0.034 C 
ENDBRANCH  20  21
ENDBRANCH  18  20
BRANCH  12  23
HETATM   23  O   UNK N   1      21.562  11.871  11.873  0.00  0.00    -0.389 OA
HETATM   24  H   UNK N   1      21.559  12.658  12.443  0.00  0.00     0.210 HD
ENDBRANCH  12  23
TORSDOF 3
ENDMDL
MODEL 2
REMARK VINA RESULT:      -6.9      8.870     10.914
REMARK  3 active torsions:
REMARK  status: ('A' for Active; 'I' for Inactive)
REMARK    1  A    between atoms: C_14  and  O_2 
REMARK    2  A    between atoms: O_3  and  C_20 
REMARK    3  A    between atoms: O_3  and  C_22 
ROOT
HETATM    1  O   UNK N   1      29.407  16.514   5.760  0.00  0.00    -0.338 OA
HETATM    2  N   UNK N   1      33.762  15.919   8.238  0.00  0.00     0.089 N 
HETATM    3  C   UNK N   1      31.133  16.713   7.261  0.00  0.00     0.030 C 
HETATM    4  C   UNK N   1      31.837  17.466   8.371  0.00  0.00     0.057 C 
HETATM    5  C   UNK N   1      33.366  17.345   8.058  0.00  0.00     0.235 C 
HETATM    6  C   UNK N   1      29.691  17.155   6.968  0.00  0.00     0.175 C 
HETATM    7  C   UNK N   1      31.379  15.224   7.578  0.00  0.00     0.048 C 
HETATM    8  C   UNK N   1      31.586  16.906   5.893  0.00  0.00    -0.003 A 
HETATM    9  C   UNK N   1      33.788  17.776   6.603  0.00  0.00     0.075 C 
HETATM   10  C   UNK N   1      32.907  14.924   7.542  0.00  0.00     0.273 C 
HETATM   11  C   UNK N   1      32.828  17.333   5.512  0.00  0.00    -0.046 A 
HETATM   12  C   UNK N   1      28.939  17.274   8.289  0.00  0.00     0.171 C 
HETATM   13  C   UNK N   1      31.025  18.651   8.855  0.00  0.00    -0.020 C 
HETATM   14  C   UNK N   1      30.553  16.661   5.041  0.00  0.00     0.110 A 
HETATM   15  C   UNK N   1      29.659  18.485   8.962  0.00  0.00     0.004 C 
HETATM   16  C   UNK N   1      33.080  17.424   4.130  0.00  0.00     0.011 A 
HETATM   17  C   UNK N   1      33.850  15.559   9.650  0.00  0.00     0.310 C 
HETATM   18  C   UNK N   1      30.745  16.733   3.662  0.00  0.00     0.102 A 
HETATM   19  C   UNK N   1      32.049  17.093   3.205  0.00  0.00     0.040 A 
ENDROOT
BRANCH  18  20
HETATM   20  O   UNK N   1      29.712  16.537   2.811  0.00  0.00    -0.349 OA
BRANCH  20  21
HETATM   21  C   UNK N   1      29.237  15.283   2.495  0.00  0.00     0.171 C 
HETATM   22  C   UNK N   1      27.722  15.313   2.437  0.00  0.00     0.034 C 
ENDBRANCH  20  21
ENDBRANCH  18  20
BRANCH  12  23
HETATM   23  O   UNK N   1      27.604  17.605   8.055  0.00  0.00    -0.389 OA
HETATM   24  H   UNK N   1      27.336  17.977   7.199  0.00  0.00     0.210 HD
ENDBRANCH  12  23
TORSDOF 3
ENDMDL
MODEL 3
REMARK VINA RESULT:      -6.7     14.746     17.068
REMARK  3 active torsions:
REMARK  status: ('A' for Active; 'I' for Inactive)
REMARK    1  A    between atoms: C_14  and  O_2 
REMARK    2  A    between atoms: O_3  and  C_20 
REMARK    3  A    between atoms: O_3  and  C_22 
ROOT
HETATM    1  O   UNK N   1      36.037   9.534  17.909  0.00  0.00    -0.338 OA
HETATM    2  N   UNK N   1      34.633  12.063  13.776  0.00  0.00     0.089 N 
HETATM    3  C   UNK N   1      36.002  10.527  15.840  0.00  0.00     0.030 C 
HETATM    4  C   UNK N   1      36.720  11.026  14.602  0.00  0.00     0.057 C 
HETATM    5  C   UNK N   1      36.020  12.374  14.225  0.00  0.00     0.235 C 
HETATM    6  C   UNK N   1      36.818   9.599  16.753  0.00  0.00     0.175 C 
HETATM    7  C   UNK N   1      34.641  10.015  15.325  0.00  0.00     0.048 C 
HETATM    8  C   UNK N   1      35.694  11.476  16.897  0.00  0.00    -0.003 A 
HETATM    9  C   UNK N   1      35.918  13.426  15.393  0.00  0.00     0.075 C 
HETATM   10  C   UNK N   1      33.846  11.190  14.684  0.00  0.00     0.273 C 
HETATM   11  C   UNK N   1      35.573  12.830  16.748  0.00  0.00    -0.046 A 
HETATM   12  C   UNK N   1      37.500   8.541  15.891  0.00  0.00     0.171 C 
HETATM   13  C   UNK N   1      38.189  10.650  14.609  0.00  0.00    -0.020 C 
HETATM   14  C   UNK N   1      35.612  10.814  18.083  0.00  0.00     0.110 A 
HETATM   15  C   UNK N   1      38.523   9.397  15.080  0.00  0.00     0.004 C 
HETATM   16  C   UNK N   1      35.236  13.575  17.894  0.00  0.00     0.011 A 
HETATM   17  C   UNK N   1      34.618  11.485  12.436  0.00  0.00     0.310 C 
HETATM   18  C   UNK N   1      35.279  11.500  19.250  0.00  0.00     0.102 A 
HETATM   19  C   UNK N   1      35.057  12.906  19.138  0.00  0.00     0.040 A 
ENDROOT
BRANCH  18  20
HETATM   20  O   UNK N   1      35.241  10.857  20.440  0.00  0.00    -0.349 OA
BRANCH  20  21
HETATM   21  C   UNK N   1      34.197  10.038  20.810  0.00  0.00     0.171 C 
HETATM   22  C   UNK N   1      33.293  10.774  21.778  0.00  0.00     0.034 C 
ENDBRANCH  20  21
ENDBRANCH  18  20
BRANCH  12  23
HETATM   23  O   UNK N   1      38.193   7.638  16.698  0.00  0.00    -0.389 OA
HETATM   24  H   UNK N   1      38.182   7.736  17.664  0.00  0.00     0.210 HD
ENDBRANCH  12  23
TORSDOF 3
ENDMDL
MODEL 4
REMARK VINA RESULT:      -6.6     13.254     14.835
REMARK  3 active torsions:
REMARK  status: ('A' for Active; 'I' for Inactive)
REMARK    1  A    between atoms: C_14  and  O_2 
REMARK    2  A    between atoms: O_3  and  C_20 
REMARK    3  A    between atoms: O_3  and  C_22 
ROOT
HETATM    1  O   UNK N   1      35.319  14.257  13.131  0.00  0.00    -0.338 OA
HETATM    2  N   UNK N   1      36.653  10.856   9.652  0.00  0.00     0.089 N 
HETATM    3  C   UNK N   1      35.586  13.109  11.160  0.00  0.00     0.030 C 
HETATM    4  C   UNK N   1      35.200  12.855   9.718  0.00  0.00     0.057 C 
HETATM    5  C   UNK N   1      35.235  11.300   9.539  0.00  0.00     0.235 C 
HETATM    6  C   UNK N   1      35.066  14.422  11.767  0.00  0.00     0.175 C 
HETATM    7  C   UNK N   1      37.104  12.843  11.214  0.00  0.00     0.048 C 
HETATM    8  C   UNK N   1      35.001  12.272  12.195  0.00  0.00    -0.003 A 
HETATM    9  C   UNK N   1      34.397  10.486  10.596  0.00  0.00     0.075 C 
HETATM   10  C   UNK N   1      37.392  11.360  10.838  0.00  0.00     0.273 C 
HETATM   11  C   UNK N   1      34.490  11.016  12.017  0.00  0.00    -0.046 A 
HETATM   12  C   UNK N   1      35.337  15.555  10.783  0.00  0.00     0.171 C 
HETATM   13  C   UNK N   1      34.205  13.880   9.209  0.00  0.00    -0.020 C 
HETATM   14  C   UNK N   1      34.975  12.963  13.368  0.00  0.00     0.110 A 
HETATM   15  C   UNK N   1      34.384  15.191   9.601  0.00  0.00     0.004 C 
HETATM   16  C   UNK N   1      33.997  10.355  13.158  0.00  0.00     0.011 A 
HETATM   17  C   UNK N   1      37.416  11.180   8.449  0.00  0.00     0.310 C 
HETATM   18  C   UNK N   1      34.500  12.358  14.530  0.00  0.00     0.102 A 
HETATM   19  C   UNK N   1      34.031  11.013  14.420  0.00  0.00     0.040 A 
ENDROOT
BRANCH  18  20
HETATM   20  O   UNK N   1      34.428  13.054  15.689  0.00  0.00    -0.349 OA
BRANCH  20  21
HETATM   21  C   UNK N   1      35.516  13.240  16.513  0.00  0.00     0.171 C 
HETATM   22  C   UNK N   1      35.043  13.459  17.937  0.00  0.00     0.034 C 
ENDBRANCH  20  21
ENDBRANCH  18  20
BRANCH  12  23
HETATM   23  O   UNK N   1      34.941  16.774  11.334  0.00  0.00    -0.389 OA
HETATM   24  H   UNK N   1      35.181  17.000  12.247  0.00  0.00     0.210 HD
ENDBRANCH  12  23
TORSDOF 3
ENDMDL
MODEL 5
REMARK VINA RESULT:      -6.6     17.098     19.623
REMARK  3 active torsions:
REMARK  status: ('A' for Active; 'I' for Inactive)
REMARK    1  A    between atoms: C_14  and  O_2 
REMARK    2  A    between atoms: O_3  and  C_20 
REMARK    3  A    between atoms: O_3  and  C_22 
ROOT
HETATM    1  O   UNK N   1      27.289  24.350  -4.479  0.00  0.00    -0.338 OA
HETATM    2  N   UNK N   1      27.615  29.332  -3.758  0.00  0.00     0.089 N 
HETATM    3  C   UNK N   1      27.267  26.626  -4.781  0.00  0.00     0.030 C 
HETATM    4  C   UNK N   1      27.235  27.837  -5.690  0.00  0.00     0.057 C 
HETATM    5  C   UNK N   1      28.213  28.875  -5.044  0.00  0.00     0.235 C 
HETATM    6  C   UNK N   1      26.910  25.286  -5.444  0.00  0.00     0.175 C 
HETATM    7  C   UNK N   1      26.463  27.048  -3.535  0.00  0.00     0.048 C 
HETATM    8  C   UNK N   1      28.552  26.162  -4.284  0.00  0.00    -0.003 A 
HETATM    9  C   UNK N   1      29.657  28.328  -4.730  0.00  0.00     0.075 C 
HETATM   10  C   UNK N   1      27.162  28.255  -2.842  0.00  0.00     0.273 C 
HETATM   11  C   UNK N   1      29.687  26.916  -4.169  0.00  0.00    -0.046 A 
HETATM   12  C   UNK N   1      25.647  25.475  -6.277  0.00  0.00     0.171 C 
HETATM   13  C   UNK N   1      27.033  27.450  -7.142  0.00  0.00    -0.020 C 
HETATM   14  C   UNK N   1      28.473  24.831  -4.011  0.00  0.00     0.110 A 
HETATM   15  C   UNK N   1      26.148  26.426  -7.410  0.00  0.00     0.004 C 
HETATM   16  C   UNK N   1      30.825  26.286  -3.632  0.00  0.00     0.011 A 
HETATM   17  C   UNK N   1      26.509  30.259  -3.979  0.00  0.00     0.310 C 
HETATM   18  C   UNK N   1      29.568  24.156  -3.476  0.00  0.00     0.102 A 
HETATM   19  C   UNK N   1      30.757  24.915  -3.255  0.00  0.00     0.040 A 
ENDROOT
BRANCH  18  20
HETATM   20  O   UNK N   1      29.511  22.823  -3.246  0.00  0.00    -0.349 OA
BRANCH  20  21
HETATM   21  C   UNK N   1      30.625  22.073  -2.939  0.00  0.00     0.171 C 
HETATM   22  C   UNK N   1      30.743  20.916  -3.911  0.00  0.00     0.034 C 
ENDBRANCH  20  21
ENDBRANCH  18  20
BRANCH  12  23
HETATM   23  O   UNK N   1      25.254  24.259  -6.837  0.00  0.00    -0.389 OA
HETATM   24  H   UNK N   1      24.314  24.071  -6.988  0.00  0.00     0.210 HD
ENDBRANCH  12  23
TORSDOF 3
ENDMDL
MODEL 6
REMARK VINA RESULT:      -6.6     16.272     18.528
REMARK  3 active torsions:
REMARK  status: ('A' for Active; 'I' for Inactive)
REMARK    1  A    between atoms: C_14  and  O_2 
REMARK    2  A    between atoms: O_3  and  C_20 
REMARK    3  A    between atoms: O_3  and  C_22 
ROOT
HETATM    1  O   UNK N   1      30.286  22.405  -5.404  0.00  0.00    -0.338 OA
HETATM    2  N   UNK N   1      27.085  26.253  -4.774  0.00  0.00     0.089 N 
HETATM    3  C   UNK N   1      28.819  23.926  -4.507  0.00  0.00     0.030 C 
HETATM    4  C   UNK N   1      27.895  24.370  -3.392  0.00  0.00     0.057 C 
HETATM    5  C   UNK N   1      26.648  24.997  -4.102  0.00  0.00     0.235 C 
HETATM    6  C   UNK N   1      29.783  22.782  -4.156  0.00  0.00     0.175 C 
HETATM    7  C   UNK N   1      29.424  25.232  -5.059  0.00  0.00     0.048 C 
HETATM    8  C   UNK N   1      28.247  23.239  -5.653  0.00  0.00    -0.003 A 
HETATM    9  C   UNK N   1      25.970  24.085  -5.193  0.00  0.00     0.075 C 
HETATM   10  C   UNK N   1      28.292  26.136  -5.631  0.00  0.00     0.273 C 
HETATM   11  C   UNK N   1      26.947  23.321  -6.070  0.00  0.00    -0.046 A 
HETATM   12  C   UNK N   1      30.438  23.089  -2.814  0.00  0.00     0.171 C 
HETATM   13  C   UNK N   1      27.981  23.454  -2.186  0.00  0.00    -0.020 C 
HETATM   14  C   UNK N   1      29.195  22.441  -6.216  0.00  0.00     0.110 A 
HETATM   15  C   UNK N   1      29.229  22.983  -1.833  0.00  0.00     0.004 C 
HETATM   16  C   UNK N   1      26.598  22.601  -7.228  0.00  0.00     0.011 A 
HETATM   17  C   UNK N   1      27.292  27.334  -3.814  0.00  0.00     0.310 C 
HETATM   18  C   UNK N   1      28.906  21.707  -7.365  0.00  0.00     0.102 A 
HETATM   19  C   UNK N   1      27.585  21.820  -7.895  0.00  0.00     0.040 A 
ENDROOT
BRANCH  18  20
HETATM   20  O   UNK N   1      29.829  20.875  -7.902  0.00  0.00    -0.349 OA
BRANCH  20  21
HETATM   21  C   UNK N   1      29.489  19.785  -8.671  0.00  0.00     0.171 C 
HETATM   22  C   UNK N   1      29.385  18.555  -7.791  0.00  0.00     0.034 C 
ENDBRANCH  20  21
ENDBRANCH  18  20
BRANCH  12  23
HETATM   23  O   UNK N   1      31.374  22.103  -2.499  0.00  0.00    -0.389 OA
HETATM   24  H   UNK N   1      31.192  21.172  -2.708  0.00  0.00     0.210 HD
ENDBRANCH  12  23
TORSDOF 3
ENDMDL
MODEL 7
REMARK VINA RESULT:      -6.3      9.007     10.733
REMARK  3 active torsions:
REMARK  status: ('A' for Active; 'I' for Inactive)
REMARK    1  A    between atoms: C_14  and  O_2 
REMARK    2  A    between atoms: O_3  and  C_20 
REMARK    3  A    between atoms: O_3  and  C_22 
ROOT
HETATM    1  O   UNK N   1      29.817  16.848   6.722  0.00  0.00    -0.338 OA
HETATM    2  N   UNK N   1      33.870  14.266   5.188  0.00  0.00     0.089 N 
HETATM    3  C   UNK N   1      31.971  16.155   6.336  0.00  0.00     0.030 C 
HETATM    4  C   UNK N   1      33.463  16.420   6.331  0.00  0.00     0.057 C 
HETATM    5  C   UNK N   1      34.007  15.742   5.029  0.00  0.00     0.235 C 
HETATM    6  C   UNK N   1      31.118  17.166   7.118  0.00  0.00     0.175 C 
HETATM    7  C   UNK N   1      31.838  14.664   6.706  0.00  0.00     0.048 C 
HETATM    8  C   UNK N   1      31.230  16.322   5.097  0.00  0.00    -0.003 A 
HETATM    9  C   UNK N   1      33.264  16.148   3.701  0.00  0.00     0.075 C 
HETATM   10  C   UNK N   1      32.532  13.789   5.622  0.00  0.00     0.273 C 
HETATM   11  C   UNK N   1      31.754  16.264   3.835  0.00  0.00    -0.046 A 
HETATM   12  C   UNK N   1      31.769  17.408   8.476  0.00  0.00     0.171 C 
HETATM   13  C   UNK N   1      33.802  17.759   6.956  0.00  0.00    -0.020 C 
HETATM   14  C   UNK N   1      29.933  16.617   5.387  0.00  0.00     0.110 A 
HETATM   15  C   UNK N   1      33.089  18.138   8.075  0.00  0.00     0.004 C 
HETATM   16  C   UNK N   1      30.859  16.420   2.760  0.00  0.00     0.011 A 
HETATM   17  C   UNK N   1      34.880  13.725   6.093  0.00  0.00     0.310 C 
HETATM   18  C   UNK N   1      29.002  16.779   4.362  0.00  0.00     0.102 A 
HETATM   19  C   UNK N   1      29.478  16.646   3.023  0.00  0.00     0.040 A 
ENDROOT
BRANCH  18  20
HETATM   20  O   UNK N   1      27.722  17.119   4.642  0.00  0.00    -0.349 OA
BRANCH  20  21
HETATM   21  C   UNK N   1      27.109  18.223   4.092  0.00  0.00     0.171 C 
HETATM   22  C   UNK N   1      27.802  19.482   4.575  0.00  0.00     0.034 C 
ENDBRANCH  20  21
ENDBRANCH  18  20
BRANCH  12  23
HETATM   23  O   UNK N   1      30.981  18.269   9.240  0.00  0.00    -0.389 OA
HETATM   24  H   UNK N   1      30.063  18.453   8.980  0.00  0.00     0.210 HD
ENDBRANCH  12  23
TORSDOF 3
ENDMDL
MODEL 8
REMARK VINA RESULT:      -6.3      8.970     10.551
REMARK  3 active torsions:
REMARK  status: ('A' for Active; 'I' for Inactive)
REMARK    1  A    between atoms: C_14  and  O_2 
REMARK    2  A    between atoms: O_3  and  C_20 
REMARK    3  A    between atoms: O_3  and  C_22 
ROOT
HETATM    1  O   UNK N   1      30.873  16.117   8.157  0.00  0.00    -0.338 OA
HETATM    2  N   UNK N   1      32.681  15.250   3.528  0.00  0.00     0.089 N 
HETATM    3  C   UNK N   1      32.231  15.989   6.310  0.00  0.00     0.030 C 
HETATM    4  C   UNK N   1      33.496  16.377   5.572  0.00  0.00     0.057 C 
HETATM    5  C   UNK N   1      33.067  16.580   4.080  0.00  0.00     0.235 C 
HETATM    6  C   UNK N   1      32.213  16.312   7.813  0.00  0.00     0.175 C 
HETATM    7  C   UNK N   1      31.959  14.532   5.885  0.00  0.00     0.048 C 
HETATM    8  C   UNK N   1      31.007  16.719   6.027  0.00  0.00    -0.003 A 
HETATM    9  C   UNK N   1      31.851  17.557   3.859  0.00  0.00     0.075 C 
HETATM   10  C   UNK N   1      31.721  14.469   4.348  0.00  0.00     0.273 C 
HETATM   11  C   UNK N   1      30.735  17.414   4.880  0.00  0.00    -0.046 A 
HETATM   12  C   UNK N   1      33.528  15.848   8.429  0.00  0.00     0.171 C 
HETATM   13  C   UNK N   1      34.433  17.191   6.443  0.00  0.00    -0.020 C 
HETATM   14  C   UNK N   1      30.190  16.662   7.114  0.00  0.00     0.110 A 
HETATM   15  C   UNK N   1      34.555  16.819   7.767  0.00  0.00     0.004 C 
HETATM   16  C   UNK N   1      29.472  18.028   4.786  0.00  0.00     0.011 A 
HETATM   17  C   UNK N   1      33.851  14.421   3.255  0.00  0.00     0.310 C 
HETATM   18  C   UNK N   1      28.927  17.251   7.077  0.00  0.00     0.102 A 
HETATM   19  C   UNK N   1      28.555  17.920   5.871  0.00  0.00     0.040 A 
ENDROOT
BRANCH  18  20
HETATM   20  O   UNK N   1      28.129  17.240   8.170  0.00  0.00    -0.349 OA
BRANCH  20  21
HETATM   21  C   UNK N   1      28.032  18.311   9.031  0.00  0.00     0.171 C 
HETATM   22  C   UNK N   1      29.324  18.452   9.813  0.00  0.00     0.034 C 
ENDBRANCH  20  21
ENDBRANCH  18  20
BRANCH  12  23
HETATM   23  O   UNK N   1      33.515  16.062   9.807  0.00  0.00    -0.389 OA
HETATM   24  H   UNK N   1      32.917  16.722  10.194  0.00  0.00     0.210 HD
ENDBRANCH  12  23
TORSDOF 3
ENDMDL
MODEL 9
REMARK VINA RESULT:      -6.1     16.764     18.969
REMARK  3 active torsions:
REMARK  status: ('A' for Active; 'I' for Inactive)
REMARK    1  A    between atoms: C_14  and  O_2 
REMARK    2  A    between atoms: O_3  and  C_20 
REMARK    3  A    between atoms: O_3  and  C_22 
ROOT
HETATM    1  O   UNK N   1      28.241  23.617  -5.767  0.00  0.00    -0.338 OA
HETATM    2  N   UNK N   1      29.416  20.943  -9.881  0.00  0.00     0.089 N 
HETATM    3  C   UNK N   1      28.140  22.257  -7.615  0.00  0.00     0.030 C 
HETATM    4  C   UNK N   1      27.410  21.238  -8.466  0.00  0.00     0.057 C 
HETATM    5  C   UNK N   1      28.506  20.226  -8.943  0.00  0.00     0.235 C 
HETATM    6  C   UNK N   1      27.285  22.977  -6.560  0.00  0.00     0.175 C 
HETATM    7  C   UNK N   1      28.918  23.126  -8.624  0.00  0.00     0.048 C 
HETATM    8  C   UNK N   1      29.124  21.787  -6.655  0.00  0.00    -0.003 A 
HETATM    9  C   UNK N   1      29.394  19.610  -7.797  0.00  0.00     0.075 C 
HETATM   10  C   UNK N   1      29.943  22.243  -9.396  0.00  0.00     0.273 C 
HETATM   11  C   UNK N   1      29.796  20.597  -6.714  0.00  0.00    -0.046 A 
HETATM   12  C   UNK N   1      25.989  23.443  -7.215  0.00  0.00     0.171 C 
HETATM   13  C   UNK N   1      25.997  20.994  -7.971  0.00  0.00    -0.020 C 
HETATM   14  C   UNK N   1      29.227  22.689  -5.641  0.00  0.00     0.110 A 
HETATM   15  C   UNK N   1      25.281  22.087  -7.529  0.00  0.00     0.004 C 
HETATM   16  C   UNK N   1      30.738  20.341  -5.699  0.00  0.00     0.011 A 
HETATM   17  C   UNK N   1      28.793  21.144 -11.187  0.00  0.00     0.310 C 
HETATM   18  C   UNK N   1      30.145  22.488  -4.611  0.00  0.00     0.102 A 
HETATM   19  C   UNK N   1      30.936  21.300  -4.666  0.00  0.00     0.040 A 
ENDROOT
BRANCH  18  20
HETATM   20  O   UNK N   1      30.220  23.357  -3.576  0.00  0.00    -0.349 OA
BRANCH  20  21
HETATM   21  C   UNK N   1      30.086  22.961  -2.263  0.00  0.00     0.171 C 
HETATM   22  C   UNK N   1      28.627  23.033  -1.858  0.00  0.00     0.034 C 
ENDBRANCH  20  21
ENDBRANCH  18  20
BRANCH  12  23
HETATM   23  O   UNK N   1      25.220  24.163  -6.301  0.00  0.00    -0.389 OA
HETATM   24  H   UNK N   1      25.648  24.659  -5.585  0.00  0.00     0.210 HD
ENDBRANCH  12  23
TORSDOF 3
ENDMDL
