MODEL 1
REMARK VINA RESULT:      -5.0      0.000      0.000
REMARK  6 active torsions:
REMARK  status: ('A' for Active; 'I' for Inactive)
REMARK    1  A    between atoms: O_1  and  C_8 
REMARK    2  A    between atoms: O_2  and  C_10 
REMARK    3  A    between atoms: N_3  and  C_6 
REMARK    4  A    between atoms: C_4  and  C_5 
REMARK    5  A    between atoms: C_4  and  C_6 
REMARK    6  A    between atoms: C_7  and  C_12 
ROOT
HETATM    1  C   UNK N   1      30.074  17.253   6.674  0.00  0.00    -0.020 A 
HETATM    2  C   UNK N   1      31.908  17.183   4.515  0.00  0.00    -0.022 A 
HETATM    3  C   UNK N   1      29.595  17.240   5.334  0.00  0.00     0.075 A 
HETATM    4  C   UNK N   1      31.456  17.236   6.896  0.00  0.00     0.047 A 
HETATM    5  C   UNK N   1      32.384  17.200   5.855  0.00  0.00     0.075 A 
HETATM    6  C   UNK N   1      30.524  17.207   4.289  0.00  0.00     0.047 A 
ENDROOT
BRANCH   1   7
HETATM    7  C   UNK N   1      29.135  17.244   7.862  0.00  0.00     0.065 C 
BRANCH   7   8
HETATM    8  C   UNK N   1      28.892  18.579   8.571  0.00  0.00     0.074 C 
HETATM    9  C   UNK N   1      29.766  18.748   9.802  0.00  0.00     0.032 C 
BRANCH   8  10
HETATM   10  N   UNK N   1      27.502  18.640   8.986  0.00  0.00    -0.426 N 
HETATM   11  H   UNK N   1      27.064  19.542   9.173  0.00  0.00     0.150 HD
HETATM   12  H   UNK N   1      26.964  17.780   9.091  0.00  0.00     0.150 HD
ENDBRANCH   8  10
ENDBRANCH   7   8
ENDBRANCH   1   7
BRANCH   3  13
HETATM   13  O   UNK N   1      28.280  17.259   4.984  0.00  0.00    -0.355 OA
HETATM   14  C   UNK N   1      27.538  18.362   4.633  0.00  0.00     0.210 C 
ENDBRANCH   3  13
BRANCH   5  15
HETATM   15  O   UNK N   1      33.698  17.175   6.209  0.00  0.00    -0.355 OA
HETATM   16  C   UNK N   1      34.246  17.646   7.378  0.00  0.00     0.210 C 
ENDBRANCH   5  15
BRANCH   2  17
HETATM   17  C   UNK N   1      32.851  17.137   3.336  0.00  0.00     0.037 C 
HETATM   18  C   UNK N   1      33.360  15.747   2.976  0.00  0.00     0.010 C 
ENDBRANCH   2  17
TORSDOF 6
ENDMDL
MODEL 2
REMARK VINA RESULT:      -5.0      2.649      5.023
REMARK  6 active torsions:
REMARK  status: ('A' for Active; 'I' for Inactive)
REMARK    1  A    between atoms: O_1  and  C_8 
REMARK    2  A    between atoms: O_2  and  C_10 
REMARK    3  A    between atoms: N_3  and  C_6 
REMARK    4  A    between atoms: C_4  and  C_5 
REMARK    5  A    between atoms: C_4  and  C_6 
REMARK    6  A    between atoms: C_7  and  C_12 
ROOT
HETATM    1  C   UNK N   1      33.124  17.548   7.845  0.00  0.00    -0.020 A 
HETATM    2  C   UNK N   1      30.677  17.159   6.470  0.00  0.00    -0.022 A 
HETATM    3  C   UNK N   1      33.129  17.077   6.502  0.00  0.00     0.075 A 
HETATM    4  C   UNK N   1      31.894  17.805   8.464  0.00  0.00     0.047 A 
HETATM    5  C   UNK N   1      30.674  17.625   7.814  0.00  0.00     0.075 A 
HETATM    6  C   UNK N   1      31.906  16.893   5.849  0.00  0.00     0.047 A 
ENDROOT
BRANCH   1   7
HETATM    7  C   UNK N   1      34.404  17.815   8.607  0.00  0.00     0.065 C 
BRANCH   7   8
HETATM    8  C   UNK N   1      34.979  16.662   9.436  0.00  0.00     0.074 C 
HETATM    9  C   UNK N   1      34.101  15.423   9.390  0.00  0.00     0.032 C 
BRANCH   8  10
HETATM   10  N   UNK N   1      35.091  17.092  10.817  0.00  0.00    -0.426 N 
HETATM   11  H   UNK N   1      35.671  17.897  11.056  0.00  0.00     0.150 HD
HETATM   12  H   UNK N   1      34.592  16.588  11.550  0.00  0.00     0.150 HD
ENDBRANCH   8  10
ENDBRANCH   7   8
ENDBRANCH   1   7
BRANCH   3  13
HETATM   13  O   UNK N   1      34.253  16.787   5.791  0.00  0.00    -0.355 OA
HETATM   14  C   UNK N   1      34.821  15.546   5.622  0.00  0.00     0.210 C 
ENDBRANCH   3  13
BRANCH   5  15
HETATM   15  O   UNK N   1      29.553  17.923   8.526  0.00  0.00    -0.355 OA
HETATM   16  C   UNK N   1      29.497  18.515   9.765  0.00  0.00     0.210 C 
ENDBRANCH   5  15
BRANCH   2  17
HETATM   17  C   UNK N   1      29.396  16.946   5.698  0.00  0.00     0.037 C 
HETATM   18  C   UNK N   1      29.009  18.092   4.771  0.00  0.00     0.010 C 
ENDBRANCH   2  17
TORSDOF 6
ENDMDL
MODEL 3
REMARK VINA RESULT:      -4.9      2.328      5.052
REMARK  6 active torsions:
REMARK  status: ('A' for Active; 'I' for Inactive)
REMARK    1  A    between atoms: O_1  and  C_8 
REMARK    2  A    between atoms: O_2  and  C_10 
REMARK    3  A    between atoms: N_3  and  C_6 
REMARK    4  A    between atoms: C_4  and  C_5 
REMARK    5  A    between atoms: C_4  and  C_6 
REMARK    6  A    between atoms: C_7  and  C_12 
ROOT
HETATM    1  C   UNK N   1      28.530  18.295   6.750  0.00  0.00    -0.020 A 
HETATM    2  C   UNK N   1      27.330  19.726   4.618  0.00  0.00    -0.022 A 
HETATM    3  C   UNK N   1      28.634  17.807   5.417  0.00  0.00     0.075 A 
HETATM    4  C   UNK N   1      27.823  19.483   6.978  0.00  0.00     0.047 A 
HETATM    5  C   UNK N   1      27.224  20.210   5.951  0.00  0.00     0.075 A 
HETATM    6  C   UNK N   1      28.031  18.533   4.386  0.00  0.00     0.047 A 
ENDROOT
BRANCH   1   7
HETATM    7  C   UNK N   1      29.191  17.594   7.917  0.00  0.00     0.065 C 
BRANCH   7   8
HETATM    8  C   UNK N   1      30.219  18.394   8.724  0.00  0.00     0.074 C 
HETATM    9  C   UNK N   1      31.632  17.868   8.542  0.00  0.00     0.032 C 
BRANCH   8  10
HETATM   10  N   UNK N   1      29.875  18.307  10.131  0.00  0.00    -0.426 N 
HETATM   11  H   UNK N   1      30.216  17.526  10.693  0.00  0.00     0.150 HD
HETATM   12  H   UNK N   1      29.293  19.027  10.559  0.00  0.00     0.150 HD
ENDBRANCH   8  10
ENDBRANCH   7   8
ENDBRANCH   1   7
BRANCH   3  13
HETATM   13  O   UNK N   1      29.287  16.667   5.063  0.00  0.00    -0.355 OA
HETATM   14  C   UNK N   1      30.494  16.580   4.410  0.00  0.00     0.210 C 
ENDBRANCH   3  13
BRANCH   5  15
HETATM   15  O   UNK N   1      26.577  21.353   6.309  0.00  0.00    -0.355 OA
HETATM   16  C   UNK N   1      25.992  21.624   7.523  0.00  0.00     0.210 C 
ENDBRANCH   5  15
BRANCH   2  17
HETATM   17  C   UNK N   1      26.713  20.462   3.452  0.00  0.00     0.037 C 
HETATM   18  C   UNK N   1      25.246  20.140   3.195  0.00  0.00     0.010 C 
ENDBRANCH   2  17
TORSDOF 6
ENDMDL
MODEL 4
REMARK VINA RESULT:      -4.9      1.543      3.509
REMARK  6 active torsions:
REMARK  status: ('A' for Active; 'I' for Inactive)
REMARK    1  A    between atoms: O_1  and  C_8 
REMARK    2  A    between atoms: O_2  and  C_10 
REMARK    3  A    between atoms: N_3  and  C_6 
REMARK    4  A    between atoms: C_4  and  C_5 
REMARK    5  A    between atoms: C_4  and  C_6 
REMARK    6  A    between atoms: C_7  and  C_12 
ROOT
HETATM    1  C   UNK N   1      29.749  17.109   6.474  0.00  0.00    -0.020 A 
HETATM    2  C   UNK N   1      32.555  17.341   6.786  0.00  0.00    -0.022 A 
HETATM    3  C   UNK N   1      30.300  17.420   7.749  0.00  0.00     0.075 A 
HETATM    4  C   UNK N   1      30.618  16.917   5.393  0.00  0.00     0.047 A 
HETATM    5  C   UNK N   1      32.003  17.026   5.514  0.00  0.00     0.075 A 
HETATM    6  C   UNK N   1      31.689  17.528   7.873  0.00  0.00     0.047 A 
ENDROOT
BRANCH   1   7
HETATM    7  C   UNK N   1      28.255  17.018   6.245  0.00  0.00     0.065 C 
BRANCH   7   8
HETATM    8  C   UNK N   1      27.513  18.324   5.946  0.00  0.00     0.074 C 
HETATM    9  C   UNK N   1      28.251  19.192   4.941  0.00  0.00     0.032 C 
BRANCH   8  10
HETATM   10  N   UNK N   1      27.372  19.074   7.181  0.00  0.00    -0.426 N 
HETATM   11  H   UNK N   1      26.448  19.221   7.587  0.00  0.00     0.150 HD
HETATM   12  H   UNK N   1      28.198  19.455   7.643  0.00  0.00     0.150 HD
ENDBRANCH   8  10
ENDBRANCH   7   8
ENDBRANCH   1   7
BRANCH   3  13
HETATM   13  O   UNK N   1      29.566  17.626   8.876  0.00  0.00    -0.355 OA
HETATM   14  C   UNK N   1      29.740  18.631   9.799  0.00  0.00     0.210 C 
ENDBRANCH   3  13
BRANCH   5  15
HETATM   15  O   UNK N   1      32.733  16.826   4.383  0.00  0.00    -0.355 OA
HETATM   16  C   UNK N   1      32.323  17.042   3.088  0.00  0.00     0.210 C 
ENDBRANCH   5  15
BRANCH   2  17
HETATM   17  C   UNK N   1      34.045  17.483   6.994  0.00  0.00     0.037 C 
HETATM   18  C   UNK N   1      34.447  18.360   8.174  0.00  0.00     0.010 C 
ENDBRANCH   2  17
TORSDOF 6
ENDMDL
MODEL 5
REMARK VINA RESULT:      -4.9     13.382     15.553
REMARK  6 active torsions:
REMARK  status: ('A' for Active; 'I' for Inactive)
REMARK    1  A    between atoms: O_1  and  C_8 
REMARK    2  A    between atoms: O_2  and  C_10 
REMARK    3  A    between atoms: N_3  and  C_6 
REMARK    4  A    between atoms: C_4  and  C_5 
REMARK    5  A    between atoms: C_4  and  C_6 
REMARK    6  A    between atoms: C_7  and  C_12 
ROOT
HETATM    1  C   UNK N   1      26.513  26.066  -5.579  0.00  0.00    -0.020 A 
HETATM    2  C   UNK N   1      25.717  23.865  -7.177  0.00  0.00    -0.022 A 
HETATM    3  C   UNK N   1      26.233  24.809  -4.972  0.00  0.00     0.075 A 
HETATM    4  C   UNK N   1      26.381  26.187  -6.968  0.00  0.00     0.047 A 
HETATM    5  C   UNK N   1      25.993  25.123  -7.782  0.00  0.00     0.075 A 
HETATM    6  C   UNK N   1      25.841  23.742  -5.786  0.00  0.00     0.047 A 
ENDROOT
BRANCH   1   7
HETATM    7  C   UNK N   1      26.985  27.259  -4.776  0.00  0.00     0.065 C 
BRANCH   7   8
HETATM    8  C   UNK N   1      25.924  28.042  -3.996  0.00  0.00     0.074 C 
HETATM    9  C   UNK N   1      26.243  29.525  -3.915  0.00  0.00     0.032 C 
BRANCH   8  10
HETATM   10  N   UNK N   1      25.854  27.515  -2.646  0.00  0.00    -0.426 N 
HETATM   11  H   UNK N   1      26.622  27.679  -1.993  0.00  0.00     0.150 HD
HETATM   12  H   UNK N   1      25.039  26.978  -2.349  0.00  0.00     0.150 HD
ENDBRANCH   8  10
ENDBRANCH   7   8
ENDBRANCH   1   7
BRANCH   3  13
HETATM   13  O   UNK N   1      26.319  24.562  -3.636  0.00  0.00    -0.355 OA
HETATM   14  C   UNK N   1      27.393  24.023  -2.968  0.00  0.00     0.210 C 
ENDBRANCH   3  13
BRANCH   5  15
HETATM   15  O   UNK N   1      25.915  25.372  -9.117  0.00  0.00    -0.355 OA
HETATM   16  C   UNK N   1      26.965  25.494  -9.996  0.00  0.00     0.210 C 
ENDBRANCH   5  15
BRANCH   2  17
HETATM   17  C   UNK N   1      25.299  22.665  -7.993  0.00  0.00     0.037 C 
HETATM   18  C   UNK N   1      24.726  21.508  -7.184  0.00  0.00     0.010 C 
ENDBRANCH   2  17
TORSDOF 6
ENDMDL
MODEL 6
REMARK VINA RESULT:      -4.8      6.280      8.869
REMARK  6 active torsions:
REMARK  status: ('A' for Active; 'I' for Inactive)
REMARK    1  A    between atoms: O_1  and  C_8 
REMARK    2  A    between atoms: O_2  and  C_10 
REMARK    3  A    between atoms: N_3  and  C_6 
REMARK    4  A    between atoms: C_4  and  C_5 
REMARK    5  A    between atoms: C_4  and  C_6 
REMARK    6  A    between atoms: C_7  and  C_12 
ROOT
HETATM    1  C   UNK N   1      22.103  19.045   3.664  0.00  0.00    -0.020 A 
HETATM    2  C   UNK N   1      24.827  19.819   3.559  0.00  0.00    -0.022 A 
HETATM    3  C   UNK N   1      22.486  20.202   2.930  0.00  0.00     0.075 A 
HETATM    4  C   UNK N   1      23.094  18.311   4.329  0.00  0.00     0.047 A 
HETATM    5  C   UNK N   1      24.442  18.665   4.295  0.00  0.00     0.075 A 
HETATM    6  C   UNK N   1      23.837  20.561   2.897  0.00  0.00     0.047 A 
ENDROOT
BRANCH   1   7
HETATM    7  C   UNK N   1      20.669  18.563   3.714  0.00  0.00     0.065 C 
BRANCH   7   8
HETATM    8  C   UNK N   1      20.388  17.149   3.196  0.00  0.00     0.074 C 
HETATM    9  C   UNK N   1      20.173  17.116   1.693  0.00  0.00     0.032 C 
BRANCH   8  10
HETATM   10  N   UNK N   1      19.188  16.647   3.841  0.00  0.00    -0.426 N 
HETATM   11  H   UNK N   1      18.748  17.183   4.590  0.00  0.00     0.150 HD
HETATM   12  H   UNK N   1      18.784  15.759   3.545  0.00  0.00     0.150 HD
ENDBRANCH   8  10
ENDBRANCH   7   8
ENDBRANCH   1   7
BRANCH   3  13
HETATM   13  O   UNK N   1      21.623  21.001   2.246  0.00  0.00    -0.355 OA
HETATM   14  C   UNK N   1      21.010  20.714   1.049  0.00  0.00     0.210 C 
ENDBRANCH   3  13
BRANCH   5  15
HETATM   15  O   UNK N   1      25.303  17.860   4.975  0.00  0.00    -0.355 OA
HETATM   16  C   UNK N   1      25.831  16.666   4.543  0.00  0.00     0.210 C 
ENDBRANCH   5  15
BRANCH   2  17
HETATM   17  C   UNK N   1      26.268  20.262   3.469  0.00  0.00     0.037 C 
HETATM   18  C   UNK N   1      26.870  20.753   4.780  0.00  0.00     0.010 C 
ENDBRANCH   2  17
TORSDOF 6
ENDMDL
MODEL 7
REMARK VINA RESULT:      -4.7      9.668     10.686
REMARK  6 active torsions:
REMARK  status: ('A' for Active; 'I' for Inactive)
REMARK    1  A    between atoms: O_1  and  C_8 
REMARK    2  A    between atoms: O_2  and  C_10 
REMARK    3  A    between atoms: N_3  and  C_6 
REMARK    4  A    between atoms: C_4  and  C_5 
REMARK    5  A    between atoms: C_4  and  C_6 
REMARK    6  A    between atoms: C_7  and  C_12 
ROOT
HETATM    1  C   UNK N   1      21.536  13.274   9.412  0.00  0.00    -0.020 A 
HETATM    2  C   UNK N   1      21.555  15.082   7.230  0.00  0.00    -0.022 A 
HETATM    3  C   UNK N   1      22.028  12.854   8.144  0.00  0.00     0.075 A 
HETATM    4  C   UNK N   1      21.063  14.584   9.551  0.00  0.00     0.047 A 
HETATM    5  C   UNK N   1      21.061  15.498   8.497  0.00  0.00     0.075 A 
HETATM    6  C   UNK N   1      22.024  13.768   7.085  0.00  0.00     0.047 A 
ENDROOT
BRANCH   1   7
HETATM    7  C   UNK N   1      21.547  12.361  10.619  0.00  0.00     0.065 C 
BRANCH   7   8
HETATM    8  C   UNK N   1      22.915  11.916  11.148  0.00  0.00     0.074 C 
HETATM    9  C   UNK N   1      22.970  11.900  12.666  0.00  0.00     0.032 C 
BRANCH   8  10
HETATM   10  N   UNK N   1      23.924  12.838  10.663  0.00  0.00    -0.426 N 
HETATM   11  H   UNK N   1      23.739  13.412   9.839  0.00  0.00     0.150 HD
HETATM   12  H   UNK N   1      24.820  12.913  11.145  0.00  0.00     0.150 HD
ENDBRANCH   8  10
ENDBRANCH   7   8
ENDBRANCH   1   7
BRANCH   3  13
HETATM   13  O   UNK N   1      22.510  11.610   7.877  0.00  0.00    -0.355 OA
HETATM   14  C   UNK N   1      23.735  11.302   7.333  0.00  0.00     0.210 C 
ENDBRANCH   3  13
BRANCH   5  15
HETATM   15  O   UNK N   1      20.584  16.743   8.770  0.00  0.00    -0.355 OA
HETATM   16  C   UNK N   1      19.266  17.132   8.806  0.00  0.00     0.210 C 
ENDBRANCH   5  15
BRANCH   2  17
HETATM   17  C   UNK N   1      21.591  16.017   6.044  0.00  0.00     0.037 C 
HETATM   18  C   UNK N   1      20.725  15.590   4.865  0.00  0.00     0.010 C 
ENDBRANCH   2  17
TORSDOF 6
ENDMDL
MODEL 8
REMARK VINA RESULT:      -4.6      2.433      4.087
REMARK  6 active torsions:
REMARK  status: ('A' for Active; 'I' for Inactive)
REMARK    1  A    between atoms: O_1  and  C_8 
REMARK    2  A    between atoms: O_2  and  C_10 
REMARK    3  A    between atoms: N_3  and  C_6 
REMARK    4  A    between atoms: C_4  and  C_5 
REMARK    5  A    between atoms: C_4  and  C_6 
REMARK    6  A    between atoms: C_7  and  C_12 
ROOT
HETATM    1  C   UNK N   1      31.895  17.092   7.481  0.00  0.00    -0.020 A 
HETATM    2  C   UNK N   1      29.970  17.476   5.438  0.00  0.00    -0.022 A 
HETATM    3  C   UNK N   1      30.516  17.201   7.814  0.00  0.00     0.075 A 
HETATM    4  C   UNK N   1      32.273  17.184   6.136  0.00  0.00     0.047 A 
HETATM    5  C   UNK N   1      31.350  17.371   5.107  0.00  0.00     0.075 A 
HETATM    6  C   UNK N   1      29.589  17.391   6.784  0.00  0.00     0.047 A 
ENDROOT
BRANCH   1   7
HETATM    7  C   UNK N   1      32.957  16.841   8.530  0.00  0.00     0.065 C 
BRANCH   7   8
HETATM    8  C   UNK N   1      33.085  15.413   9.069  0.00  0.00     0.074 C 
HETATM    9  C   UNK N   1      32.771  14.366   8.013  0.00  0.00     0.032 C 
BRANCH   8  10
HETATM   10  N   UNK N   1      32.154  15.245  10.169  0.00  0.00    -0.426 N 
HETATM   11  H   UNK N   1      31.181  15.538  10.065  0.00  0.00     0.150 HD
HETATM   12  H   UNK N   1      32.471  14.835  11.048  0.00  0.00     0.150 HD
ENDBRANCH   8  10
ENDBRANCH   7   8
ENDBRANCH   1   7
BRANCH   3  13
HETATM   13  O   UNK N   1      30.021  17.133   9.080  0.00  0.00    -0.355 OA
HETATM   14  C   UNK N   1      28.919  17.796   9.568  0.00  0.00     0.210 C 
ENDBRANCH   3  13
BRANCH   5  15
HETATM   15  O   UNK N   1      31.848  17.431   3.842  0.00  0.00    -0.355 OA
HETATM   16  C   UNK N   1      32.886  16.689   3.329  0.00  0.00     0.210 C 
ENDBRANCH   5  15
BRANCH   2  17
HETATM   17  C   UNK N   1      28.911  17.672   4.379  0.00  0.00     0.037 C 
HETATM   18  C   UNK N   1      28.016  18.888   4.584  0.00  0.00     0.010 C 
ENDBRANCH   2  17
TORSDOF 6
ENDMDL
MODEL 9
REMARK VINA RESULT:      -4.6      5.041      8.949
REMARK  6 active torsions:
REMARK  status: ('A' for Active; 'I' for Inactive)
REMARK    1  A    between atoms: O_1  and  C_8 
REMARK    2  A    between atoms: O_2  and  C_10 
REMARK    3  A    between atoms: N_3  and  C_6 
REMARK    4  A    between atoms: C_4  and  C_5 
REMARK    5  A    between atoms: C_4  and  C_6 
REMARK    6  A    between atoms: C_7  and  C_12 
ROOT
HETATM    1  C   UNK N   1      24.712  19.635   3.475  0.00  0.00    -0.020 A 
HETATM    2  C   UNK N   1      22.064  18.633   3.591  0.00  0.00    -0.022 A 
HETATM    3  C   UNK N   1      24.475  18.298   3.903  0.00  0.00     0.075 A 
HETATM    4  C   UNK N   1      23.616  20.434   3.123  0.00  0.00     0.047 A 
HETATM    5  C   UNK N   1      22.302  19.969   3.167  0.00  0.00     0.075 A 
HETATM    6  C   UNK N   1      23.157  17.832   3.951  0.00  0.00     0.047 A 
ENDROOT
BRANCH   1   7
HETATM    7  C   UNK N   1      26.109  20.203   3.352  0.00  0.00     0.065 C 
BRANCH   7   8
HETATM    8  C   UNK N   1      26.857  20.509   4.654  0.00  0.00     0.074 C 
HETATM    9  C   UNK N   1      28.148  19.717   4.778  0.00  0.00     0.032 C 
BRANCH   8  10
HETATM   10  N   UNK N   1      26.001  20.168   5.774  0.00  0.00    -0.426 N 
HETATM   11  H   UNK N   1      24.986  20.173   5.663  0.00  0.00     0.150 HD
HETATM   12  H   UNK N   1      26.413  19.923   6.675  0.00  0.00     0.150 HD
ENDBRANCH   8  10
ENDBRANCH   7   8
ENDBRANCH   1   7
BRANCH   3  13
HETATM   13  O   UNK N   1      25.448  17.424   4.275  0.00  0.00    -0.355 OA
HETATM   14  C   UNK N   1      26.100  16.525   3.464  0.00  0.00     0.210 C 
ENDBRANCH   3  13
BRANCH   5  15
HETATM   15  O   UNK N   1      21.332  20.845   2.788  0.00  0.00    -0.355 OA
HETATM   16  C   UNK N   1      20.736  20.930   1.552  0.00  0.00     0.210 C 
ENDBRANCH   5  15
BRANCH   2  17
HETATM   17  C   UNK N   1      20.669  18.057   3.659  0.00  0.00     0.037 C 
HETATM   18  C   UNK N   1      20.235  17.282   2.420  0.00  0.00     0.010 C 
ENDBRANCH   2  17
TORSDOF 6
ENDMDL
