MODEL 1
REMARK VINA RESULT:      -5.0      0.000      0.000
REMARK  5 active torsions:
REMARK  status: ('A' for Active; 'I' for Inactive)
REMARK    1  A    between atoms: N_3  and  C_4 
REMARK    2  A    between atoms: N_3  and  C_6 
REMARK    3  A    between atoms: C_4  and  C_5 
REMARK    4  A    between atoms: C_8  and  C_11 
REMARK    5  A    between atoms: C_8  and  C_12 
ROOT
HETATM    1  C   UNK N   1      32.606  16.146   7.998  0.00  0.00     0.022 C 
HETATM    2  C   UNK N   1      31.706  16.706   7.163  0.00  0.00    -0.004 C 
ENDROOT
BRANCH   2   3
HETATM    3  C   UNK N   1      31.819  16.621   5.663  0.00  0.00     0.016 A 
HETATM    4  S   UNK N   1      31.213  15.425   4.686  0.00  0.00    -0.101 SA
HETATM    5  C   UNK N   1      31.710  15.963   3.200  0.00  0.00     0.050 A 
HETATM    6  C   UNK N   1      32.394  17.160   3.439  0.00  0.00     0.008 A 
HETATM    7  C   UNK N   1      32.457  17.531   4.814  0.00  0.00     0.020 A 
ENDBRANCH   2   3
BRANCH   2   8
HETATM    8  C   UNK N   1      30.575  17.441   7.801  0.00  0.00     0.016 A 
HETATM    9  S   UNK N   1      29.034  17.562   7.189  0.00  0.00    -0.101 SA
HETATM   10  C   UNK N   1      28.311  18.457   8.382  0.00  0.00     0.050 A 
HETATM   11  C   UNK N   1      29.306  18.696   9.338  0.00  0.00     0.008 A 
HETATM   12  C   UNK N   1      30.571  18.125   9.015  0.00  0.00     0.020 A 
ENDBRANCH   2   8
BRANCH   1  13
HETATM   13  C   UNK N   1      33.838  15.335   7.661  0.00  0.00     0.242 C 
HETATM   14  C   UNK N   1      33.578  13.877   8.033  0.00  0.00     0.047 C 
BRANCH  13  15
HETATM   15  N   UNK N   1      35.000  15.824   8.421  0.00  0.00     0.091 N 
HETATM   16  C   UNK N   1      35.637  14.725   9.142  0.00  0.00     0.310 C 
BRANCH  15  17
HETATM   17  C   UNK N   1      34.536  16.764   9.435  0.00  0.00     0.268 C 
HETATM   18  C   UNK N   1      35.324  16.579  10.720  0.00  0.00     0.037 C 
ENDBRANCH  15  17
ENDBRANCH  13  15
ENDBRANCH   1  13
TORSDOF 5
ENDMDL
MODEL 2
REMARK VINA RESULT:      -4.9      3.419      5.563
REMARK  5 active torsions:
REMARK  status: ('A' for Active; 'I' for Inactive)
REMARK    1  A    between atoms: N_3  and  C_4 
REMARK    2  A    between atoms: N_3  and  C_6 
REMARK    3  A    between atoms: C_4  and  C_5 
REMARK    4  A    between atoms: C_8  and  C_11 
REMARK    5  A    between atoms: C_8  and  C_12 
ROOT
HETATM    1  C   UNK N   1      29.991  16.763   4.426  0.00  0.00     0.022 C 
HETATM    2  C   UNK N   1      28.738  17.256   4.350  0.00  0.00    -0.004 C 
ENDROOT
BRANCH   2   3
HETATM    3  C   UNK N   1      28.296  18.482   5.106  0.00  0.00     0.016 A 
HETATM    4  S   UNK N   1      27.952  18.583   6.725  0.00  0.00    -0.101 SA
HETATM    5  C   UNK N   1      27.533  20.181   6.851  0.00  0.00     0.050 A 
HETATM    6  C   UNK N   1      27.662  20.709   5.562  0.00  0.00     0.008 A 
HETATM    7  C   UNK N   1      28.089  19.764   4.585  0.00  0.00     0.020 A 
ENDBRANCH   2   3
BRANCH   2   8
HETATM    8  C   UNK N   1      27.782  16.513   3.478  0.00  0.00     0.016 A 
HETATM    9  S   UNK N   1      28.165  15.216   2.511  0.00  0.00    -0.101 SA
HETATM   10  C   UNK N   1      26.674  14.874   1.871  0.00  0.00     0.050 A 
HETATM   11  C   UNK N   1      25.795  15.813   2.426  0.00  0.00     0.008 A 
HETATM   12  C   UNK N   1      26.413  16.727   3.327  0.00  0.00     0.020 A 
ENDBRANCH   2   8
BRANCH   1  13
HETATM   13  C   UNK N   1      31.176  17.292   5.204  0.00  0.00     0.242 C 
HETATM   14  C   UNK N   1      32.275  17.677   4.216  0.00  0.00     0.047 C 
BRANCH  13  15
HETATM   15  N   UNK N   1      31.693  16.263   6.120  0.00  0.00     0.091 N 
HETATM   16  C   UNK N   1      31.331  14.929   5.647  0.00  0.00     0.310 C 
BRANCH  15  17
HETATM   17  C   UNK N   1      31.050  16.424   7.419  0.00  0.00     0.268 C 
HETATM   18  C   UNK N   1      31.553  17.685   8.099  0.00  0.00     0.037 C 
ENDBRANCH  15  17
ENDBRANCH  13  15
ENDBRANCH   1  13
TORSDOF 5
ENDMDL
MODEL 3
REMARK VINA RESULT:      -4.9      1.796      4.307
REMARK  5 active torsions:
REMARK  status: ('A' for Active; 'I' for Inactive)
REMARK    1  A    between atoms: N_3  and  C_4 
REMARK    2  A    between atoms: N_3  and  C_6 
REMARK    3  A    between atoms: C_4  and  C_5 
REMARK    4  A    between atoms: C_8  and  C_11 
REMARK    5  A    between atoms: C_8  and  C_12 
ROOT
HETATM    1  C   UNK N   1      31.840  17.145   5.963  0.00  0.00     0.022 C 
HETATM    2  C   UNK N   1      31.784  17.155   7.311  0.00  0.00    -0.004 C 
ENDROOT
BRANCH   2   3
HETATM    3  C   UNK N   1      32.955  16.775   8.180  0.00  0.00     0.016 A 
HETATM    4  S   UNK N   1      33.311  15.264   8.763  0.00  0.00    -0.101 SA
HETATM    5  C   UNK N   1      34.690  15.585   9.625  0.00  0.00     0.050 A 
HETATM    6  C   UNK N   1      34.925  16.955   9.467  0.00  0.00     0.008 A 
HETATM    7  C   UNK N   1      33.958  17.623   8.660  0.00  0.00     0.020 A 
ENDBRANCH   2   3
BRANCH   2   8
HETATM    8  C   UNK N   1      30.482  17.555   7.920  0.00  0.00     0.016 A 
HETATM    9  S   UNK N   1      28.979  17.213   7.297  0.00  0.00    -0.101 SA
HETATM   10  C   UNK N   1      28.015  17.900   8.458  0.00  0.00     0.050 A 
HETATM   11  C   UNK N   1      28.888  18.439   9.411  0.00  0.00     0.008 A 
HETATM   12  C   UNK N   1      30.267  18.244   9.112  0.00  0.00     0.020 A 
ENDBRANCH   2   8
BRANCH   1  13
HETATM   13  C   UNK N   1      33.007  16.803   5.063  0.00  0.00     0.242 C 
HETATM   14  C   UNK N   1      32.764  17.430   3.692  0.00  0.00     0.047 C 
BRANCH  13  15
HETATM   15  N   UNK N   1      33.128  15.344   4.908  0.00  0.00     0.091 N 
HETATM   16  C   UNK N   1      34.522  14.931   5.046  0.00  0.00     0.310 C 
BRANCH  15  17
HETATM   17  C   UNK N   1      32.726  14.981   3.553  0.00  0.00     0.268 C 
HETATM   18  C   UNK N   1      31.749  13.820   3.592  0.00  0.00     0.037 C 
ENDBRANCH  15  17
ENDBRANCH  13  15
ENDBRANCH   1  13
TORSDOF 5
ENDMDL
MODEL 4
REMARK VINA RESULT:      -4.8      2.721      4.138
REMARK  5 active torsions:
REMARK  status: ('A' for Active; 'I' for Inactive)
REMARK    1  A    between atoms: N_3  and  C_4 
REMARK    2  A    between atoms: N_3  and  C_6 
REMARK    3  A    between atoms: C_4  and  C_5 
REMARK    4  A    between atoms: C_8  and  C_11 
REMARK    5  A    between atoms: C_8  and  C_12 
ROOT
HETATM    1  C   UNK N   1      30.610  17.181   5.872  0.00  0.00     0.022 C 
HETATM    2  C   UNK N   1      29.410  17.271   5.262  0.00  0.00    -0.004 C 
ENDROOT
BRANCH   2   3
HETATM    3  C   UNK N   1      28.906  16.232   4.294  0.00  0.00     0.016 A 
HETATM    4  S   UNK N   1      28.002  14.890   4.657  0.00  0.00    -0.101 SA
HETATM    5  C   UNK N   1      27.829  14.220   3.151  0.00  0.00     0.050 A 
HETATM    6  C   UNK N   1      28.505  15.077   2.276  0.00  0.00     0.008 A 
HETATM    7  C   UNK N   1      29.107  16.202   2.910  0.00  0.00     0.020 A 
ENDBRANCH   2   3
BRANCH   2   8
HETATM    8  C   UNK N   1      28.589  18.474   5.582  0.00  0.00     0.016 A 
HETATM    9  S   UNK N   1      28.098  18.931   7.104  0.00  0.00    -0.101 SA
HETATM   10  C   UNK N   1      27.281  20.328   6.743  0.00  0.00     0.050 A 
HETATM   11  C   UNK N   1      27.378  20.481   5.354  0.00  0.00     0.008 A 
HETATM   12  C   UNK N   1      28.112  19.447   4.706  0.00  0.00     0.020 A 
ENDBRANCH   2   8
BRANCH   1  13
HETATM   13  C   UNK N   1      31.652  16.089   5.764  0.00  0.00     0.242 C 
HETATM   14  C   UNK N   1      31.711  15.341   7.094  0.00  0.00     0.047 C 
BRANCH  13  15
HETATM   15  N   UNK N   1      32.976  16.666   5.479  0.00  0.00     0.091 N 
HETATM   16  C   UNK N   1      33.381  17.570   6.552  0.00  0.00     0.310 C 
BRANCH  15  17
HETATM   17  C   UNK N   1      32.884  17.479   4.271  0.00  0.00     0.268 C 
HETATM   18  C   UNK N   1      32.884  16.590   3.041  0.00  0.00     0.037 C 
ENDBRANCH  15  17
ENDBRANCH  13  15
ENDBRANCH   1  13
TORSDOF 5
ENDMDL
MODEL 5
REMARK VINA RESULT:      -4.8     13.097     16.299
REMARK  5 active torsions:
REMARK  status: ('A' for Active; 'I' for Inactive)
REMARK    1  A    between atoms: N_3  and  C_4 
REMARK    2  A    between atoms: N_3  and  C_6 
REMARK    3  A    between atoms: C_4  and  C_5 
REMARK    4  A    between atoms: C_8  and  C_11 
REMARK    5  A    between atoms: C_8  and  C_12 
ROOT
HETATM    1  C   UNK N   1      27.663  23.352  -5.905  0.00  0.00     0.022 C 
HETATM    2  C   UNK N   1      28.182  23.971  -4.825  0.00  0.00    -0.004 C 
ENDROOT
BRANCH   2   3
HETATM    3  C   UNK N   1      27.681  25.301  -4.326  0.00  0.00     0.016 A 
HETATM    4  S   UNK N   1      28.427  26.773  -4.499  0.00  0.00    -0.101 SA
HETATM    5  C   UNK N   1      27.345  27.758  -3.721  0.00  0.00     0.050 A 
HETATM    6  C   UNK N   1      26.314  26.919  -3.286  0.00  0.00     0.008 A 
HETATM    7  C   UNK N   1      26.497  25.546  -3.623  0.00  0.00     0.020 A 
ENDBRANCH   2   3
BRANCH   2   8
HETATM    8  C   UNK N   1      29.307  23.274  -4.136  0.00  0.00     0.016 A 
HETATM    9  S   UNK N   1      30.196  22.018  -4.766  0.00  0.00    -0.101 SA
HETATM   10  C   UNK N   1      31.265  21.761  -3.525  0.00  0.00     0.050 A 
HETATM   11  C   UNK N   1      30.938  22.699  -2.537  0.00  0.00     0.008 A 
HETATM   12  C   UNK N   1      29.846  23.547  -2.880  0.00  0.00     0.020 A 
ENDBRANCH   2   8
BRANCH   1  13
HETATM   13  C   UNK N   1      26.522  23.792  -6.796  0.00  0.00     0.242 C 
HETATM   14  C   UNK N   1      25.599  22.599  -7.031  0.00  0.00     0.047 C 
BRANCH  13  15
HETATM   15  N   UNK N   1      27.033  24.265  -8.093  0.00  0.00     0.091 N 
HETATM   16  C   UNK N   1      28.360  23.712  -8.351  0.00  0.00     0.310 C 
BRANCH  15  17
HETATM   17  C   UNK N   1      27.197  25.713  -8.033  0.00  0.00     0.268 C 
HETATM   18  C   UNK N   1      25.950  26.358  -7.456  0.00  0.00     0.037 C 
ENDBRANCH  15  17
ENDBRANCH  13  15
ENDBRANCH   1  13
TORSDOF 5
ENDMDL
MODEL 6
REMARK VINA RESULT:      -4.8      3.883      7.144
REMARK  5 active torsions:
REMARK  status: ('A' for Active; 'I' for Inactive)
REMARK    1  A    between atoms: N_3  and  C_4 
REMARK    2  A    between atoms: N_3  and  C_6 
REMARK    3  A    between atoms: C_4  and  C_5 
REMARK    4  A    between atoms: C_8  and  C_11 
REMARK    5  A    between atoms: C_8  and  C_12 
ROOT
HETATM    1  C   UNK N   1      28.497  17.749   4.281  0.00  0.00     0.022 C 
HETATM    2  C   UNK N   1      29.521  16.888   4.111  0.00  0.00    -0.004 C 
ENDROOT
BRANCH   2   3
HETATM    3  C   UNK N   1      30.880  17.103   4.726  0.00  0.00     0.016 A 
HETATM    4  S   UNK N   1      31.312  16.831   6.304  0.00  0.00    -0.101 SA
HETATM    5  C   UNK N   1      32.906  17.282   6.267  0.00  0.00     0.050 A 
HETATM    6  C   UNK N   1      33.159  17.672   4.947  0.00  0.00     0.008 A 
HETATM    7  C   UNK N   1      32.030  17.573   4.083  0.00  0.00     0.020 A 
ENDBRANCH   2   3
BRANCH   2   8
HETATM    8  C   UNK N   1      29.251  15.692   3.261  0.00  0.00     0.016 A 
HETATM    9  S   UNK N   1      30.268  14.391   3.071  0.00  0.00    -0.101 SA
HETATM   10  C   UNK N   1      29.358  13.450   2.054  0.00  0.00     0.050 A 
HETATM   11  C   UNK N   1      28.175  14.165   1.826  0.00  0.00     0.008 A 
HETATM   12  C   UNK N   1      28.113  15.416   2.503  0.00  0.00     0.020 A 
ENDBRANCH   2   8
BRANCH   1  13
HETATM   13  C   UNK N   1      28.455  19.028   5.088  0.00  0.00     0.242 C 
HETATM   14  C   UNK N   1      27.831  18.725   6.448  0.00  0.00     0.047 C 
BRANCH  13  15
HETATM   15  N   UNK N   1      27.639  20.044   4.402  0.00  0.00     0.091 N 
HETATM   16  C   UNK N   1      27.063  20.974   5.370  0.00  0.00     0.310 C 
BRANCH  15  17
HETATM   17  C   UNK N   1      26.513  19.381   3.752  0.00  0.00     0.268 C 
HETATM   18  C   UNK N   1      25.688  20.393   2.978  0.00  0.00     0.037 C 
ENDBRANCH  15  17
ENDBRANCH  13  15
ENDBRANCH   1  13
TORSDOF 5
ENDMDL
MODEL 7
REMARK VINA RESULT:      -4.7      2.089      4.368
REMARK  5 active torsions:
REMARK  status: ('A' for Active; 'I' for Inactive)
REMARK    1  A    between atoms: N_3  and  C_4 
REMARK    2  A    between atoms: N_3  and  C_6 
REMARK    3  A    between atoms: C_4  and  C_5 
REMARK    4  A    between atoms: C_8  and  C_11 
REMARK    5  A    between atoms: C_8  and  C_12 
ROOT
HETATM    1  C   UNK N   1      31.469  16.746   5.810  0.00  0.00     0.022 C 
HETATM    2  C   UNK N   1      31.585  16.765   7.154  0.00  0.00    -0.004 C 
ENDROOT
BRANCH   2   3
HETATM    3  C   UNK N   1      32.746  16.140   7.884  0.00  0.00     0.016 A 
HETATM    4  S   UNK N   1      34.270  16.771   8.052  0.00  0.00    -0.101 SA
HETATM    5  C   UNK N   1      35.002  15.574   8.934  0.00  0.00     0.050 A 
HETATM    6  C   UNK N   1      34.019  14.599   9.137  0.00  0.00     0.008 A 
HETATM    7  C   UNK N   1      32.758  14.912   8.552  0.00  0.00     0.020 A 
ENDBRANCH   2   3
BRANCH   2   8
HETATM    8  C   UNK N   1      30.485  17.435   7.907  0.00  0.00     0.016 A 
HETATM    9  S   UNK N   1      28.877  17.421   7.485  0.00  0.00    -0.101 SA
HETATM   10  C   UNK N   1      28.235  18.300   8.735  0.00  0.00     0.050 A 
HETATM   11  C   UNK N   1      29.316  18.644   9.557  0.00  0.00     0.008 A 
HETATM   12  C   UNK N   1      30.573  18.158   9.096  0.00  0.00     0.020 A 
ENDBRANCH   2   8
BRANCH   1  13
HETATM   13  C   UNK N   1      32.414  16.163   4.784  0.00  0.00     0.242 C 
HETATM   14  C   UNK N   1      32.711  17.230   3.732  0.00  0.00     0.047 C 
BRANCH  13  15
HETATM   15  N   UNK N   1      31.804  14.997   4.124  0.00  0.00     0.091 N 
HETATM   16  C   UNK N   1      30.347  15.110   4.132  0.00  0.00     0.310 C 
BRANCH  15  17
HETATM   17  C   UNK N   1      32.126  13.800   4.893  0.00  0.00     0.268 C 
HETATM   18  C   UNK N   1      33.623  13.716   5.128  0.00  0.00     0.037 C 
ENDBRANCH  15  17
ENDBRANCH  13  15
ENDBRANCH   1  13
TORSDOF 5
ENDMDL
MODEL 8
REMARK VINA RESULT:      -4.7     12.662     15.246
REMARK  5 active torsions:
REMARK  status: ('A' for Active; 'I' for Inactive)
REMARK    1  A    between atoms: N_3  and  C_4 
REMARK    2  A    between atoms: N_3  and  C_6 
REMARK    3  A    between atoms: C_4  and  C_5 
REMARK    4  A    between atoms: C_8  and  C_11 
REMARK    5  A    between atoms: C_8  and  C_12 
ROOT
HETATM    1  C   UNK N   1      28.687  24.779  -3.746  0.00  0.00     0.022 C 
HETATM    2  C   UNK N   1      27.843  25.075  -4.756  0.00  0.00    -0.004 C 
ENDROOT
BRANCH   2   3
HETATM    3  C   UNK N   1      27.263  24.028  -5.671  0.00  0.00     0.016 A 
HETATM    4  S   UNK N   1      28.081  23.135  -6.804  0.00  0.00    -0.101 SA
HETATM    5  C   UNK N   1      26.845  22.221  -7.423  0.00  0.00     0.050 A 
HETATM    6  C   UNK N   1      25.699  22.605  -6.719  0.00  0.00     0.008 A 
HETATM    7  C   UNK N   1      25.929  23.614  -5.738  0.00  0.00     0.020 A 
ENDBRANCH   2   3
BRANCH   2   8
HETATM    8  C   UNK N   1      27.511  26.518  -4.943  0.00  0.00     0.016 A 
HETATM    9  S   UNK N   1      26.880  27.523  -3.778  0.00  0.00    -0.101 SA
HETATM   10  C   UNK N   1      26.795  28.944  -4.628  0.00  0.00     0.050 A 
HETATM   11  C   UNK N   1      27.284  28.654  -5.908  0.00  0.00     0.008 A 
HETATM   12  C   UNK N   1      27.687  27.299  -6.084  0.00  0.00     0.020 A 
ENDBRANCH   2   8
BRANCH   1  13
HETATM   13  C   UNK N   1      29.196  23.426  -3.300  0.00  0.00     0.242 C 
HETATM   14  C   UNK N   1      28.593  23.104  -1.934  0.00  0.00     0.047 C 
BRANCH  13  15
HETATM   15  N   UNK N   1      30.664  23.440  -3.184  0.00  0.00     0.091 N 
HETATM   16  C   UNK N   1      31.274  23.790  -4.464  0.00  0.00     0.310 C 
BRANCH  15  17
HETATM   17  C   UNK N   1      31.123  22.092  -2.867  0.00  0.00     0.268 C 
HETATM   18  C   UNK N   1      30.737  21.133  -3.980  0.00  0.00     0.037 C 
ENDBRANCH  15  17
ENDBRANCH  13  15
ENDBRANCH   1  13
TORSDOF 5
ENDMDL
MODEL 9
REMARK VINA RESULT:      -4.7      2.438      3.800
REMARK  5 active torsions:
REMARK  status: ('A' for Active; 'I' for Inactive)
REMARK    1  A    between atoms: N_3  and  C_4 
REMARK    2  A    between atoms: N_3  and  C_6 
REMARK    3  A    between atoms: C_4  and  C_5 
REMARK    4  A    between atoms: C_8  and  C_11 
REMARK    5  A    between atoms: C_8  and  C_12 
ROOT
HETATM    1  C   UNK N   1      31.422  16.198   6.342  0.00  0.00     0.022 C 
HETATM    2  C   UNK N   1      30.105  16.488   6.389  0.00  0.00    -0.004 C 
ENDROOT
BRANCH   2   3
HETATM    3  C   UNK N   1      29.153  16.149   5.272  0.00  0.00     0.016 A 
HETATM    4  S   UNK N   1      28.601  17.173   4.090  0.00  0.00    -0.101 SA
HETATM    5  C   UNK N   1      27.610  16.154   3.239  0.00  0.00     0.050 A 
HETATM    6  C   UNK N   1      27.692  14.917   3.888  0.00  0.00     0.008 A 
HETATM    7  C   UNK N   1      28.553  14.910   5.023  0.00  0.00     0.020 A 
ENDBRANCH   2   3
BRANCH   2   8
HETATM    8  C   UNK N   1      29.622  17.188   7.615  0.00  0.00     0.016 A 
HETATM    9  S   UNK N   1      30.586  17.934   8.745  0.00  0.00    -0.101 SA
HETATM   10  C   UNK N   1      29.431  18.512   9.784  0.00  0.00     0.050 A 
HETATM   11  C   UNK N   1      28.200  18.118   9.246  0.00  0.00     0.008 A 
HETATM   12  C   UNK N   1      28.306  17.380   8.032  0.00  0.00     0.020 A 
ENDBRANCH   2   8
BRANCH   1  13
HETATM   13  C   UNK N   1      32.200  15.491   5.255  0.00  0.00     0.242 C 
HETATM   14  C   UNK N   1      32.673  14.142   5.793  0.00  0.00     0.047 C 
BRANCH  13  15
HETATM   15  N   UNK N   1      33.373  16.287   4.859  0.00  0.00     0.091 N 
HETATM   16  C   UNK N   1      34.027  16.854   6.036  0.00  0.00     0.310 C 
BRANCH  15  17
HETATM   17  C   UNK N   1      32.923  17.419   4.056  0.00  0.00     0.268 C 
HETATM   18  C   UNK N   1      32.192  16.926   2.821  0.00  0.00     0.037 C 
ENDBRANCH  15  17
ENDBRANCH  13  15
ENDBRANCH   1  13
TORSDOF 5
ENDMDL
