MODEL 1
REMARK VINA RESULT:      -6.9      0.000      0.000
REMARK  6 active torsions:
REMARK  status: ('A' for Active; 'I' for Inactive)
REMARK    1  A    between atoms: N_3  and  C_10 
REMARK    2  A    between atoms: N_4  and  C_5 
REMARK    3  A    between atoms: N_4  and  C_13 
REMARK       I    between atoms: N_4  and  C_14 
REMARK    4  A    between atoms: C_10  and  C_11 
REMARK    5  A    between atoms: C_11  and  C_15 
REMARK    6  A    between atoms: C_14  and  C_16 
ROOT
HETATM    1  N   UNK N   1      35.245  14.611  10.221  0.00  0.00     0.093 N 
HETATM    2  C   UNK N   1      33.784  15.993   8.505  0.00  0.00     0.096 C 
HETATM    3  C   UNK N   1      32.947  15.007   9.322  0.00  0.00     0.056 C 
HETATM    4  C   UNK N   1      34.640  16.889   9.383  0.00  0.00     0.056 C 
HETATM    5  C   UNK N   1      33.801  14.436  10.472  0.00  0.00     0.275 C 
HETATM    6  C   UNK N   1      35.616  16.039  10.185  0.00  0.00     0.275 C 
ENDROOT
BRANCH   2   7
HETATM    7  N   UNK N   1      33.189  16.751   7.411  0.00  0.00    -0.313 N 
HETATM    8  C   UNK N   1      33.841  16.906   6.198  0.00  0.00     0.224 C 
HETATM    9  O   UNK N   1      34.952  16.414   6.036  0.00  0.00    -0.273 OA
BRANCH   7  10
HETATM   10  C   UNK N   1      31.842  17.221   7.659  0.00  0.00     0.037 A 
HETATM   11  C   UNK N   1      30.711  16.628   7.075  0.00  0.00     0.030 A 
HETATM   12  C   UNK N   1      29.424  17.050   7.422  0.00  0.00     0.002 A 
HETATM   13  C   UNK N   1      29.247  18.072   8.356  0.00  0.00     0.000 A 
HETATM   14  C   UNK N   1      30.354  18.679   8.943  0.00  0.00     0.002 A 
HETATM   15  C   UNK N   1      31.638  18.250   8.606  0.00  0.00     0.030 A 
ENDBRANCH   7  10
BRANCH   8  16
HETATM   16  C   UNK N   1      33.230  17.677   5.052  0.00  0.00     0.099 C 
HETATM   17  C   UNK N   1      32.834  16.805   3.869  0.00  0.00     0.014 C 
ENDBRANCH   8  16
ENDBRANCH   2   7
BRANCH   1  18
HETATM   18  C   UNK N   1      36.007  13.930  11.270  0.00  0.00     0.223 C 
HETATM   19  C   UNK N   1      37.404  13.561  10.794  0.00  0.00     0.043 C 
BRANCH  18  20
HETATM   20  C   UNK N   1      36.066  14.738  12.565  0.00  0.00     0.081 C 
BRANCH  20  21
HETATM   21  C   UNK N   1      35.921  13.803  13.700  0.00  0.00    -0.016 A 
HETATM   22  S   UNK N   1      35.069  12.394  13.673  0.00  0.00    -0.106 SA
HETATM   23  C   UNK N   1      35.423  11.823  15.189  0.00  0.00     0.050 A 
HETATM   24  C   UNK N   1      36.266  12.781  15.774  0.00  0.00     0.008 A 
HETATM   25  C   UNK N   1      36.555  13.892  14.933  0.00  0.00     0.015 A 
ENDBRANCH  20  21
ENDBRANCH  18  20
ENDBRANCH   1  18
TORSDOF 6
ENDMDL
MODEL 2
REMARK VINA RESULT:      -6.3      3.372      9.390
REMARK  6 active torsions:
REMARK  status: ('A' for Active; 'I' for Inactive)
REMARK    1  A    between atoms: N_3  and  C_10 
REMARK    2  A    between atoms: N_4  and  C_5 
REMARK    3  A    between atoms: N_4  and  C_13 
REMARK       I    between atoms: N_4  and  C_14 
REMARK    4  A    between atoms: C_10  and  C_11 
REMARK    5  A    between atoms: C_11  and  C_15 
REMARK    6  A    between atoms: C_14  and  C_16 
ROOT
HETATM    1  N   UNK N   1      34.746  14.539  11.744  0.00  0.00     0.093 N 
HETATM    2  C   UNK N   1      35.359  12.821  13.658  0.00  0.00     0.096 C 
HETATM    3  C   UNK N   1      35.017  12.127  12.339  0.00  0.00     0.056 C 
HETATM    4  C   UNK N   1      36.421  13.893  13.487  0.00  0.00     0.056 C 
HETATM    5  C   UNK N   1      34.934  13.175  11.211  0.00  0.00     0.275 C 
HETATM    6  C   UNK N   1      35.912  14.971  12.539  0.00  0.00     0.275 C 
ENDROOT
BRANCH   2   7
HETATM    7  N   UNK N   1      35.591  12.048  14.872  0.00  0.00    -0.313 N 
HETATM    8  C   UNK N   1      34.983  12.381  16.071  0.00  0.00     0.224 C 
HETATM    9  O   UNK N   1      34.245  13.359  16.129  0.00  0.00    -0.273 OA
BRANCH   7  10
HETATM   10  C   UNK N   1      36.404  10.864  14.691  0.00  0.00     0.037 A 
HETATM   11  C   UNK N   1      37.808  10.904  14.653  0.00  0.00     0.030 A 
HETATM   12  C   UNK N   1      38.555   9.725  14.577  0.00  0.00     0.002 A 
HETATM   13  C   UNK N   1      37.912   8.486  14.536  0.00  0.00     0.000 A 
HETATM   14  C   UNK N   1      36.521   8.423  14.565  0.00  0.00     0.002 A 
HETATM   15  C   UNK N   1      35.776   9.598  14.653  0.00  0.00     0.030 A 
ENDBRANCH   7  10
BRANCH   8  16
HETATM   16  C   UNK N   1      35.204  11.580  17.333  0.00  0.00     0.099 C 
HETATM   17  C   UNK N   1      35.221  12.424  18.599  0.00  0.00     0.014 C 
ENDBRANCH   8  16
ENDBRANCH   2   7
BRANCH   1  18
HETATM   18  C   UNK N   1      34.534  15.470  10.634  0.00  0.00     0.223 C 
HETATM   19  C   UNK N   1      35.499  16.644  10.698  0.00  0.00     0.043 C 
BRANCH  18  20
HETATM   20  C   UNK N   1      34.605  14.779   9.273  0.00  0.00     0.081 C 
BRANCH  20  21
HETATM   21  C   UNK N   1      33.994  15.673   8.268  0.00  0.00    -0.016 A 
HETATM   22  S   UNK N   1      32.483  16.323   8.362  0.00  0.00    -0.106 SA
HETATM   23  C   UNK N   1      32.505  17.280   7.008  0.00  0.00     0.050 A 
HETATM   24  C   UNK N   1      33.771  17.099   6.429  0.00  0.00     0.008 A 
HETATM   25  C   UNK N   1      34.613  16.202   7.143  0.00  0.00     0.015 A 
ENDBRANCH  20  21
ENDBRANCH  18  20
ENDBRANCH   1  18
TORSDOF 6
ENDMDL
MODEL 3
REMARK VINA RESULT:      -6.3      2.960      8.204
REMARK  6 active torsions:
REMARK  status: ('A' for Active; 'I' for Inactive)
REMARK    1  A    between atoms: N_3  and  C_10 
REMARK    2  A    between atoms: N_4  and  C_5 
REMARK    3  A    between atoms: N_4  and  C_13 
REMARK       I    between atoms: N_4  and  C_14 
REMARK    4  A    between atoms: C_10  and  C_11 
REMARK    5  A    between atoms: C_11  and  C_15 
REMARK    6  A    between atoms: C_14  and  C_16 
ROOT
HETATM    1  N   UNK N   1      34.082  16.271   9.390  0.00  0.00     0.093 N 
HETATM    2  C   UNK N   1      35.619  14.436  10.514  0.00  0.00     0.096 C 
HETATM    3  C   UNK N   1      35.278  14.101   9.061  0.00  0.00     0.056 C 
HETATM    4  C   UNK N   1      36.190  15.835  10.664  0.00  0.00     0.056 C 
HETATM    5  C   UNK N   1      34.615  15.322   8.392  0.00  0.00     0.275 C 
HETATM    6  C   UNK N   1      35.163  16.861  10.203  0.00  0.00     0.275 C 
ENDROOT
BRANCH   2   7
HETATM    7  N   UNK N   1      36.342  13.486  11.351  0.00  0.00    -0.313 N 
HETATM    8  C   UNK N   1      36.047  13.335  12.696  0.00  0.00     0.224 C 
HETATM    9  O   UNK N   1      35.173  14.025  13.210  0.00  0.00    -0.273 OA
BRANCH   7  10
HETATM   10  C   UNK N   1      37.293  12.655  10.644  0.00  0.00     0.037 A 
HETATM   11  C   UNK N   1      36.984  11.361  10.194  0.00  0.00     0.030 A 
HETATM   12  C   UNK N   1      37.900  10.634   9.427  0.00  0.00     0.002 A 
HETATM   13  C   UNK N   1      39.140  11.187   9.100  0.00  0.00     0.000 A 
HETATM   14  C   UNK N   1      39.470  12.466   9.541  0.00  0.00     0.002 A 
HETATM   15  C   UNK N   1      38.552  13.196  10.296  0.00  0.00     0.030 A 
ENDBRANCH   7  10
BRANCH   8  16
HETATM   16  C   UNK N   1      36.778  12.345  13.571  0.00  0.00     0.099 C 
HETATM   17  C   UNK N   1      36.822  12.740  15.040  0.00  0.00     0.014 C 
ENDBRANCH   8  16
ENDBRANCH   2   7
BRANCH   1  18
HETATM   18  C   UNK N   1      33.344  17.333   8.704  0.00  0.00     0.223 C 
HETATM   19  C   UNK N   1      34.286  18.364   8.098  0.00  0.00     0.043 C 
BRANCH  18  20
HETATM   20  C   UNK N   1      32.382  16.788   7.651  0.00  0.00     0.081 C 
BRANCH  20  21
HETATM   21  C   UNK N   1      31.051  17.387   7.886  0.00  0.00    -0.016 A 
HETATM   22  S   UNK N   1      29.682  17.031   7.042  0.00  0.00    -0.106 SA
HETATM   23  C   UNK N   1      28.587  17.946   7.886  0.00  0.00     0.050 A 
HETATM   24  C   UNK N   1      29.317  18.578   8.904  0.00  0.00     0.008 A 
HETATM   25  C   UNK N   1      30.704  18.257   8.911  0.00  0.00     0.015 A 
ENDBRANCH  20  21
ENDBRANCH  18  20
ENDBRANCH   1  18
TORSDOF 6
ENDMDL
MODEL 4
REMARK VINA RESULT:      -6.3      2.501      7.522
REMARK  6 active torsions:
REMARK  status: ('A' for Active; 'I' for Inactive)
REMARK    1  A    between atoms: N_3  and  C_10 
REMARK    2  A    between atoms: N_4  and  C_5 
REMARK    3  A    between atoms: N_4  and  C_13 
REMARK       I    between atoms: N_4  and  C_14 
REMARK    4  A    between atoms: C_10  and  C_11 
REMARK    5  A    between atoms: C_11  and  C_15 
REMARK    6  A    between atoms: C_14  and  C_16 
ROOT
HETATM    1  N   UNK N   1      33.850  16.329   8.098  0.00  0.00     0.093 N 
HETATM    2  C   UNK N   1      35.380  14.904   9.717  0.00  0.00     0.096 C 
HETATM    3  C   UNK N   1      35.334  16.382  10.109  0.00  0.00     0.056 C 
HETATM    4  C   UNK N   1      33.992  14.305   9.562  0.00  0.00     0.056 C 
HETATM    5  C   UNK N   1      34.231  17.095   9.301  0.00  0.00     0.275 C 
HETATM    6  C   UNK N   1      33.240  15.033   8.455  0.00  0.00     0.275 C 
ENDROOT
BRANCH   2   7
HETATM    7  N   UNK N   1      36.273  13.976  10.401  0.00  0.00    -0.313 N 
HETATM    8  C   UNK N   1      37.482  13.591   9.844  0.00  0.00     0.224 C 
HETATM    9  O   UNK N   1      37.810  14.020   8.743  0.00  0.00    -0.273 OA
BRANCH   7  10
HETATM   10  C   UNK N   1      35.847  13.591  11.730  0.00  0.00     0.037 A 
HETATM   11  C   UNK N   1      35.111  12.422  11.982  0.00  0.00     0.030 A 
HETATM   12  C   UNK N   1      34.808  12.038  13.292  0.00  0.00     0.002 A 
HETATM   13  C   UNK N   1      35.233  12.817  14.370  0.00  0.00     0.000 A 
HETATM   14  C   UNK N   1      35.958  13.984  14.142  0.00  0.00     0.002 A 
HETATM   15  C   UNK N   1      36.271  14.360  12.837  0.00  0.00     0.030 A 
ENDBRANCH   7  10
BRANCH   8  16
HETATM   16  C   UNK N   1      38.423  12.642  10.548  0.00  0.00     0.099 C 
HETATM   17  C   UNK N   1      38.236  11.186  10.149  0.00  0.00     0.014 C 
ENDBRANCH   8  16
ENDBRANCH   2   7
BRANCH   1  18
HETATM   18  C   UNK N   1      32.907  17.114   7.300  0.00  0.00     0.223 C 
HETATM   19  C   UNK N   1      33.474  17.439   5.926  0.00  0.00     0.043 C 
BRANCH  18  20
HETATM   20  C   UNK N   1      31.542  16.440   7.181  0.00  0.00     0.081 C 
BRANCH  20  21
HETATM   21  C   UNK N   1      30.536  17.316   7.816  0.00  0.00    -0.016 A 
HETATM   22  S   UNK N   1      28.969  17.477   7.333  0.00  0.00    -0.106 SA
HETATM   23  C   UNK N   1      28.412  18.490   8.522  0.00  0.00     0.050 A 
HETATM   24  C   UNK N   1      29.506  18.730   9.367  0.00  0.00     0.008 A 
HETATM   25  C   UNK N   1      30.700  18.062   8.976  0.00  0.00     0.015 A 
ENDBRANCH  20  21
ENDBRANCH  18  20
ENDBRANCH   1  18
TORSDOF 6
ENDMDL
MODEL 5
REMARK VINA RESULT:      -6.2      5.479     10.498
REMARK  6 active torsions:
REMARK  status: ('A' for Active; 'I' for Inactive)
REMARK    1  A    between atoms: N_3  and  C_10 
REMARK    2  A    between atoms: N_4  and  C_5 
REMARK    3  A    between atoms: N_4  and  C_13 
REMARK       I    between atoms: N_4  and  C_14 
REMARK    4  A    between atoms: C_10  and  C_11 
REMARK    5  A    between atoms: C_11  and  C_15 
REMARK    6  A    between atoms: C_14  and  C_16 
ROOT
HETATM    1  N   UNK N   1      27.669  18.911   5.757  0.00  0.00     0.093 N 
HETATM    2  C   UNK N   1      29.929  17.628   6.248  0.00  0.00     0.096 C 
HETATM    3  C   UNK N   1      28.707  16.888   6.797  0.00  0.00     0.056 C 
HETATM    4  C   UNK N   1      29.776  17.983   4.779  0.00  0.00     0.056 C 
HETATM    5  C   UNK N   1      27.421  17.541   6.250  0.00  0.00     0.275 C 
HETATM    6  C   UNK N   1      28.580  18.908   4.597  0.00  0.00     0.275 C 
ENDROOT
BRANCH   2   7
HETATM    7  N   UNK N   1      31.279  17.157   6.533  0.00  0.00    -0.313 N 
HETATM    8  C   UNK N   1      31.893  17.408   7.749  0.00  0.00     0.224 C 
HETATM    9  O   UNK N   1      31.304  18.056   8.607  0.00  0.00    -0.273 OA
BRANCH   7  10
HETATM   10  C   UNK N   1      31.862  16.327   5.499  0.00  0.00     0.037 A 
HETATM   11  C   UNK N   1      31.538  14.970   5.342  0.00  0.00     0.030 A 
HETATM   12  C   UNK N   1      32.049  14.233   4.269  0.00  0.00     0.002 A 
HETATM   13  C   UNK N   1      32.893  14.841   3.337  0.00  0.00     0.000 A 
HETATM   14  C   UNK N   1      33.233  16.184   3.477  0.00  0.00     0.002 A 
HETATM   15  C   UNK N   1      32.714  16.922   4.541  0.00  0.00     0.030 A 
ENDBRANCH   7  10
BRANCH   8  16
HETATM   16  C   UNK N   1      33.285  16.913   8.061  0.00  0.00     0.099 C 
HETATM   17  C   UNK N   1      34.357  17.987   7.949  0.00  0.00     0.014 C 
ENDBRANCH   8  16
ENDBRANCH   2   7
BRANCH   1  18
HETATM   18  C   UNK N   1      26.396  19.530   5.384  0.00  0.00     0.223 C 
HETATM   19  C   UNK N   1      26.251  20.917   5.994  0.00  0.00     0.043 C 
BRANCH  18  20
HETATM   20  C   UNK N   1      26.192  19.575   3.871  0.00  0.00     0.081 C 
BRANCH  20  21
HETATM   21  C   UNK N   1      24.740  19.602   3.600  0.00  0.00    -0.016 A 
HETATM   22  S   UNK N   1      23.638  18.534   4.199  0.00  0.00    -0.106 SA
HETATM   23  C   UNK N   1      22.244  19.208   3.607  0.00  0.00     0.050 A 
HETATM   24  C   UNK N   1      22.641  20.349   2.893  0.00  0.00     0.008 A 
HETATM   25  C   UNK N   1      24.045  20.577   2.896  0.00  0.00     0.015 A 
ENDBRANCH  20  21
ENDBRANCH  18  20
ENDBRANCH   1  18
TORSDOF 6
ENDMDL
MODEL 6
REMARK VINA RESULT:      -6.2      1.608      3.191
REMARK  6 active torsions:
REMARK  status: ('A' for Active; 'I' for Inactive)
REMARK    1  A    between atoms: N_3  and  C_10 
REMARK    2  A    between atoms: N_4  and  C_5 
REMARK    3  A    between atoms: N_4  and  C_13 
REMARK       I    between atoms: N_4  and  C_14 
REMARK    4  A    between atoms: C_10  and  C_11 
REMARK    5  A    between atoms: C_11  and  C_15 
REMARK    6  A    between atoms: C_14  and  C_16 
ROOT
HETATM    1  N   UNK N   1      34.450  15.177   9.949  0.00  0.00     0.093 N 
HETATM    2  C   UNK N   1      32.719  16.231   8.251  0.00  0.00     0.096 C 
HETATM    3  C   UNK N   1      33.843  17.203   8.617  0.00  0.00     0.056 C 
HETATM    4  C   UNK N   1      33.248  14.890   7.774  0.00  0.00     0.056 C 
HETATM    5  C   UNK N   1      34.946  16.448   9.385  0.00  0.00     0.275 C 
HETATM    6  C   UNK N   1      34.057  14.233   8.885  0.00  0.00     0.275 C 
ENDROOT
BRANCH   2   7
HETATM    7  N   UNK N   1      31.591  16.666   7.437  0.00  0.00    -0.313 N 
HETATM    8  C   UNK N   1      30.464  17.237   8.005  0.00  0.00     0.224 C 
HETATM    9  O   UNK N   1      30.395  17.368   9.222  0.00  0.00    -0.273 OA
BRANCH   7  10
HETATM   10  C   UNK N   1      31.795  16.553   6.008  0.00  0.00     0.037 A 
HETATM   11  C   UNK N   1      31.129  15.602   5.218  0.00  0.00     0.030 A 
HETATM   12  C   UNK N   1      31.281  15.595   3.828  0.00  0.00     0.002 A 
HETATM   13  C   UNK N   1      32.103  16.537   3.205  0.00  0.00     0.000 A 
HETATM   14  C   UNK N   1      32.778  17.485   3.970  0.00  0.00     0.002 A 
HETATM   15  C   UNK N   1      32.617  17.500   5.355  0.00  0.00     0.030 A 
ENDBRANCH   7  10
BRANCH   8  16
HETATM   16  C   UNK N   1      29.294  17.704   7.171  0.00  0.00     0.099 C 
HETATM   17  C   UNK N   1      28.248  18.477   7.961  0.00  0.00     0.014 C 
ENDBRANCH   8  16
ENDBRANCH   2   7
BRANCH   1  18
HETATM   18  C   UNK N   1      35.493  14.574  10.781  0.00  0.00     0.223 C 
HETATM   19  C   UNK N   1      36.823  14.503  10.045  0.00  0.00     0.043 C 
BRANCH  18  20
HETATM   20  C   UNK N   1      35.650  15.285  12.124  0.00  0.00     0.081 C 
BRANCH  20  21
HETATM   21  C   UNK N   1      35.828  14.260  13.173  0.00  0.00    -0.016 A 
HETATM   22  S   UNK N   1      35.240  12.722  13.113  0.00  0.00    -0.106 SA
HETATM   23  C   UNK N   1      35.894  12.118  14.512  0.00  0.00     0.050 A 
HETATM   24  C   UNK N   1      36.629  13.170  15.080  0.00  0.00     0.008 A 
HETATM   25  C   UNK N   1      36.600  14.374  14.322  0.00  0.00     0.015 A 
ENDBRANCH  20  21
ENDBRANCH  18  20
ENDBRANCH   1  18
TORSDOF 6
ENDMDL
MODEL 7
REMARK VINA RESULT:      -6.2      5.682     10.479
REMARK  6 active torsions:
REMARK  status: ('A' for Active; 'I' for Inactive)
REMARK    1  A    between atoms: N_3  and  C_10 
REMARK    2  A    between atoms: N_4  and  C_5 
REMARK    3  A    between atoms: N_4  and  C_13 
REMARK       I    between atoms: N_4  and  C_14 
REMARK    4  A    between atoms: C_10  and  C_11 
REMARK    5  A    between atoms: C_11  and  C_15 
REMARK    6  A    between atoms: C_14  and  C_16 
ROOT
HETATM    1  N   UNK N   1      27.433  18.786   5.674  0.00  0.00     0.093 N 
HETATM    2  C   UNK N   1      29.307  16.936   5.923  0.00  0.00     0.096 C 
HETATM    3  C   UNK N   1      27.932  16.440   6.377  0.00  0.00     0.056 C 
HETATM    4  C   UNK N   1      29.272  17.535   4.528  0.00  0.00     0.056 C 
HETATM    5  C   UNK N   1      26.853  17.459   5.960  0.00  0.00     0.275 C 
HETATM    6  C   UNK N   1      28.338  18.739   4.509  0.00  0.00     0.275 C 
ENDROOT
BRANCH   2   7
HETATM    7  N   UNK N   1      30.497  16.115   6.108  0.00  0.00    -0.313 N 
HETATM    8  C   UNK N   1      30.544  14.800   5.675  0.00  0.00     0.224 C 
HETATM    9  O   UNK N   1      29.561  14.299   5.140  0.00  0.00    -0.273 OA
BRANCH   7  10
HETATM   10  C   UNK N   1      31.635  16.814   6.667  0.00  0.00     0.037 A 
HETATM   11  C   UNK N   1      31.756  17.094   8.038  0.00  0.00     0.030 A 
HETATM   12  C   UNK N   1      32.918  17.681   8.548  0.00  0.00     0.002 A 
HETATM   13  C   UNK N   1      33.977  17.999   7.695  0.00  0.00     0.000 A 
HETATM   14  C   UNK N   1      33.877  17.736   6.332  0.00  0.00     0.002 A 
HETATM   15  C   UNK N   1      32.723  17.140   5.825  0.00  0.00     0.030 A 
ENDBRANCH   7  10
BRANCH   8  16
HETATM   16  C   UNK N   1      31.776  13.943   5.847  0.00  0.00     0.099 C 
HETATM   17  C   UNK N   1      32.447  13.565   4.535  0.00  0.00     0.014 C 
ENDBRANCH   8  16
ENDBRANCH   2   7
BRANCH   1  18
HETATM   18  C   UNK N   1      26.355  19.744   5.423  0.00  0.00     0.223 C 
HETATM   19  C   UNK N   1      26.573  21.042   6.188  0.00  0.00     0.043 C 
BRANCH  18  20
HETATM   20  C   UNK N   1      26.154  20.016   3.933  0.00  0.00     0.081 C 
BRANCH  20  21
HETATM   21  C   UNK N   1      24.717  19.861   3.625  0.00  0.00    -0.016 A 
HETATM   22  S   UNK N   1      23.731  18.690   4.234  0.00  0.00    -0.106 SA
HETATM   23  C   UNK N   1      22.286  19.174   3.583  0.00  0.00     0.050 A 
HETATM   24  C   UNK N   1      22.566  20.329   2.838  0.00  0.00     0.008 A 
HETATM   25  C   UNK N   1      23.933  20.723   2.868  0.00  0.00     0.015 A 
ENDBRANCH  20  21
ENDBRANCH  18  20
ENDBRANCH   1  18
TORSDOF 6
ENDMDL
MODEL 8
REMARK VINA RESULT:      -6.1      2.325      3.850
REMARK  6 active torsions:
REMARK  status: ('A' for Active; 'I' for Inactive)
REMARK    1  A    between atoms: N_3  and  C_10 
REMARK    2  A    between atoms: N_4  and  C_5 
REMARK    3  A    between atoms: N_4  and  C_13 
REMARK       I    between atoms: N_4  and  C_14 
REMARK    4  A    between atoms: C_10  and  C_11 
REMARK    5  A    between atoms: C_11  and  C_15 
REMARK    6  A    between atoms: C_14  and  C_16 
ROOT
HETATM    1  N   UNK N   1      36.080  13.161  12.008  0.00  0.00     0.093 N 
HETATM    2  C   UNK N   1      35.495  14.697   9.937  0.00  0.00     0.096 C 
HETATM    3  C   UNK N   1      37.002  14.499  10.109  0.00  0.00     0.056 C 
HETATM    4  C   UNK N   1      34.740  13.379   9.907  0.00  0.00     0.056 C 
HETATM    5  C   UNK N   1      37.260  13.394  11.153  0.00  0.00     0.275 C 
HETATM    6  C   UNK N   1      34.942  12.642  11.225  0.00  0.00     0.275 C 
ENDROOT
BRANCH   2   7
HETATM    7  N   UNK N   1      34.970  15.620   8.937  0.00  0.00    -0.313 N 
HETATM    8  C   UNK N   1      34.909  16.984   9.171  0.00  0.00     0.224 C 
HETATM    9  O   UNK N   1      35.286  17.435  10.248  0.00  0.00    -0.273 OA
BRANCH   7  10
HETATM   10  C   UNK N   1      34.633  15.011   7.668  0.00  0.00     0.037 A 
HETATM   11  C   UNK N   1      33.318  14.659   7.320  0.00  0.00     0.030 A 
HETATM   12  C   UNK N   1      33.024  14.167   6.045  0.00  0.00     0.002 A 
HETATM   13  C   UNK N   1      34.039  14.016   5.097  0.00  0.00     0.000 A 
HETATM   14  C   UNK N   1      35.350  14.353   5.423  0.00  0.00     0.002 A 
HETATM   15  C   UNK N   1      35.642  14.855   6.691  0.00  0.00     0.030 A 
ENDBRANCH   7  10
BRANCH   8  16
HETATM   16  C   UNK N   1      34.382  17.952   8.139  0.00  0.00     0.099 C 
HETATM   17  C   UNK N   1      32.881  18.186   8.229  0.00  0.00     0.014 C 
ENDBRANCH   8  16
ENDBRANCH   2   7
BRANCH   1  18
HETATM   18  C   UNK N   1      36.426  12.209  13.065  0.00  0.00     0.223 C 
HETATM   19  C   UNK N   1      37.287  11.072  12.532  0.00  0.00     0.043 C 
BRANCH  18  20
HETATM   20  C   UNK N   1      37.094  12.884  14.261  0.00  0.00     0.081 C 
BRANCH  20  21
HETATM   21  C   UNK N   1      36.333  12.527  15.477  0.00  0.00    -0.016 A 
HETATM   22  S   UNK N   1      36.260  11.026  16.151  0.00  0.00    -0.106 SA
HETATM   23  C   UNK N   1      35.363  11.370  17.503  0.00  0.00     0.050 A 
HETATM   24  C   UNK N   1      35.095  12.746  17.447  0.00  0.00     0.008 A 
HETATM   25  C   UNK N   1      35.648  13.401  16.312  0.00  0.00     0.015 A 
ENDBRANCH  20  21
ENDBRANCH  18  20
ENDBRANCH   1  18
TORSDOF 6
ENDMDL
MODEL 9
REMARK VINA RESULT:      -6.0      4.297      6.878
REMARK  6 active torsions:
REMARK  status: ('A' for Active; 'I' for Inactive)
REMARK    1  A    between atoms: N_3  and  C_10 
REMARK    2  A    between atoms: N_4  and  C_5 
REMARK    3  A    between atoms: N_4  and  C_13 
REMARK       I    between atoms: N_4  and  C_14 
REMARK    4  A    between atoms: C_10  and  C_11 
REMARK    5  A    between atoms: C_11  and  C_15 
REMARK    6  A    between atoms: C_14  and  C_16 
ROOT
HETATM    1  N   UNK N   1      31.064  17.367   6.068  0.00  0.00     0.093 N 
HETATM    2  C   UNK N   1      28.606  17.739   5.168  0.00  0.00     0.096 C 
HETATM    3  C   UNK N   1      29.394  16.742   4.316  0.00  0.00     0.056 C 
HETATM    4  C   UNK N   1      28.630  17.382   6.644  0.00  0.00     0.056 C 
HETATM    5  C   UNK N   1      30.705  16.372   5.038  0.00  0.00     0.275 C 
HETATM    6  C   UNK N   1      30.066  17.403   7.153  0.00  0.00     0.275 C 
ENDROOT
BRANCH   2   7
HETATM    7  N   UNK N   1      27.278  18.185   4.762  0.00  0.00    -0.313 N 
HETATM    8  C   UNK N   1      26.985  19.528   4.592  0.00  0.00     0.224 C 
HETATM    9  O   UNK N   1      27.850  20.372   4.803  0.00  0.00    -0.273 OA
BRANCH   7  10
HETATM   10  C   UNK N   1      26.349  17.119   4.451  0.00  0.00     0.037 A 
HETATM   11  C   UNK N   1      25.479  16.567   5.406  0.00  0.00     0.030 A 
HETATM   12  C   UNK N   1      24.529  15.610   5.037  0.00  0.00     0.002 A 
HETATM   13  C   UNK N   1      24.435  15.186   3.710  0.00  0.00     0.000 A 
HETATM   14  C   UNK N   1      25.292  15.715   2.748  0.00  0.00     0.002 A 
HETATM   15  C   UNK N   1      26.232  16.679   3.113  0.00  0.00     0.030 A 
ENDBRANCH   7  10
BRANCH   8  16
HETATM   16  C   UNK N   1      25.618  20.002   4.158  0.00  0.00     0.099 C 
HETATM   17  C   UNK N   1      25.551  20.422   2.696  0.00  0.00     0.014 C 
ENDBRANCH   8  16
ENDBRANCH   2   7
BRANCH   1  18
HETATM   18  C   UNK N   1      32.381  17.042   6.619  0.00  0.00     0.223 C 
HETATM   19  C   UNK N   1      33.493  17.349   5.627  0.00  0.00     0.043 C 
BRANCH  18  20
HETATM   20  C   UNK N   1      32.638  17.732   7.958  0.00  0.00     0.081 C 
BRANCH  20  21
HETATM   21  C   UNK N   1      33.431  16.817   8.805  0.00  0.00    -0.016 A 
HETATM   22  S   UNK N   1      33.017  15.268   9.184  0.00  0.00    -0.106 SA
HETATM   23  C   UNK N   1      34.368  14.817  10.033  0.00  0.00     0.050 A 
HETATM   24  C   UNK N   1      35.216  15.935  10.030  0.00  0.00     0.008 A 
HETATM   25  C   UNK N   1      34.693  17.059   9.331  0.00  0.00     0.015 A 
ENDBRANCH  20  21
ENDBRANCH  18  20
ENDBRANCH   1  18
TORSDOF 6
ENDMDL
