MODEL 1
REMARK VINA RESULT:      -7.9      0.000      0.000
REMARK  0 active torsions:
REMARK  status: ('A' for Active; 'I' for Inactive)
ROOT
HETATM    1  O   UNK N   1      26.051  24.062  -3.620  0.00  0.00    -0.389 OA
HETATM    2  O   UNK N   1      35.017  19.322  -4.271  0.00  0.00    -0.293 OA
HETATM    3  C   UNK N   1      28.248  23.178  -5.174  0.00  0.00     0.001 C 
HETATM    4  C   UNK N   1      28.322  24.463  -4.347  0.00  0.00    -0.009 C 
HETATM    5  C   UNK N   1      29.649  22.560  -5.418  0.00  0.00    -0.001 C 
HETATM    6  C   UNK N   1      30.328  22.304  -4.034  0.00  0.00     0.003 C 
HETATM    7  C   UNK N   1      26.855  24.914  -4.386  0.00  0.00     0.062 C 
HETATM    8  C   UNK N   1      31.791  21.820  -4.223  0.00  0.00    -0.016 C 
HETATM    9  C   UNK N   1      28.889  24.145  -2.964  0.00  0.00     0.013 C 
HETATM   10  C   UNK N   1      30.297  23.556  -3.119  0.00  0.00     0.007 C 
HETATM   11  C   UNK N   1      27.432  23.620  -6.389  0.00  0.00     0.009 C 
HETATM   12  C   UNK N   1      29.573  21.202  -6.160  0.00  0.00    -0.010 C 
HETATM   13  C   UNK N   1      26.492  24.724  -5.862  0.00  0.00     0.038 C 
HETATM   14  C   UNK N   1      30.949  20.572  -6.372  0.00  0.00     0.039 C 
HETATM   15  C   UNK N   1      31.844  20.625  -5.165  0.00  0.00    -0.067 C 
HETATM   16  C   UNK N   1      29.219  25.527  -5.021  0.00  0.00     0.018 C 
HETATM   17  C   UNK N   1      32.382  21.415  -2.859  0.00  0.00     0.022 C 
HETATM   18  C   UNK N   1      26.628  26.343  -3.918  0.00  0.00     0.046 C 
HETATM   19  C   UNK N   1      32.646  22.941  -4.823  0.00  0.00     0.020 C 
HETATM   20  C   UNK N   1      28.910  21.304  -7.523  0.00  0.00     0.010 C 
HETATM   21  C   UNK N   1      33.811  20.868  -2.966  0.00  0.00     0.084 C 
HETATM   22  C   UNK N   1      32.924  19.827  -5.172  0.00  0.00     0.053 C 
HETATM   23  C   UNK N   1      33.979  19.949  -4.143  0.00  0.00     0.149 C 
HETATM   24  H   UNK N   1      25.497  23.384  -3.203  0.00  0.00     0.210 HD
ENDROOT
TORSDOF 0
ENDMDL
MODEL 2
REMARK VINA RESULT:      -7.9      1.499      6.482
REMARK  0 active torsions:
REMARK  status: ('A' for Active; 'I' for Inactive)
ROOT
HETATM    1  O   UNK N   1      33.073  22.420  -5.080  0.00  0.00    -0.389 OA
HETATM    2  O   UNK N   1      24.177  27.312  -5.563  0.00  0.00    -0.293 OA
HETATM    3  C   UNK N   1      30.259  22.362  -5.396  0.00  0.00     0.001 C 
HETATM    4  C   UNK N   1      30.904  22.453  -4.011  0.00  0.00    -0.009 C 
HETATM    5  C   UNK N   1      28.825  22.953  -5.411  0.00  0.00    -0.001 C 
HETATM    6  C   UNK N   1      28.893  24.434  -4.914  0.00  0.00     0.003 C 
HETATM    7  C   UNK N   1      32.212  21.687  -4.255  0.00  0.00     0.062 C 
HETATM    8  C   UNK N   1      27.466  25.029  -4.772  0.00  0.00    -0.016 C 
HETATM    9  C   UNK N   1      31.050  23.921  -3.614  0.00  0.00     0.013 C 
HETATM   10  C   UNK N   1      29.662  24.573  -3.575  0.00  0.00     0.007 C 
HETATM   11  C   UNK N   1      30.432  20.882  -5.738  0.00  0.00     0.009 C 
HETATM   12  C   UNK N   1      28.207  22.965  -6.831  0.00  0.00    -0.010 C 
HETATM   13  C   UNK N   1      31.733  20.455  -5.028  0.00  0.00     0.038 C 
HETATM   14  C   UNK N   1      26.808  23.579  -6.857  0.00  0.00     0.039 C 
HETATM   15  C   UNK N   1      26.677  24.848  -6.061  0.00  0.00    -0.067 C 
HETATM   16  C   UNK N   1      30.061  21.728  -2.937  0.00  0.00     0.018 C 
HETATM   17  C   UNK N   1      27.563  26.531  -4.444  0.00  0.00     0.022 C 
HETATM   18  C   UNK N   1      32.963  21.313  -2.986  0.00  0.00     0.046 C 
HETATM   19  C   UNK N   1      26.708  24.322  -3.643  0.00  0.00     0.020 C 
HETATM   20  C   UNK N   1      28.102  21.580  -7.446  0.00  0.00     0.010 C 
HETATM   21  C   UNK N   1      26.192  27.210  -4.344  0.00  0.00     0.084 C 
HETATM   22  C   UNK N   1      25.590  25.602  -6.290  0.00  0.00     0.053 C 
HETATM   23  C   UNK N   1      25.252  26.751  -5.424  0.00  0.00     0.149 C 
HETATM   24  H   UNK N   1      33.589  22.878  -5.761  0.00  0.00     0.210 HD
ENDROOT
TORSDOF 0
ENDMDL
MODEL 3
REMARK VINA RESULT:      -7.8      2.322      3.561
REMARK  0 active torsions:
REMARK  status: ('A' for Active; 'I' for Inactive)
ROOT
HETATM    1  O   UNK N   1      24.610  23.179  -8.507  0.00  0.00    -0.389 OA
HETATM    2  O   UNK N   1      32.394  21.601  -2.165  0.00  0.00    -0.293 OA
HETATM    3  C   UNK N   1      27.299  22.399  -8.074  0.00  0.00     0.001 C 
HETATM    4  C   UNK N   1      26.900  23.874  -8.158  0.00  0.00    -0.009 C 
HETATM    5  C   UNK N   1      28.595  22.192  -7.248  0.00  0.00    -0.001 C 
HETATM    6  C   UNK N   1      28.382  22.803  -5.826  0.00  0.00     0.003 C 
HETATM    7  C   UNK N   1      25.707  23.793  -9.122  0.00  0.00     0.062 C 
HETATM    8  C   UNK N   1      29.699  22.751  -5.005  0.00  0.00    -0.016 C 
HETATM    9  C   UNK N   1      26.595  24.399  -6.756  0.00  0.00     0.013 C 
HETATM   10  C   UNK N   1      27.847  24.257  -5.881  0.00  0.00     0.007 C 
HETATM   11  C   UNK N   1      27.305  21.980  -9.544  0.00  0.00     0.009 C 
HETATM   12  C   UNK N   1      28.945  20.694  -7.067  0.00  0.00    -0.010 C 
HETATM   13  C   UNK N   1      26.233  22.861 -10.218  0.00  0.00     0.038 C 
HETATM   14  C   UNK N   1      30.202  20.483  -6.224  0.00  0.00     0.039 C 
HETATM   15  C   UNK N   1      30.268  21.339  -4.990  0.00  0.00    -0.067 C 
HETATM   16  C   UNK N   1      28.022  24.736  -8.779  0.00  0.00     0.018 C 
HETATM   17  C   UNK N   1      29.425  23.202  -3.558  0.00  0.00     0.022 C 
HETATM   18  C   UNK N   1      25.260  25.138  -9.675  0.00  0.00     0.046 C 
HETATM   19  C   UNK N   1      30.746  23.683  -5.626  0.00  0.00     0.020 C 
HETATM   20  C   UNK N   1      29.158  19.968  -8.384  0.00  0.00     0.010 C 
HETATM   21  C   UNK N   1      30.667  23.124  -2.662  0.00  0.00     0.084 C 
HETATM   22  C   UNK N   1      31.165  20.991  -4.053  0.00  0.00     0.053 C 
HETATM   23  C   UNK N   1      31.463  21.873  -2.905  0.00  0.00     0.149 C 
HETATM   24  H   UNK N   1      23.916  22.629  -8.111  0.00  0.00     0.210 HD
ENDROOT
TORSDOF 0
ENDMDL
MODEL 4
REMARK VINA RESULT:      -7.5     12.096     15.608
REMARK  0 active torsions:
REMARK  status: ('A' for Active; 'I' for Inactive)
ROOT
HETATM    1  O   UNK N   1      37.286  15.937  10.690  0.00  0.00    -0.389 OA
HETATM    2  O   UNK N   1      31.929  16.844   2.101  0.00  0.00    -0.293 OA
HETATM    3  C   UNK N   1      35.850  14.743   8.560  0.00  0.00     0.001 C 
HETATM    4  C   UNK N   1      35.130  15.347   9.767  0.00  0.00    -0.009 C 
HETATM    5  C   UNK N   1      34.953  14.724   7.295  0.00  0.00    -0.001 C 
HETATM    6  C   UNK N   1      34.479  16.184   7.000  0.00  0.00     0.003 C 
HETATM    7  C   UNK N   1      36.172  15.109  10.870  0.00  0.00     0.062 C 
HETATM    8  C   UNK N   1      33.460  16.202   5.828  0.00  0.00    -0.016 C 
HETATM    9  C   UNK N   1      34.784  16.806   9.475  0.00  0.00     0.013 C 
HETATM   10  C   UNK N   1      33.865  16.870   8.248  0.00  0.00     0.007 C 
HETATM   11  C   UNK N   1      36.346  13.406   9.113  0.00  0.00     0.009 C 
HETATM   12  C   UNK N   1      35.710  14.216   6.043  0.00  0.00    -0.010 C 
HETATM   13  C   UNK N   1      36.598  13.661  10.613  0.00  0.00     0.038 C 
HETATM   14  C   UNK N   1      34.841  14.229   4.787  0.00  0.00     0.039 C 
HETATM   15  C   UNK N   1      34.026  15.480   4.613  0.00  0.00    -0.067 C 
HETATM   16  C   UNK N   1      33.828  14.583  10.099  0.00  0.00     0.018 C 
HETATM   17  C   UNK N   1      33.137  17.659   5.447  0.00  0.00     0.022 C 
HETATM   18  C   UNK N   1      35.644  15.312  12.282  0.00  0.00     0.046 C 
HETATM   19  C   UNK N   1      32.164  15.497   6.243  0.00  0.00     0.020 C 
HETATM   20  C   UNK N   1      36.247  12.804   6.204  0.00  0.00     0.010 C 
HETATM   21  C   UNK N   1      32.179  17.766   4.255  0.00  0.00     0.084 C 
HETATM   22  C   UNK N   1      33.494  15.698   3.400  0.00  0.00     0.053 C 
HETATM   23  C   UNK N   1      32.509  16.777   3.172  0.00  0.00     0.149 C 
HETATM   24  H   UNK N   1      38.101  16.413  10.467  0.00  0.00     0.210 HD
ENDROOT
TORSDOF 0
ENDMDL
MODEL 5
REMARK VINA RESULT:      -7.4     22.897     25.900
REMARK  0 active torsions:
REMARK  status: ('A' for Active; 'I' for Inactive)
ROOT
HETATM    1  O   UNK N   1      37.686  12.296  13.489  0.00  0.00    -0.389 OA
HETATM    2  O   UNK N   1      35.300   8.396  22.566  0.00  0.00    -0.293 OA
HETATM    3  C   UNK N   1      35.988  12.223  15.755  0.00  0.00     0.001 C 
HETATM    4  C   UNK N   1      35.851  11.202  14.624  0.00  0.00    -0.009 C 
HETATM    5  C   UNK N   1      35.452  11.675  17.103  0.00  0.00    -0.001 C 
HETATM    6  C   UNK N   1      36.212  10.352  17.440  0.00  0.00     0.003 C 
HETATM    7  C   UNK N   1      36.311  12.043  13.424  0.00  0.00     0.062 C 
HETATM    8  C   UNK N   1      35.614   9.683  18.707  0.00  0.00    -0.016 C 
HETATM    9  C   UNK N   1      36.698   9.972  14.945  0.00  0.00     0.013 C 
HETATM   10  C   UNK N   1      36.205   9.349  16.257  0.00  0.00     0.007 C 
HETATM   11  C   UNK N   1      35.314  13.460  15.161  0.00  0.00     0.009 C 
HETATM   12  C   UNK N   1      35.686  12.660  18.275  0.00  0.00    -0.010 C 
HETATM   13  C   UNK N   1      35.565  13.363  13.641  0.00  0.00     0.038 C 
HETATM   14  C   UNK N   1      35.191  12.110  19.612  0.00  0.00     0.039 C 
HETATM   15  C   UNK N   1      35.560  10.673  19.862  0.00  0.00    -0.067 C 
HETATM   16  C   UNK N   1      34.383  10.760  14.426  0.00  0.00     0.018 C 
HETATM   17  C   UNK N   1      36.481   8.477  19.114  0.00  0.00     0.022 C 
HETATM   18  C   UNK N   1      35.998  11.422  12.070  0.00  0.00     0.046 C 
HETATM   19  C   UNK N   1      34.188   9.198  18.425  0.00  0.00     0.020 C 
HETATM   20  C   UNK N   1      35.013  14.006  18.066  0.00  0.00     0.010 C 
HETATM   21  C   UNK N   1      35.989   7.793  20.395  0.00  0.00     0.084 C 
HETATM   22  C   UNK N   1      35.441  10.224  21.122  0.00  0.00     0.053 C 
HETATM   23  C   UNK N   1      35.571   8.787  21.443  0.00  0.00     0.149 C 
HETATM   24  H   UNK N   1      38.604  12.575  13.628  0.00  0.00     0.210 HD
ENDROOT
TORSDOF 0
ENDMDL
MODEL 6
REMARK VINA RESULT:      -7.3     10.351     13.314
REMARK  0 active torsions:
REMARK  status: ('A' for Active; 'I' for Inactive)
ROOT
HETATM    1  O   UNK N   1      34.569  18.313   7.606  0.00  0.00    -0.389 OA
HETATM    2  O   UNK N   1      25.425  17.309   3.283  0.00  0.00    -0.293 OA
HETATM    3  C   UNK N   1      32.784  16.854   5.960  0.00  0.00     0.001 C 
HETATM    4  C   UNK N   1      32.726  16.752   7.485  0.00  0.00    -0.009 C 
HETATM    5  C   UNK N   1      31.420  16.522   5.301  0.00  0.00    -0.001 C 
HETATM    6  C   UNK N   1      30.335  17.479   5.892  0.00  0.00     0.003 C 
HETATM    7  C   UNK N   1      34.201  16.983   7.843  0.00  0.00     0.062 C 
HETATM    8  C   UNK N   1      28.923  17.093   5.374  0.00  0.00    -0.016 C 
HETATM    9  C   UNK N   1      31.735  17.781   8.027  0.00  0.00     0.013 C 
HETATM   10  C   UNK N   1      30.344  17.498   7.443  0.00  0.00     0.007 C 
HETATM   11  C   UNK N   1      33.984  15.970   5.620  0.00  0.00     0.009 C 
HETATM   12  C   UNK N   1      31.440  16.729   3.766  0.00  0.00    -0.010 C 
HETATM   13  C   UNK N   1      34.929  16.091   6.833  0.00  0.00     0.038 C 
HETATM   14  C   UNK N   1      30.088  16.437   3.116  0.00  0.00     0.039 C 
HETATM   15  C   UNK N   1      28.912  17.014   3.854  0.00  0.00    -0.067 C 
HETATM   16  C   UNK N   1      32.286  15.344   7.949  0.00  0.00     0.018 C 
HETATM   17  C   UNK N   1      27.898  18.147   5.833  0.00  0.00     0.022 C 
HETATM   18  C   UNK N   1      34.557  16.634   9.280  0.00  0.00     0.046 C 
HETATM   19  C   UNK N   1      28.512  15.725   5.928  0.00  0.00     0.020 C 
HETATM   20  C   UNK N   1      32.474  15.867   3.062  0.00  0.00     0.010 C 
HETATM   21  C   UNK N   1      26.483  17.871   5.313  0.00  0.00     0.084 C 
HETATM   22  C   UNK N   1      27.746  17.073   3.191  0.00  0.00     0.053 C 
HETATM   23  C   UNK N   1      26.485  17.422   3.878  0.00  0.00     0.149 C 
HETATM   24  H   UNK N   1      34.837  19.194   7.303  0.00  0.00     0.210 HD
ENDROOT
TORSDOF 0
ENDMDL
MODEL 7
REMARK VINA RESULT:      -7.2     21.573     24.795
REMARK  0 active torsions:
REMARK  status: ('A' for Active; 'I' for Inactive)
ROOT
HETATM    1  O   UNK N   1      36.891  10.473  20.137  0.00  0.00    -0.389 OA
HETATM    2  O   UNK N   1      36.707  13.992  10.604  0.00  0.00    -0.293 OA
HETATM    3  C   UNK N   1      36.754   9.991  17.350  0.00  0.00     0.001 C 
HETATM    4  C   UNK N   1      35.516  10.399  18.150  0.00  0.00    -0.009 C 
HETATM    5  C   UNK N   1      36.634  10.376  15.853  0.00  0.00    -0.001 C 
HETATM    6  C   UNK N   1      36.378  11.915  15.754  0.00  0.00     0.003 C 
HETATM    7  C   UNK N   1      35.843   9.783  19.518  0.00  0.00     0.062 C 
HETATM    8  C   UNK N   1      36.107  12.331  14.283  0.00  0.00    -0.016 C 
HETATM    9  C   UNK N   1      35.368  11.919  18.117  0.00  0.00     0.013 C 
HETATM   10  C   UNK N   1      35.211  12.380  16.662  0.00  0.00     0.007 C 
HETATM   11  C   UNK N   1      36.896   8.510  17.704  0.00  0.00     0.009 C 
HETATM   12  C   UNK N   1      37.927  10.065  15.058  0.00  0.00    -0.010 C 
HETATM   13  C   UNK N   1      36.341   8.385  19.138  0.00  0.00     0.038 C 
HETATM   14  C   UNK N   1      37.827  10.475  13.590  0.00  0.00     0.039 C 
HETATM   15  C   UNK N   1      37.216  11.831  13.369  0.00  0.00    -0.067 C 
HETATM   16  C   UNK N   1      34.228   9.761  17.579  0.00  0.00     0.018 C 
HETATM   17  C   UNK N   1      36.025  13.866  14.187  0.00  0.00     0.022 C 
HETATM   18  C   UNK N   1      34.664   9.732  20.478  0.00  0.00     0.046 C 
HETATM   19  C   UNK N   1      34.782  11.731  13.800  0.00  0.00     0.020 C 
HETATM   20  C   UNK N   1      38.306   8.594  15.090  0.00  0.00     0.010 C 
HETATM   21  C   UNK N   1      35.815  14.365  12.753  0.00  0.00     0.084 C 
HETATM   22  C   UNK N   1      37.383  12.385  12.157  0.00  0.00     0.053 C 
HETATM   23  C   UNK N   1      36.655  13.610  11.762  0.00  0.00     0.149 C 
HETATM   24  H   UNK N   1      37.704  10.874  20.482  0.00  0.00     0.210 HD
ENDROOT
TORSDOF 0
ENDMDL
MODEL 8
REMARK VINA RESULT:      -7.0      1.422      2.944
REMARK  0 active torsions:
REMARK  status: ('A' for Active; 'I' for Inactive)
ROOT
HETATM    1  O   UNK N   1      27.307  26.516  -6.140  0.00  0.00    -0.389 OA
HETATM    2  O   UNK N   1      34.853  20.094  -3.879  0.00  0.00    -0.293 OA
HETATM    3  C   UNK N   1      28.244  24.222  -4.769  0.00  0.00     0.001 C 
HETATM    4  C   UNK N   1      27.844  24.160  -6.245  0.00  0.00    -0.009 C 
HETATM    5  C   UNK N   1      29.265  23.116  -4.396  0.00  0.00    -0.001 C 
HETATM    6  C   UNK N   1      30.513  23.258  -5.327  0.00  0.00     0.003 C 
HETATM    7  C   UNK N   1      26.752  25.240  -6.290  0.00  0.00     0.062 C 
HETATM    8  C   UNK N   1      31.505  22.086  -5.094  0.00  0.00    -0.016 C 
HETATM    9  C   UNK N   1      29.073  24.413  -7.115  0.00  0.00     0.013 C 
HETATM   10  C   UNK N   1      30.126  23.335  -6.827  0.00  0.00     0.007 C 
HETATM   11  C   UNK N   1      26.887  24.217  -4.064  0.00  0.00     0.009 C 
HETATM   12  C   UNK N   1      29.758  23.239  -2.932  0.00  0.00    -0.010 C 
HETATM   13  C   UNK N   1      25.924  24.923  -5.041  0.00  0.00     0.038 C 
HETATM   14  C   UNK N   1      30.792  22.174  -2.570  0.00  0.00     0.039 C 
HETATM   15  C   UNK N   1      31.851  21.961  -3.616  0.00  0.00    -0.067 C 
HETATM   16  C   UNK N   1      27.241  22.787  -6.619  0.00  0.00     0.018 C 
HETATM   17  C   UNK N   1      32.796  22.336  -5.896  0.00  0.00     0.022 C 
HETATM   18  C   UNK N   1      25.911  25.225  -7.557  0.00  0.00     0.046 C 
HETATM   19  C   UNK N   1      30.881  20.765  -5.554  0.00  0.00     0.020 C 
HETATM   20  C   UNK N   1      28.634  23.140  -1.916  0.00  0.00     0.010 C 
HETATM   21  C   UNK N   1      33.856  21.250  -5.674  0.00  0.00     0.084 C 
HETATM   22  C   UNK N   1      32.951  21.287  -3.243  0.00  0.00     0.053 C 
HETATM   23  C   UNK N   1      33.953  20.839  -4.232  0.00  0.00     0.149 C 
HETATM   24  H   UNK N   1      27.694  27.371  -5.895  0.00  0.00     0.210 HD
ENDROOT
TORSDOF 0
ENDMDL
MODEL 9
REMARK VINA RESULT:      -6.7     10.931     12.338
REMARK  0 active torsions:
REMARK  status: ('A' for Active; 'I' for Inactive)
ROOT
HETATM    1  O   UNK N   1      25.291  17.588   5.687  0.00  0.00    -0.389 OA
HETATM    2  O   UNK N   1      34.549  14.370   8.375  0.00  0.00    -0.293 OA
HETATM    3  C   UNK N   1      27.869  16.663   4.965  0.00  0.00     0.001 C 
HETATM    4  C   UNK N   1      27.624  18.125   5.343  0.00  0.00    -0.009 C 
HETATM    5  C   UNK N   1      29.338  16.235   5.214  0.00  0.00    -0.001 C 
HETATM    6  C   UNK N   1      29.685  16.498   6.715  0.00  0.00     0.003 C 
HETATM    7  C   UNK N   1      26.173  18.303   4.870  0.00  0.00     0.062 C 
HETATM    8  C   UNK N   1      31.189  16.223   6.986  0.00  0.00    -0.016 C 
HETATM    9  C   UNK N   1      27.868  18.312   6.839  0.00  0.00     0.013 C 
HETATM   10  C   UNK N   1      29.320  17.937   7.163  0.00  0.00     0.007 C 
HETATM   11  C   UNK N   1      27.332  16.602   3.535  0.00  0.00     0.009 C 
HETATM   12  C   UNK N   1      29.569  14.729   4.938  0.00  0.00    -0.010 C 
HETATM   13  C   UNK N   1      26.195  17.644   3.488  0.00  0.00     0.038 C 
HETATM   14  C   UNK N   1      31.007  14.294   5.216  0.00  0.00     0.039 C 
HETATM   15  C   UNK N   1      31.578  14.834   6.498  0.00  0.00    -0.067 C 
HETATM   16  C   UNK N   1      28.553  19.082   4.562  0.00  0.00     0.018 C 
HETATM   17  C   UNK N   1      31.470  16.326   8.497  0.00  0.00     0.022 C 
HETATM   18  C   UNK N   1      25.710  19.751   4.809  0.00  0.00     0.046 C 
HETATM   19  C   UNK N   1      32.056  17.249   6.248  0.00  0.00     0.020 C 
HETATM   20  C   UNK N   1      29.246  14.329   3.509  0.00  0.00     0.010 C 
HETATM   21  C   UNK N   1      32.927  16.009   8.857  0.00  0.00     0.084 C 
HETATM   22  C   UNK N   1      32.696  14.252   6.960  0.00  0.00     0.053 C 
HETATM   23  C   UNK N   1      33.457  14.831   8.088  0.00  0.00     0.149 C 
HETATM   24  H   UNK N   1      24.718  16.977   6.177  0.00  0.00     0.210 HD
ENDROOT
TORSDOF 0
ENDMDL
