MODEL 1
REMARK VINA RESULT:      -4.8      0.000      0.000
REMARK  4 active torsions:
REMARK  status: ('A' for Active; 'I' for Inactive)
REMARK    1  A    between atoms: O_1  and  C_11 
REMARK    2  A    between atoms: N_2  and  C_4 
REMARK    3  A    between atoms: C_3  and  C_4 
REMARK    4  A    between atoms: C_3  and  C_5 
ROOT
HETATM    1  C   UNK N   1      25.765  25.070  -5.187  0.00  0.00    -0.056 A 
HETATM    2  C   UNK N   1      25.152  26.195  -5.757  0.00  0.00     0.010 A 
HETATM    3  C   UNK N   1      26.409  25.187  -3.950  0.00  0.00     0.010 A 
HETATM    4  C   UNK N   1      25.179  27.424  -5.092  0.00  0.00     0.037 A 
HETATM    5  C   UNK N   1      26.444  26.419  -3.290  0.00  0.00     0.037 A 
HETATM    6  C   UNK N   1      25.832  27.549  -3.862  0.00  0.00     0.068 A 
ENDROOT
BRANCH   1   7
HETATM    7  C   UNK N   1      25.791  23.758  -5.909  0.00  0.00     0.062 C 
BRANCH   7   8
HETATM    8  C   UNK N   1      25.971  23.900  -7.415  0.00  0.00     0.074 C 
HETATM    9  C   UNK N   1      27.267  23.239  -7.848  0.00  0.00     0.032 C 
BRANCH   8  10
HETATM   10  N   UNK N   1      24.868  23.242  -8.090  0.00  0.00    -0.426 N 
HETATM   11  H   UNK N   1      23.925  23.304  -7.706  0.00  0.00     0.150 HD
HETATM   12  H   UNK N   1      25.035  22.717  -8.948  0.00  0.00     0.150 HD
ENDBRANCH   8  10
ENDBRANCH   7   8
ENDBRANCH   1   7
BRANCH   6  13
HETATM   13  O   UNK N   1      25.864  28.760  -3.259  0.00  0.00    -0.356 OA
HETATM   14  C   UNK N   1      26.472  29.864  -3.814  0.00  0.00     0.210 C 
ENDBRANCH   6  13
TORSDOF 4
ENDMDL
MODEL 2
REMARK VINA RESULT:      -4.7     19.051     20.188
REMARK  4 active torsions:
REMARK  status: ('A' for Active; 'I' for Inactive)
REMARK    1  A    between atoms: O_1  and  C_11 
REMARK    2  A    between atoms: N_2  and  C_4 
REMARK    3  A    between atoms: C_3  and  C_4 
REMARK    4  A    between atoms: C_3  and  C_5 
ROOT
HETATM    1  C   UNK N   1      21.944  12.448   9.547  0.00  0.00    -0.056 A 
HETATM    2  C   UNK N   1      22.012  12.366   8.149  0.00  0.00     0.010 A 
HETATM    3  C   UNK N   1      21.147  13.430  10.144  0.00  0.00     0.010 A 
HETATM    4  C   UNK N   1      21.284  13.257   7.355  0.00  0.00     0.037 A 
HETATM    5  C   UNK N   1      20.426  14.328   9.350  0.00  0.00     0.037 A 
HETATM    6  C   UNK N   1      20.495  14.248   7.947  0.00  0.00     0.068 A 
ENDROOT
BRANCH   1   7
HETATM    7  C   UNK N   1      22.759  11.536  10.412  0.00  0.00     0.062 C 
BRANCH   7   8
HETATM    8  C   UNK N   1      23.603  12.274  11.443  0.00  0.00     0.074 C 
HETATM    9  C   UNK N   1      23.223  11.825  12.842  0.00  0.00     0.032 C 
BRANCH   8  10
HETATM   10  N   UNK N   1      25.003  11.965  11.222  0.00  0.00    -0.426 N 
HETATM   11  H   UNK N   1      25.666  12.714  11.025  0.00  0.00     0.150 HD
HETATM   12  H   UNK N   1      25.325  10.998  11.263  0.00  0.00     0.150 HD
ENDBRANCH   8  10
ENDBRANCH   7   8
ENDBRANCH   1   7
BRANCH   6  13
HETATM   13  O   UNK N   1      19.825  15.114   7.150  0.00  0.00    -0.356 OA
HETATM   14  C   UNK N   1      19.600  16.430   7.486  0.00  0.00     0.210 C 
ENDBRANCH   6  13
TORSDOF 4
ENDMDL
MODEL 3
REMARK VINA RESULT:      -4.6     27.299     28.573
REMARK  4 active torsions:
REMARK  status: ('A' for Active; 'I' for Inactive)
REMARK    1  A    between atoms: O_1  and  C_11 
REMARK    2  A    between atoms: N_2  and  C_4 
REMARK    3  A    between atoms: C_3  and  C_4 
REMARK    4  A    between atoms: C_3  and  C_5 
ROOT
HETATM    1  C   UNK N   1      35.289  12.606  17.035  0.00  0.00    -0.056 A 
HETATM    2  C   UNK N   1      35.350  11.208  17.111  0.00  0.00     0.010 A 
HETATM    3  C   UNK N   1      35.207  13.358  18.211  0.00  0.00     0.010 A 
HETATM    4  C   UNK N   1      35.336  10.568  18.353  0.00  0.00     0.037 A 
HETATM    5  C   UNK N   1      35.182  12.718  19.455  0.00  0.00     0.037 A 
HETATM    6  C   UNK N   1      35.241  11.315  19.531  0.00  0.00     0.068 A 
ENDROOT
BRANCH   1   7
HETATM    7  C   UNK N   1      35.251  13.305  15.710  0.00  0.00     0.062 C 
BRANCH   7   8
HETATM    8  C   UNK N   1      36.613  13.401  15.037  0.00  0.00     0.074 C 
HETATM    9  C   UNK N   1      36.451  13.358  13.528  0.00  0.00     0.032 C 
BRANCH   8  10
HETATM   10  N   UNK N   1      37.236  14.660  15.400  0.00  0.00    -0.426 N 
HETATM   11  H   UNK N   1      37.186  14.995  16.363  0.00  0.00     0.150 HD
HETATM   12  H   UNK N   1      37.723  15.211  14.694  0.00  0.00     0.150 HD
ENDBRANCH   8  10
ENDBRANCH   7   8
ENDBRANCH   1   7
BRANCH   6  13
HETATM   13  O   UNK N   1      35.200  10.664  20.717  0.00  0.00    -0.356 OA
HETATM   14  C   UNK N   1      34.118   9.919  21.132  0.00  0.00     0.210 C 
ENDBRANCH   6  13
TORSDOF 4
ENDMDL
MODEL 4
REMARK VINA RESULT:      -4.5     14.965     16.396
REMARK  4 active torsions:
REMARK  status: ('A' for Active; 'I' for Inactive)
REMARK    1  A    between atoms: O_1  and  C_11 
REMARK    2  A    between atoms: N_2  and  C_4 
REMARK    3  A    between atoms: C_3  and  C_4 
REMARK    4  A    between atoms: C_3  and  C_5 
ROOT
HETATM    1  C   UNK N   1      30.389  17.382   7.037  0.00  0.00    -0.056 A 
HETATM    2  C   UNK N   1      30.852  17.081   5.749  0.00  0.00     0.010 A 
HETATM    3  C   UNK N   1      31.307  17.541   8.081  0.00  0.00     0.010 A 
HETATM    4  C   UNK N   1      32.221  16.947   5.505  0.00  0.00     0.037 A 
HETATM    5  C   UNK N   1      32.677  17.397   7.840  0.00  0.00     0.037 A 
HETATM    6  C   UNK N   1      33.142  17.093   6.547  0.00  0.00     0.068 A 
ENDROOT
BRANCH   1   7
HETATM    7  C   UNK N   1      28.922  17.477   7.327  0.00  0.00     0.062 C 
BRANCH   7   8
HETATM    8  C   UNK N   1      28.522  18.782   8.002  0.00  0.00     0.074 C 
HETATM    9  C   UNK N   1      27.803  19.680   7.011  0.00  0.00     0.032 C 
BRANCH   8  10
HETATM   10  N   UNK N   1      27.622  18.492   9.102  0.00  0.00    -0.426 N 
HETATM   11  H   UNK N   1      26.821  19.099   9.280  0.00  0.00     0.150 HD
HETATM   12  H   UNK N   1      27.789  17.682   9.698  0.00  0.00     0.150 HD
ENDBRANCH   8  10
ENDBRANCH   7   8
ENDBRANCH   1   7
BRANCH   6  13
HETATM   13  O   UNK N   1      34.460  16.928   6.284  0.00  0.00    -0.356 OA
HETATM   14  C   UNK N   1      35.063  15.694   6.195  0.00  0.00     0.210 C 
ENDBRANCH   6  13
TORSDOF 4
ENDMDL
MODEL 5
REMARK VINA RESULT:      -4.4     15.713     17.095
REMARK  4 active torsions:
REMARK  status: ('A' for Active; 'I' for Inactive)
REMARK    1  A    between atoms: O_1  and  C_11 
REMARK    2  A    between atoms: N_2  and  C_4 
REMARK    3  A    between atoms: C_3  and  C_4 
REMARK    4  A    between atoms: C_3  and  C_5 
ROOT
HETATM    1  C   UNK N   1      33.280  17.547   7.206  0.00  0.00    -0.056 A 
HETATM    2  C   UNK N   1      33.686  17.553   5.865  0.00  0.00     0.010 A 
HETATM    3  C   UNK N   1      31.930  17.353   7.518  0.00  0.00     0.010 A 
HETATM    4  C   UNK N   1      32.752  17.359   4.844  0.00  0.00     0.037 A 
HETATM    5  C   UNK N   1      30.992  17.169   6.496  0.00  0.00     0.037 A 
HETATM    6  C   UNK N   1      31.399  17.177   5.150  0.00  0.00     0.068 A 
ENDROOT
BRANCH   1   7
HETATM    7  C   UNK N   1      34.260  17.805   8.310  0.00  0.00     0.062 C 
BRANCH   7   8
HETATM    8  C   UNK N   1      34.303  16.696   9.353  0.00  0.00     0.074 C 
HETATM    9  C   UNK N   1      35.022  15.483   8.791  0.00  0.00     0.032 C 
BRANCH   8  10
HETATM   10  N   UNK N   1      35.027  17.166  10.518  0.00  0.00    -0.426 N 
HETATM   11  H   UNK N   1      35.993  16.876  10.670  0.00  0.00     0.150 HD
HETATM   12  H   UNK N   1      34.571  17.788  11.186  0.00  0.00     0.150 HD
ENDBRANCH   8  10
ENDBRANCH   7   8
ENDBRANCH   1   7
BRANCH   6  13
HETATM   13  O   UNK N   1      30.515  17.022   4.137  0.00  0.00    -0.356 OA
HETATM   14  C   UNK N   1      29.180  16.749   4.336  0.00  0.00     0.210 C 
ENDBRANCH   6  13
TORSDOF 4
ENDMDL
MODEL 6
REMARK VINA RESULT:      -4.4     27.771     29.090
REMARK  4 active torsions:
REMARK  status: ('A' for Active; 'I' for Inactive)
REMARK    1  A    between atoms: O_1  and  C_11 
REMARK    2  A    between atoms: N_2  and  C_4 
REMARK    3  A    between atoms: C_3  and  C_4 
REMARK    4  A    between atoms: C_3  and  C_5 
ROOT
HETATM    1  C   UNK N   1      35.517  11.383  18.532  0.00  0.00    -0.056 A 
HETATM    2  C   UNK N   1      35.601  10.691  17.316  0.00  0.00     0.010 A 
HETATM    3  C   UNK N   1      35.171  12.739  18.532  0.00  0.00     0.010 A 
HETATM    4  C   UNK N   1      35.334  11.348  16.111  0.00  0.00     0.037 A 
HETATM    5  C   UNK N   1      34.914  13.399  17.326  0.00  0.00     0.037 A 
HETATM    6  C   UNK N   1      34.999  12.706  16.106  0.00  0.00     0.068 A 
ENDROOT
BRANCH   1   7
HETATM    7  C   UNK N   1      35.851  10.709  19.827  0.00  0.00     0.062 C 
BRANCH   7   8
HETATM    8  C   UNK N   1      34.637  10.467  20.714  0.00  0.00     0.074 C 
HETATM    9  C   UNK N   1      33.818   9.311  20.169  0.00  0.00     0.032 C 
BRANCH   8  10
HETATM   10  N   UNK N   1      35.085  10.128  22.051  0.00  0.00    -0.426 N 
HETATM   11  H   UNK N   1      34.751   9.275  22.500  0.00  0.00     0.150 HD
HETATM   12  H   UNK N   1      35.734  10.741  22.544  0.00  0.00     0.150 HD
ENDBRANCH   8  10
ENDBRANCH   7   8
ENDBRANCH   1   7
BRANCH   6  13
HETATM   13  O   UNK N   1      34.775  13.319  14.920  0.00  0.00    -0.356 OA
HETATM   14  C   UNK N   1      35.335  12.899  13.735  0.00  0.00     0.210 C 
ENDBRANCH   6  13
TORSDOF 4
ENDMDL
MODEL 7
REMARK VINA RESULT:      -4.3     14.282     15.620
REMARK  4 active torsions:
REMARK  status: ('A' for Active; 'I' for Inactive)
REMARK    1  A    between atoms: O_1  and  C_11 
REMARK    2  A    between atoms: N_2  and  C_4 
REMARK    3  A    between atoms: C_3  and  C_4 
REMARK    4  A    between atoms: C_3  and  C_5 
ROOT
HETATM    1  C   UNK N   1      29.193  17.860   7.117  0.00  0.00    -0.056 A 
HETATM    2  C   UNK N   1      29.511  18.358   8.388  0.00  0.00     0.010 A 
HETATM    3  C   UNK N   1      30.182  17.225   6.358  0.00  0.00     0.010 A 
HETATM    4  C   UNK N   1      30.805  18.217   8.897  0.00  0.00     0.037 A 
HETATM    5  C   UNK N   1      31.479  17.092   6.863  0.00  0.00     0.037 A 
HETATM    6  C   UNK N   1      31.799  17.593   8.137  0.00  0.00     0.068 A 
ENDROOT
BRANCH   1   7
HETATM    7  C   UNK N   1      27.826  18.050   6.535  0.00  0.00     0.062 C 
BRANCH   7   8
HETATM    8  C   UNK N   1      27.538  19.488   6.125  0.00  0.00     0.074 C 
HETATM    9  C   UNK N   1      28.044  19.738   4.716  0.00  0.00     0.032 C 
BRANCH   8  10
HETATM   10  N   UNK N   1      26.105  19.712   6.149  0.00  0.00    -0.426 N 
HETATM   11  H   UNK N   1      25.465  18.937   5.973  0.00  0.00     0.150 HD
HETATM   12  H   UNK N   1      25.736  20.643   6.340  0.00  0.00     0.150 HD
ENDBRANCH   8  10
ENDBRANCH   7   8
ENDBRANCH   1   7
BRANCH   6  13
HETATM   13  O   UNK N   1      33.050  17.498   8.647  0.00  0.00    -0.356 OA
HETATM   14  C   UNK N   1      34.120  18.212   8.159  0.00  0.00     0.210 C 
ENDBRANCH   6  13
TORSDOF 4
ENDMDL
MODEL 8
REMARK VINA RESULT:      -4.3     12.758     14.159
REMARK  4 active torsions:
REMARK  status: ('A' for Active; 'I' for Inactive)
REMARK    1  A    between atoms: O_1  and  C_11 
REMARK    2  A    between atoms: N_2  and  C_4 
REMARK    3  A    between atoms: C_3  and  C_4 
REMARK    4  A    between atoms: C_3  and  C_5 
ROOT
HETATM    1  C   UNK N   1      28.381  18.836   6.508  0.00  0.00    -0.056 A 
HETATM    2  C   UNK N   1      28.336  18.318   5.206  0.00  0.00     0.010 A 
HETATM    3  C   UNK N   1      27.706  20.026   6.801  0.00  0.00     0.010 A 
HETATM    4  C   UNK N   1      27.617  18.981   4.208  0.00  0.00     0.037 A 
HETATM    5  C   UNK N   1      26.995  20.695   5.800  0.00  0.00     0.037 A 
HETATM    6  C   UNK N   1      26.951  20.177   4.493  0.00  0.00     0.068 A 
ENDROOT
BRANCH   1   7
HETATM    7  C   UNK N   1      29.190  18.167   7.576  0.00  0.00     0.062 C 
BRANCH   7   8
HETATM    8  C   UNK N   1      28.659  18.414   8.982  0.00  0.00     0.074 C 
HETATM    9  C   UNK N   1      27.878  17.204   9.462  0.00  0.00     0.032 C 
BRANCH   8  10
HETATM   10  N   UNK N   1      29.776  18.632   9.881  0.00  0.00    -0.426 N 
HETATM   11  H   UNK N   1      29.667  19.238  10.694  0.00  0.00     0.150 HD
HETATM   12  H   UNK N   1      30.672  18.178   9.702  0.00  0.00     0.150 HD
ENDBRANCH   8  10
ENDBRANCH   7   8
ENDBRANCH   1   7
BRANCH   6  13
HETATM   13  O   UNK N   1      26.288  20.810   3.497  0.00  0.00    -0.356 OA
HETATM   14  C   UNK N   1      25.282  20.219   2.765  0.00  0.00     0.210 C 
ENDBRANCH   6  13
TORSDOF 4
ENDMDL
MODEL 9
REMARK VINA RESULT:      -4.2     26.621     27.888
REMARK  4 active torsions:
REMARK  status: ('A' for Active; 'I' for Inactive)
REMARK    1  A    between atoms: O_1  and  C_11 
REMARK    2  A    between atoms: N_2  and  C_4 
REMARK    3  A    between atoms: C_3  and  C_4 
REMARK    4  A    between atoms: C_3  and  C_5 
ROOT
HETATM    1  C   UNK N   1      34.912  10.463  16.450  0.00  0.00    -0.056 A 
HETATM    2  C   UNK N   1      34.130  10.428  15.288  0.00  0.00     0.010 A 
HETATM    3  C   UNK N   1      35.732  11.569  16.698  0.00  0.00     0.010 A 
HETATM    4  C   UNK N   1      34.163  11.494  14.384  0.00  0.00     0.037 A 
HETATM    5  C   UNK N   1      35.773  12.631  15.789  0.00  0.00     0.037 A 
HETATM    6  C   UNK N   1      34.990  12.596  14.621  0.00  0.00     0.068 A 
ENDROOT
BRANCH   1   7
HETATM    7  C   UNK N   1      34.929   9.307  17.403  0.00  0.00     0.062 C 
BRANCH   7   8
HETATM    8  C   UNK N   1      34.511   9.683  18.818  0.00  0.00     0.074 C 
HETATM    9  C   UNK N   1      33.365   8.797  19.273  0.00  0.00     0.032 C 
BRANCH   8  10
HETATM   10  N   UNK N   1      35.633   9.484  19.715  0.00  0.00    -0.426 N 
HETATM   11  H   UNK N   1      36.230  10.272  19.968  0.00  0.00     0.150 HD
HETATM   12  H   UNK N   1      35.827   8.557  20.093  0.00  0.00     0.150 HD
ENDBRANCH   8  10
ENDBRANCH   7   8
ENDBRANCH   1   7
BRANCH   6  13
HETATM   13  O   UNK N   1      35.020  13.598  13.711  0.00  0.00    -0.356 OA
HETATM   14  C   UNK N   1      36.142  14.357  13.462  0.00  0.00     0.210 C 
ENDBRANCH   6  13
TORSDOF 4
ENDMDL
