MODEL 1
REMARK VINA RESULT:      -6.7      0.000      0.000
REMARK  8 active torsions:
REMARK  status: ('A' for Active; 'I' for Inactive)
REMARK    1  A    between atoms: O_2  and  C_12 
REMARK    2  A    between atoms: O_2  and  C_25 
REMARK    3  A    between atoms: N_4  and  C_7 
REMARK    4  A    between atoms: C_5  and  C_6 
REMARK    5  A    between atoms: C_5  and  C_10 
REMARK    6  A    between atoms: C_5  and  C_11 
REMARK    7  A    between atoms: C_5  and  C_12 
REMARK    8  A    between atoms: C_6  and  C_7 
ROOT
HETATM    1  C   UNK N   1      36.212  12.714  14.620  0.00  0.00     0.103 C 
ENDROOT
BRANCH   1   2
HETATM    2  C   UNK N   1      36.792  13.325  13.300  0.00  0.00     0.060 C 
BRANCH   2   3
HETATM    3  C   UNK N   1      35.807  14.388  12.787  0.00  0.00     0.274 C 
BRANCH   3   4
HETATM    4  N   UNK N   1      35.888  14.662  11.371  0.00  0.00     0.092 N 
HETATM    5  C   UNK N   1      35.618  16.104  11.292  0.00  0.00     0.298 C 
HETATM    6  C   UNK N   1      35.117  16.504   9.905  0.00  0.00     0.198 C 
HETATM    7  O   UNK N   1      33.943  15.791   9.623  0.00  0.00    -0.388 OA
HETATM    8  C   UNK N   1      34.348  14.462   9.442  0.00  0.00     0.198 C 
HETATM    9  C   UNK N   1      34.782  13.886  10.791  0.00  0.00     0.298 C 
ENDBRANCH   3   4
ENDBRANCH   2   3
ENDBRANCH   1   2
BRANCH   1  10
HETATM   10  C   UNK N   1      36.982  11.418  14.940  0.00  0.00    -0.035 A 
HETATM   11  C   UNK N   1      38.043  11.008  14.099  0.00  0.00     0.009 A 
HETATM   12  C   UNK N   1      38.698   9.794  14.293  0.00  0.00     0.001 A 
HETATM   13  C   UNK N   1      38.293   8.951  15.325  0.00  0.00     0.000 A 
HETATM   14  C   UNK N   1      37.232   9.324  16.155  0.00  0.00     0.001 A 
HETATM   15  C   UNK N   1      36.568  10.544  15.958  0.00  0.00     0.009 A 
ENDBRANCH   1  10
BRANCH   1  16
HETATM   16  C   UNK N   1      36.223  13.815  15.723  0.00  0.00    -0.035 A 
HETATM   17  C   UNK N   1      37.142  14.885  15.672  0.00  0.00     0.009 A 
HETATM   18  C   UNK N   1      37.298  15.760  16.752  0.00  0.00     0.001 A 
HETATM   19  C   UNK N   1      36.532  15.593  17.907  0.00  0.00     0.000 A 
HETATM   20  C   UNK N   1      35.608  14.553  17.980  0.00  0.00     0.001 A 
HETATM   21  C   UNK N   1      35.475  13.664  16.913  0.00  0.00     0.009 A 
ENDBRANCH   1  16
BRANCH   1  22
HETATM   22  C   UNK N   1      34.763  12.266  14.439  0.00  0.00     0.277 C 
HETATM   23  O   UNK N   1      33.902  12.567  15.244  0.00  0.00    -0.264 OA
BRANCH  22  24
HETATM   24  O   UNK N   1      34.455  11.532  13.331  0.00  0.00    -0.321 OA
BRANCH  24  25
HETATM   25  C   UNK N   1      33.860  10.296  13.366  0.00  0.00     0.174 C 
HETATM   26  C   UNK N   1      34.836   9.274  12.811  0.00  0.00     0.034 C 
ENDBRANCH  24  25
ENDBRANCH  22  24
ENDBRANCH   1  22
TORSDOF 8
ENDMDL
MODEL 2
REMARK VINA RESULT:      -6.5      1.442      2.099
REMARK  8 active torsions:
REMARK  status: ('A' for Active; 'I' for Inactive)
REMARK    1  A    between atoms: O_2  and  C_12 
REMARK    2  A    between atoms: O_2  and  C_25 
REMARK    3  A    between atoms: N_4  and  C_7 
REMARK    4  A    between atoms: C_5  and  C_6 
REMARK    5  A    between atoms: C_5  and  C_10 
REMARK    6  A    between atoms: C_5  and  C_11 
REMARK    7  A    between atoms: C_5  and  C_12 
REMARK    8  A    between atoms: C_6  and  C_7 
ROOT
HETATM    1  C   UNK N   1      35.982  11.870  15.276  0.00  0.00     0.103 C 
ENDROOT
BRANCH   1   2
HETATM    2  C   UNK N   1      36.738  13.125  14.723  0.00  0.00     0.060 C 
BRANCH   2   3
HETATM    3  C   UNK N   1      35.856  13.784  13.650  0.00  0.00     0.274 C 
BRANCH   3   4
HETATM    4  N   UNK N   1      36.580  14.434  12.582  0.00  0.00     0.092 N 
HETATM    5  C   UNK N   1      35.541  15.222  11.904  0.00  0.00     0.298 C 
HETATM    6  C   UNK N   1      35.935  15.545  10.463  0.00  0.00     0.198 C 
HETATM    7  O   UNK N   1      36.140  14.344   9.768  0.00  0.00    -0.388 OA
HETATM    8  C   UNK N   1      37.316  13.800  10.304  0.00  0.00     0.198 C 
HETATM    9  C   UNK N   1      37.040  13.326  11.731  0.00  0.00     0.298 C 
ENDBRANCH   3   4
ENDBRANCH   2   3
ENDBRANCH   1   2
BRANCH   1  10
HETATM   10  C   UNK N   1      36.865  10.627  15.049  0.00  0.00    -0.035 A 
HETATM   11  C   UNK N   1      36.400   9.354  15.453  0.00  0.00     0.009 A 
HETATM   12  C   UNK N   1      37.205   8.221  15.359  0.00  0.00     0.001 A 
HETATM   13  C   UNK N   1      38.505   8.339  14.875  0.00  0.00     0.000 A 
HETATM   14  C   UNK N   1      38.996   9.591  14.492  0.00  0.00     0.001 A 
HETATM   15  C   UNK N   1      38.188  10.733  14.590  0.00  0.00     0.009 A 
ENDBRANCH   1  10
BRANCH   1  16
HETATM   16  C   UNK N   1      35.556  12.155  16.749  0.00  0.00    -0.035 A 
HETATM   17  C   UNK N   1      35.331  13.475  17.196  0.00  0.00     0.009 A 
HETATM   18  C   UNK N   1      35.149  13.758  18.554  0.00  0.00     0.001 A 
HETATM   19  C   UNK N   1      35.178  12.729  19.496  0.00  0.00     0.000 A 
HETATM   20  C   UNK N   1      35.386  11.417  19.081  0.00  0.00     0.001 A 
HETATM   21  C   UNK N   1      35.597  11.139  17.730  0.00  0.00     0.009 A 
ENDBRANCH   1  16
BRANCH   1  22
HETATM   22  C   UNK N   1      34.709  11.588  14.481  0.00  0.00     0.277 C 
HETATM   23  O   UNK N   1      33.609  11.832  14.940  0.00  0.00    -0.264 OA
BRANCH  22  24
HETATM   24  O   UNK N   1      34.842  11.072  13.225  0.00  0.00    -0.321 OA
BRANCH  24  25
HETATM   25  C   UNK N   1      33.952  10.197  12.654  0.00  0.00     0.174 C 
HETATM   26  C   UNK N   1      34.712   8.964  12.198  0.00  0.00     0.034 C 
ENDBRANCH  24  25
ENDBRANCH  22  24
ENDBRANCH   1  22
TORSDOF 8
ENDMDL
MODEL 3
REMARK VINA RESULT:      -6.4      8.639     12.438
REMARK  8 active torsions:
REMARK  status: ('A' for Active; 'I' for Inactive)
REMARK    1  A    between atoms: O_2  and  C_12 
REMARK    2  A    between atoms: O_2  and  C_25 
REMARK    3  A    between atoms: N_4  and  C_7 
REMARK    4  A    between atoms: C_5  and  C_6 
REMARK    5  A    between atoms: C_5  and  C_10 
REMARK    6  A    between atoms: C_5  and  C_11 
REMARK    7  A    between atoms: C_5  and  C_12 
REMARK    8  A    between atoms: C_6  and  C_7 
ROOT
HETATM    1  C   UNK N   1      29.470  17.194   5.810  0.00  0.00     0.103 C 
ENDROOT
BRANCH   1   2
HETATM    2  C   UNK N   1      30.200  17.460   7.170  0.00  0.00     0.060 C 
BRANCH   2   3
HETATM    3  C   UNK N   1      30.946  16.178   7.575  0.00  0.00     0.274 C 
BRANCH   3   4
HETATM    4  N   UNK N   1      32.294  16.383   8.055  0.00  0.00     0.092 N 
HETATM    5  C   UNK N   1      32.435  17.846   8.043  0.00  0.00     0.298 C 
HETATM    6  C   UNK N   1      33.903  18.265   7.980  0.00  0.00     0.198 C 
HETATM    7  O   UNK N   1      34.480  17.730   6.819  0.00  0.00    -0.388 OA
HETATM    8  C   UNK N   1      34.554  16.348   7.044  0.00  0.00     0.198 C 
HETATM    9  C   UNK N   1      33.141  15.764   7.025  0.00  0.00     0.298 C 
ENDBRANCH   3   4
ENDBRANCH   2   3
ENDBRANCH   1   2
BRANCH   1  10
HETATM   10  C   UNK N   1      28.566  18.402   5.495  0.00  0.00    -0.035 A 
HETATM   11  C   UNK N   1      28.166  19.269   6.539  0.00  0.00     0.009 A 
HETATM   12  C   UNK N   1      27.270  20.311   6.316  0.00  0.00     0.001 A 
HETATM   13  C   UNK N   1      26.736  20.500   5.044  0.00  0.00     0.000 A 
HETATM   14  C   UNK N   1      27.099  19.642   4.000  0.00  0.00     0.001 A 
HETATM   15  C   UNK N   1      27.998  18.589   4.224  0.00  0.00     0.009 A 
ENDBRANCH   1  10
BRANCH   1  16
HETATM   16  C   UNK N   1      30.540  16.832   4.735  0.00  0.00    -0.035 A 
HETATM   17  C   UNK N   1      30.631  15.523   4.215  0.00  0.00     0.009 A 
HETATM   18  C   UNK N   1      31.707  15.137   3.408  0.00  0.00     0.001 A 
HETATM   19  C   UNK N   1      32.712  16.053   3.093  0.00  0.00     0.000 A 
HETATM   20  C   UNK N   1      32.640  17.354   3.582  0.00  0.00     0.001 A 
HETATM   21  C   UNK N   1      31.582  17.729   4.411  0.00  0.00     0.009 A 
ENDBRANCH   1  16
BRANCH   1  22
HETATM   22  C   UNK N   1      28.510  16.011   5.913  0.00  0.00     0.277 C 
HETATM   23  O   UNK N   1      28.683  14.997   5.263  0.00  0.00    -0.264 OA
BRANCH  22  24
HETATM   24  O   UNK N   1      27.457  16.116   6.774  0.00  0.00    -0.321 OA
BRANCH  24  25
HETATM   25  C   UNK N   1      26.246  15.500   6.589  0.00  0.00     0.174 C 
HETATM   26  C   UNK N   1      25.442  16.306   5.585  0.00  0.00     0.034 C 
ENDBRANCH  24  25
ENDBRANCH  22  24
ENDBRANCH   1  22
TORSDOF 8
ENDMDL
MODEL 4
REMARK VINA RESULT:      -6.3      5.744      9.581
REMARK  8 active torsions:
REMARK  status: ('A' for Active; 'I' for Inactive)
REMARK    1  A    between atoms: O_2  and  C_12 
REMARK    2  A    between atoms: O_2  and  C_25 
REMARK    3  A    between atoms: N_4  and  C_7 
REMARK    4  A    between atoms: C_5  and  C_6 
REMARK    5  A    between atoms: C_5  and  C_10 
REMARK    6  A    between atoms: C_5  and  C_11 
REMARK    7  A    between atoms: C_5  and  C_12 
REMARK    8  A    between atoms: C_6  and  C_7 
ROOT
HETATM    1  C   UNK N   1      33.458  16.813   7.330  0.00  0.00     0.103 C 
ENDROOT
BRANCH   1   2
HETATM    2  C   UNK N   1      33.784  17.153   5.837  0.00  0.00     0.060 C 
BRANCH   2   3
HETATM    3  C   UNK N   1      34.118  15.843   5.106  0.00  0.00     0.274 C 
BRANCH   3   4
HETATM    4  N   UNK N   1      33.423  15.649   3.854  0.00  0.00     0.092 N 
HETATM    5  C   UNK N   1      32.823  16.965   3.596  0.00  0.00     0.298 C 
HETATM    6  C   UNK N   1      31.626  16.859   2.653  0.00  0.00     0.198 C 
HETATM    7  O   UNK N   1      30.668  16.012   3.228  0.00  0.00    -0.388 OA
HETATM    8  C   UNK N   1      31.227  14.727   3.177  0.00  0.00     0.198 C 
HETATM    9  C   UNK N   1      32.390  14.651   4.167  0.00  0.00     0.298 C 
ENDBRANCH   3   4
ENDBRANCH   2   3
ENDBRANCH   1   2
BRANCH   1  10
HETATM   10  C   UNK N   1      31.995  17.205   7.615  0.00  0.00    -0.035 A 
HETATM   11  C   UNK N   1      30.992  16.905   6.663  0.00  0.00     0.009 A 
HETATM   12  C   UNK N   1      29.677  17.330   6.833  0.00  0.00     0.001 A 
HETATM   13  C   UNK N   1      29.337  18.084   7.954  0.00  0.00     0.000 A 
HETATM   14  C   UNK N   1      30.316  18.413   8.897  0.00  0.00     0.001 A 
HETATM   15  C   UNK N   1      31.641  17.989   8.725  0.00  0.00     0.009 A 
ENDBRANCH   1  10
BRANCH   1  16
HETATM   16  C   UNK N   1      33.839  15.324   7.595  0.00  0.00    -0.035 A 
HETATM   17  C   UNK N   1      32.898  14.420   8.133  0.00  0.00     0.009 A 
HETATM   18  C   UNK N   1      33.282  13.144   8.562  0.00  0.00     0.001 A 
HETATM   19  C   UNK N   1      34.613  12.739   8.455  0.00  0.00     0.000 A 
HETATM   20  C   UNK N   1      35.560  13.607   7.917  0.00  0.00     0.001 A 
HETATM   21  C   UNK N   1      35.181  14.889   7.517  0.00  0.00     0.009 A 
ENDBRANCH   1  16
BRANCH   1  22
HETATM   22  C   UNK N   1      34.280  17.670   8.291  0.00  0.00     0.277 C 
HETATM   23  O   UNK N   1      34.916  18.631   7.898  0.00  0.00    -0.264 OA
BRANCH  22  24
HETATM   24  O   UNK N   1      34.265  17.339   9.615  0.00  0.00    -0.321 OA
BRANCH  24  25
HETATM   25  C   UNK N   1      35.380  16.998  10.336  0.00  0.00     0.174 C 
HETATM   26  C   UNK N   1      35.072  15.748  11.142  0.00  0.00     0.034 C 
ENDBRANCH  24  25
ENDBRANCH  22  24
ENDBRANCH   1  22
TORSDOF 8
ENDMDL
MODEL 5
REMARK VINA RESULT:      -6.3     20.797     24.920
REMARK  8 active torsions:
REMARK  status: ('A' for Active; 'I' for Inactive)
REMARK    1  A    between atoms: O_2  and  C_12 
REMARK    2  A    between atoms: O_2  and  C_25 
REMARK    3  A    between atoms: N_4  and  C_7 
REMARK    4  A    between atoms: C_5  and  C_6 
REMARK    5  A    between atoms: C_5  and  C_10 
REMARK    6  A    between atoms: C_5  and  C_11 
REMARK    7  A    between atoms: C_5  and  C_12 
REMARK    8  A    between atoms: C_6  and  C_7 
ROOT
HETATM    1  C   UNK N   1      27.672  24.677  -4.858  0.00  0.00     0.103 C 
ENDROOT
BRANCH   1   2
HETATM    2  C   UNK N   1      29.035  25.261  -5.361  0.00  0.00     0.060 C 
BRANCH   2   3
HETATM    3  C   UNK N   1      28.780  26.014  -6.677  0.00  0.00     0.274 C 
BRANCH   3   4
HETATM    4  N   UNK N   1      29.373  27.330  -6.751  0.00  0.00     0.092 N 
HETATM    5  C   UNK N   1      29.952  27.512  -5.413  0.00  0.00     0.298 C 
HETATM    6  C   UNK N   1      30.140  28.992  -5.082  0.00  0.00     0.198 C 
HETATM    7  O   UNK N   1      28.894  29.634  -5.145  0.00  0.00    -0.388 OA
HETATM    8  C   UNK N   1      28.554  29.654  -6.505  0.00  0.00     0.198 C 
HETATM    9  C   UNK N   1      28.229  28.230  -6.958  0.00  0.00     0.298 C 
ENDBRANCH   3   4
ENDBRANCH   2   3
ENDBRANCH   1   2
BRANCH   1  10
HETATM   10  C   UNK N   1      26.659  25.833  -4.734  0.00  0.00    -0.035 A 
HETATM   11  C   UNK N   1      25.638  25.977  -5.702  0.00  0.00     0.009 A 
HETATM   12  C   UNK N   1      24.766  27.062  -5.684  0.00  0.00     0.001 A 
HETATM   13  C   UNK N   1      24.908  28.043  -4.706  0.00  0.00     0.000 A 
HETATM   14  C   UNK N   1      25.925  27.936  -3.752  0.00  0.00     0.001 A 
HETATM   15  C   UNK N   1      26.806  26.845  -3.771  0.00  0.00     0.009 A 
ENDBRANCH   1  10
BRANCH   1  16
HETATM   16  C   UNK N   1      27.262  23.497  -5.791  0.00  0.00    -0.035 A 
HETATM   17  C   UNK N   1      28.235  22.767  -6.506  0.00  0.00     0.009 A 
HETATM   18  C   UNK N   1      27.869  21.846  -7.495  0.00  0.00     0.001 A 
HETATM   19  C   UNK N   1      26.522  21.627  -7.786  0.00  0.00     0.000 A 
HETATM   20  C   UNK N   1      25.541  22.326  -7.087  0.00  0.00     0.001 A 
HETATM   21  C   UNK N   1      25.908  23.264  -6.122  0.00  0.00     0.009 A 
ENDBRANCH   1  16
BRANCH   1  22
HETATM   22  C   UNK N   1      27.792  24.117  -3.442  0.00  0.00     0.277 C 
HETATM   23  O   UNK N   1      26.810  23.771  -2.812  0.00  0.00    -0.264 OA
BRANCH  22  24
HETATM   24  O   UNK N   1      29.041  23.994  -2.908  0.00  0.00    -0.321 OA
BRANCH  24  25
HETATM   25  C   UNK N   1      29.517  22.852  -2.315  0.00  0.00     0.174 C 
HETATM   26  C   UNK N   1      30.136  21.972  -3.386  0.00  0.00     0.034 C 
ENDBRANCH  24  25
ENDBRANCH  22  24
ENDBRANCH   1  22
TORSDOF 8
ENDMDL
MODEL 6
REMARK VINA RESULT:      -6.2     20.370     25.723
REMARK  8 active torsions:
REMARK  status: ('A' for Active; 'I' for Inactive)
REMARK    1  A    between atoms: O_2  and  C_12 
REMARK    2  A    between atoms: O_2  and  C_25 
REMARK    3  A    between atoms: N_4  and  C_7 
REMARK    4  A    between atoms: C_5  and  C_6 
REMARK    5  A    between atoms: C_5  and  C_10 
REMARK    6  A    between atoms: C_5  and  C_11 
REMARK    7  A    between atoms: C_5  and  C_12 
REMARK    8  A    between atoms: C_6  and  C_7 
ROOT
HETATM    1  C   UNK N   1      27.033  25.910  -6.402  0.00  0.00     0.103 C 
ENDROOT
BRANCH   1   2
HETATM    2  C   UNK N   1      28.506  25.460  -6.118  0.00  0.00     0.060 C 
BRANCH   2   3
HETATM    3  C   UNK N   1      28.685  25.331  -4.597  0.00  0.00     0.274 C 
BRANCH   3   4
HETATM    4  N   UNK N   1      29.114  24.028  -4.142  0.00  0.00     0.092 N 
HETATM    5  C   UNK N   1      28.362  23.844  -2.893  0.00  0.00     0.298 C 
HETATM    6  C   UNK N   1      29.038  22.826  -1.977  0.00  0.00     0.198 C 
HETATM    7  O   UNK N   1      30.335  23.270  -1.682  0.00  0.00    -0.388 OA
HETATM    8  C   UNK N   1      31.053  23.146  -2.880  0.00  0.00     0.198 C 
HETATM    9  C   UNK N   1      30.550  24.194  -3.873  0.00  0.00     0.298 C 
ENDBRANCH   3   4
ENDBRANCH   2   3
ENDBRANCH   1   2
BRANCH   1  10
HETATM   10  C   UNK N   1      26.696  27.096  -5.476  0.00  0.00    -0.035 A 
HETATM   11  C   UNK N   1      27.170  28.390  -5.794  0.00  0.00     0.009 A 
HETATM   12  C   UNK N   1      26.975  29.468  -4.934  0.00  0.00     0.001 A 
HETATM   13  C   UNK N   1      26.316  29.272  -3.724  0.00  0.00     0.000 A 
HETATM   14  C   UNK N   1      25.858  27.997  -3.376  0.00  0.00     0.001 A 
HETATM   15  C   UNK N   1      26.057  26.910  -4.239  0.00  0.00     0.009 A 
ENDBRANCH   1  10
BRANCH   1  16
HETATM   16  C   UNK N   1      26.877  26.163  -7.932  0.00  0.00    -0.035 A 
HETATM   17  C   UNK N   1      25.637  25.968  -8.577  0.00  0.00     0.009 A 
HETATM   18  C   UNK N   1      25.532  25.994  -9.972  0.00  0.00     0.001 A 
HETATM   19  C   UNK N   1      26.664  26.225 -10.756  0.00  0.00     0.000 A 
HETATM   20  C   UNK N   1      27.898  26.432 -10.146  0.00  0.00     0.001 A 
HETATM   21  C   UNK N   1      28.005  26.377  -8.756  0.00  0.00     0.009 A 
ENDBRANCH   1  16
BRANCH   1  22
HETATM   22  C   UNK N   1      26.032  24.823  -6.016  0.00  0.00     0.277 C 
HETATM   23  O   UNK N   1      24.915  25.102  -5.622  0.00  0.00    -0.264 OA
BRANCH  22  24
HETATM   24  O   UNK N   1      26.420  23.522  -6.147  0.00  0.00    -0.321 OA
BRANCH  24  25
HETATM   25  C   UNK N   1      25.791  22.607  -6.953  0.00  0.00     0.174 C 
HETATM   26  C   UNK N   1      26.731  22.236  -8.086  0.00  0.00     0.034 C 
ENDBRANCH  24  25
ENDBRANCH  22  24
ENDBRANCH   1  22
TORSDOF 8
ENDMDL
MODEL 7
REMARK VINA RESULT:      -6.1     10.139     13.049
REMARK  8 active torsions:
REMARK  status: ('A' for Active; 'I' for Inactive)
REMARK    1  A    between atoms: O_2  and  C_12 
REMARK    2  A    between atoms: O_2  and  C_25 
REMARK    3  A    between atoms: N_4  and  C_7 
REMARK    4  A    between atoms: C_5  and  C_6 
REMARK    5  A    between atoms: C_5  and  C_10 
REMARK    6  A    between atoms: C_5  and  C_11 
REMARK    7  A    between atoms: C_5  and  C_12 
REMARK    8  A    between atoms: C_6  and  C_7 
ROOT
HETATM    1  C   UNK N   1      28.987  17.223   4.852  0.00  0.00     0.103 C 
ENDROOT
BRANCH   1   2
HETATM    2  C   UNK N   1      28.874  16.888   3.327  0.00  0.00     0.060 C 
BRANCH   2   3
HETATM    3  C   UNK N   1      27.577  16.094   3.102  0.00  0.00     0.274 C 
BRANCH   3   4
HETATM    4  N   UNK N   1      27.663  15.056   2.101  0.00  0.00     0.092 N 
HETATM    5  C   UNK N   1      26.776  14.008   2.626  0.00  0.00     0.298 C 
HETATM    6  C   UNK N   1      27.124  12.639   2.046  0.00  0.00     0.198 C 
HETATM    7  O   UNK N   1      28.453  12.332   2.368  0.00  0.00    -0.388 OA
HETATM    8  C   UNK N   1      29.234  13.208   1.602  0.00  0.00     0.198 C 
HETATM    9  C   UNK N   1      29.069  14.628   2.146  0.00  0.00     0.298 C 
ENDBRANCH   3   4
ENDBRANCH   2   3
ENDBRANCH   1   2
BRANCH   1  10
HETATM   10  C   UNK N   1      30.479  17.339   5.219  0.00  0.00    -0.035 A 
HETATM   11  C   UNK N   1      31.444  17.475   4.194  0.00  0.00     0.009 A 
HETATM   12  C   UNK N   1      32.808  17.481   4.474  0.00  0.00     0.001 A 
HETATM   13  C   UNK N   1      33.241  17.331   5.789  0.00  0.00     0.000 A 
HETATM   14  C   UNK N   1      32.307  17.171   6.818  0.00  0.00     0.001 A 
HETATM   15  C   UNK N   1      30.933  17.161   6.536  0.00  0.00     0.009 A 
ENDBRANCH   1  10
BRANCH   1  16
HETATM   16  C   UNK N   1      28.102  18.471   5.153  0.00  0.00    -0.035 A 
HETATM   17  C   UNK N   1      27.473  19.183   4.110  0.00  0.00     0.009 A 
HETATM   18  C   UNK N   1      26.848  20.413   4.345  0.00  0.00     0.001 A 
HETATM   19  C   UNK N   1      26.830  20.956   5.630  0.00  0.00     0.000 A 
HETATM   20  C   UNK N   1      27.433  20.269   6.681  0.00  0.00     0.001 A 
HETATM   21  C   UNK N   1      28.080  19.057   6.439  0.00  0.00     0.009 A 
ENDBRANCH   1  16
BRANCH   1  22
HETATM   22  C   UNK N   1      28.465  16.077   5.717  0.00  0.00     0.277 C 
HETATM   23  O   UNK N   1      28.942  14.960   5.643  0.00  0.00    -0.264 OA
BRANCH  22  24
HETATM   24  O   UNK N   1      27.457  16.347   6.595  0.00  0.00    -0.321 OA
BRANCH  24  25
HETATM   25  C   UNK N   1      26.362  15.543   6.782  0.00  0.00     0.174 C 
HETATM   26  C   UNK N   1      25.265  15.991   5.833  0.00  0.00     0.034 C 
ENDBRANCH  24  25
ENDBRANCH  22  24
ENDBRANCH   1  22
TORSDOF 8
ENDMDL
MODEL 8
REMARK VINA RESULT:      -6.1     21.189     24.808
REMARK  8 active torsions:
REMARK  status: ('A' for Active; 'I' for Inactive)
REMARK    1  A    between atoms: O_2  and  C_12 
REMARK    2  A    between atoms: O_2  and  C_25 
REMARK    3  A    between atoms: N_4  and  C_7 
REMARK    4  A    between atoms: C_5  and  C_6 
REMARK    5  A    between atoms: C_5  and  C_10 
REMARK    6  A    between atoms: C_5  and  C_11 
REMARK    7  A    between atoms: C_5  and  C_12 
REMARK    8  A    between atoms: C_6  and  C_7 
ROOT
HETATM    1  C   UNK N   1      27.510  23.901  -5.631  0.00  0.00     0.103 C 
ENDROOT
BRANCH   1   2
HETATM    2  C   UNK N   1      26.371  24.532  -4.761  0.00  0.00     0.060 C 
BRANCH   2   3
HETATM    3  C   UNK N   1      25.758  25.703  -5.546  0.00  0.00     0.274 C 
BRANCH   3   4
HETATM    4  N   UNK N   1      25.628  26.935  -4.801  0.00  0.00     0.092 N 
HETATM    5  C   UNK N   1      26.304  27.918  -5.658  0.00  0.00     0.298 C 
HETATM    6  C   UNK N   1      26.767  29.134  -4.857  0.00  0.00     0.198 C 
HETATM    7  O   UNK N   1      27.646  28.707  -3.851  0.00  0.00    -0.388 OA
HETATM    8  C   UNK N   1      26.850  28.007  -2.933  0.00  0.00     0.198 C 
HETATM    9  C   UNK N   1      26.395  26.693  -3.570  0.00  0.00     0.298 C 
ENDBRANCH   3   4
ENDBRANCH   2   3
ENDBRANCH   1   2
BRANCH   1  10
HETATM   10  C   UNK N   1      28.584  23.323  -4.689  0.00  0.00    -0.035 A 
HETATM   11  C   UNK N   1      28.524  23.604  -3.304  0.00  0.00     0.009 A 
HETATM   12  C   UNK N   1      29.528  23.187  -2.433  0.00  0.00     0.001 A 
HETATM   13  C   UNK N   1      30.628  22.494  -2.932  0.00  0.00     0.000 A 
HETATM   14  C   UNK N   1      30.721  22.225  -4.302  0.00  0.00     0.001 A 
HETATM   15  C   UNK N   1      29.713  22.648  -5.180  0.00  0.00     0.009 A 
ENDBRANCH   1  10
BRANCH   1  16
HETATM   16  C   UNK N   1      26.867  22.902  -6.641  0.00  0.00    -0.035 A 
HETATM   17  C   UNK N   1      25.480  22.639  -6.618  0.00  0.00     0.009 A 
HETATM   18  C   UNK N   1      24.927  21.602  -7.377  0.00  0.00     0.001 A 
HETATM   19  C   UNK N   1      25.744  20.809  -8.185  0.00  0.00     0.000 A 
HETATM   20  C   UNK N   1      27.113  21.055  -8.236  0.00  0.00     0.001 A 
HETATM   21  C   UNK N   1      27.668  22.071  -7.456  0.00  0.00     0.009 A 
ENDBRANCH   1  16
BRANCH   1  22
HETATM   22  C   UNK N   1      28.244  24.963  -6.447  0.00  0.00     0.277 C 
HETATM   23  O   UNK N   1      28.957  25.792  -5.912  0.00  0.00    -0.264 OA
BRANCH  22  24
HETATM   24  O   UNK N   1      28.095  24.943  -7.803  0.00  0.00    -0.321 OA
BRANCH  24  25
HETATM   25  C   UNK N   1      27.718  26.028  -8.553  0.00  0.00     0.174 C 
HETATM   26  C   UNK N   1      26.352  25.748  -9.155  0.00  0.00     0.034 C 
ENDBRANCH  24  25
ENDBRANCH  22  24
ENDBRANCH   1  22
TORSDOF 8
ENDMDL
MODEL 9
REMARK VINA RESULT:      -6.0     12.845     15.604
REMARK  8 active torsions:
REMARK  status: ('A' for Active; 'I' for Inactive)
REMARK    1  A    between atoms: O_2  and  C_12 
REMARK    2  A    between atoms: O_2  and  C_25 
REMARK    3  A    between atoms: N_4  and  C_7 
REMARK    4  A    between atoms: C_5  and  C_6 
REMARK    5  A    between atoms: C_5  and  C_10 
REMARK    6  A    between atoms: C_5  and  C_11 
REMARK    7  A    between atoms: C_5  and  C_12 
REMARK    8  A    between atoms: C_6  and  C_7 
ROOT
HETATM    1  C   UNK N   1      22.313  13.757   7.923  0.00  0.00     0.103 C 
ENDROOT
BRANCH   1   2
HETATM    2  C   UNK N   1      23.570  14.252   7.131  0.00  0.00     0.060 C 
BRANCH   2   3
HETATM    3  C   UNK N   1      23.624  13.499   5.792  0.00  0.00     0.274 C 
BRANCH   3   4
HETATM    4  N   UNK N   1      23.909  14.323   4.640  0.00  0.00     0.092 N 
HETATM    5  C   UNK N   1      24.487  15.538   5.232  0.00  0.00     0.298 C 
HETATM    6  C   UNK N   1      24.358  16.734   4.290  0.00  0.00     0.198 C 
HETATM    7  O   UNK N   1      23.000  16.949   4.012  0.00  0.00    -0.388 OA
HETATM    8  C   UNK N   1      22.609  15.869   3.208  0.00  0.00     0.198 C 
HETATM    9  C   UNK N   1      22.587  14.598   4.057  0.00  0.00     0.298 C 
ENDBRANCH   3   4
ENDBRANCH   2   3
ENDBRANCH   1   2
BRANCH   1  10
HETATM   10  C   UNK N   1      22.780  13.185   9.276  0.00  0.00    -0.035 A 
HETATM   11  C   UNK N   1      24.162  13.010   9.522  0.00  0.00     0.009 A 
HETATM   12  C   UNK N   1      24.622  12.403  10.689  0.00  0.00     0.001 A 
HETATM   13  C   UNK N   1      23.707  11.938  11.629  0.00  0.00     0.000 A 
HETATM   14  C   UNK N   1      22.335  12.079  11.398  0.00  0.00     0.001 A 
HETATM   15  C   UNK N   1      21.871  12.686  10.221  0.00  0.00     0.009 A 
ENDBRANCH   1  10
BRANCH   1  16
HETATM   16  C   UNK N   1      21.276  14.919   7.985  0.00  0.00    -0.035 A 
HETATM   17  C   UNK N   1      21.442  16.083   7.203  0.00  0.00     0.009 A 
HETATM   18  C   UNK N   1      20.636  17.209   7.400  0.00  0.00     0.001 A 
HETATM   19  C   UNK N   1      19.638  17.197   8.375  0.00  0.00     0.000 A 
HETATM   20  C   UNK N   1      19.445  16.058   9.153  0.00  0.00     0.001 A 
HETATM   21  C   UNK N   1      20.269  14.947   8.976  0.00  0.00     0.009 A 
ENDBRANCH   1  16
BRANCH   1  22
HETATM   22  C   UNK N   1      21.637  12.582   7.220  0.00  0.00     0.277 C 
HETATM   23  O   UNK N   1      22.117  11.464   7.251  0.00  0.00    -0.264 OA
BRANCH  22  24
HETATM   24  O   UNK N   1      20.460  12.817   6.571  0.00  0.00    -0.321 OA
BRANCH  24  25
HETATM   25  C   UNK N   1      20.087  12.198   5.405  0.00  0.00     0.174 C 
HETATM   26  C   UNK N   1      19.156  13.124   4.643  0.00  0.00     0.034 C 
ENDBRANCH  24  25
ENDBRANCH  22  24
ENDBRANCH   1  22
TORSDOF 8
ENDMDL
