MODEL 1
REMARK VINA RESULT:      -7.2      0.000      0.000
REMARK  1 active torsions:
REMARK  status: ('A' for Active; 'I' for Inactive)
REMARK    1  A    between atoms: C_7  and  C_12 
ROOT
HETATM    1 Br   UNK N   1      27.773  16.973   6.624  0.00  0.00    -0.051 Br
HETATM    2  O   UNK N   1      32.422  14.027   7.506  0.00  0.00    -0.343 OA
HETATM    3  O   UNK N   1      35.325  17.398   9.979  0.00  0.00    -0.271 OA
HETATM    4  N   UNK N   1      34.206  15.505   7.534  0.00  0.00     0.144 N 
HETATM    5  N   UNK N   1      33.292  17.791   9.183  0.00  0.00    -0.325 N 
HETATM    6  C   UNK N   1      32.809  15.330   7.112  0.00  0.00     0.323 C 
HETATM    7  C   UNK N   1      34.755  14.201   7.227  0.00  0.00     0.304 C 
HETATM    8  C   UNK N   1      31.798  16.366   7.669  0.00  0.00     0.040 A 
HETATM    9  C   UNK N   1      33.599  13.247   7.439  0.00  0.00     0.202 C 
HETATM   10  C   UNK N   1      34.305  15.570   8.983  0.00  0.00     0.380 C 
HETATM   11  C   UNK N   1      32.054  17.479   8.556  0.00  0.00     0.046 A 
HETATM   12  C   UNK N   1      34.344  16.975   9.398  0.00  0.00     0.250 C 
HETATM   13  C   UNK N   1      30.491  16.239   7.149  0.00  0.00     0.034 A 
HETATM   14  C   UNK N   1      31.011  18.375   8.830  0.00  0.00     0.031 A 
HETATM   15  C   UNK N   1      29.484  17.152   7.440  0.00  0.00     0.011 A 
HETATM   16  C   UNK N   1      29.746  18.224   8.277  0.00  0.00     0.021 A 
HETATM   17  H   UNK N   1      33.394  18.717   9.502  0.00  0.00     0.169 HD
ENDROOT
BRANCH   6  18
HETATM   18  C   UNK N   1      32.720  15.479   5.571  0.00  0.00     0.051 A 
HETATM   19  C   UNK N   1      33.210  16.615   4.867  0.00  0.00     0.128 A 
HETATM   20  F   UNK N   1      33.748  17.681   5.507  0.00  0.00    -0.205 F 
HETATM   21  C   UNK N   1      33.166  16.648   3.471  0.00  0.00     0.043 A 
HETATM   22  C   UNK N   1      32.649  15.571   2.753  0.00  0.00     0.003 A 
HETATM   23  C   UNK N   1      32.159  14.454   3.429  0.00  0.00     0.001 A 
HETATM   24  C   UNK N   1      32.190  14.409   4.825  0.00  0.00     0.015 A 
ENDBRANCH   6  18
TORSDOF 1
ENDMDL
MODEL 2
REMARK VINA RESULT:      -6.9     14.371     16.326
REMARK  1 active torsions:
REMARK  status: ('A' for Active; 'I' for Inactive)
REMARK    1  A    between atoms: C_7  and  C_12 
ROOT
HETATM    1 Br   UNK N   1      27.911  29.206  -2.612  0.00  0.00    -0.051 Br
HETATM    2  O   UNK N   1      29.488  25.386  -6.355  0.00  0.00    -0.343 OA
HETATM    3  O   UNK N   1      25.001  23.782  -8.143  0.00  0.00    -0.271 OA
HETATM    4  N   UNK N   1      27.830  23.772  -6.466  0.00  0.00     0.144 N 
HETATM    5  N   UNK N   1      25.282  25.284  -6.535  0.00  0.00    -0.325 N 
HETATM    6  C   UNK N   1      28.382  24.860  -5.646  0.00  0.00     0.323 C 
HETATM    7  C   UNK N   1      29.042  23.154  -6.959  0.00  0.00     0.304 C 
HETATM    8  C   UNK N   1      27.399  26.005  -5.288  0.00  0.00     0.040 A 
HETATM    9  C   UNK N   1      30.027  24.297  -7.076  0.00  0.00     0.202 C 
HETATM   10  C   UNK N   1      27.212  24.296  -7.672  0.00  0.00     0.380 C 
HETATM   11  C   UNK N   1      26.008  26.141  -5.664  0.00  0.00     0.046 A 
HETATM   12  C   UNK N   1      25.769  24.427  -7.455  0.00  0.00     0.250 C 
HETATM   13  C   UNK N   1      27.929  26.970  -4.403  0.00  0.00     0.034 A 
HETATM   14  C   UNK N   1      25.264  27.197  -5.117  0.00  0.00     0.031 A 
HETATM   15  C   UNK N   1      27.155  27.999  -3.878  0.00  0.00     0.011 A 
HETATM   16  C   UNK N   1      25.821  28.110  -4.231  0.00  0.00     0.021 A 
HETATM   17  H   UNK N   1      24.301  25.320  -6.458  0.00  0.00     0.169 HD
ENDROOT
BRANCH   6  18
HETATM   18  C   UNK N   1      28.836  24.288  -4.278  0.00  0.00     0.051 A 
HETATM   19  C   UNK N   1      27.934  23.751  -3.318  0.00  0.00     0.128 A 
HETATM   20  F   UNK N   1      26.593  23.751  -3.512  0.00  0.00    -0.205 F 
HETATM   21  C   UNK N   1      28.421  23.181  -2.139  0.00  0.00     0.043 A 
HETATM   22  C   UNK N   1      29.791  23.126  -1.892  0.00  0.00     0.003 A 
HETATM   23  C   UNK N   1      30.688  23.655  -2.820  0.00  0.00     0.001 A 
HETATM   24  C   UNK N   1      30.216  24.233  -4.000  0.00  0.00     0.015 A 
ENDBRANCH   6  18
TORSDOF 1
ENDMDL
MODEL 3
REMARK VINA RESULT:      -6.6     14.504     16.326
REMARK  1 active torsions:
REMARK  status: ('A' for Active; 'I' for Inactive)
REMARK    1  A    between atoms: C_7  and  C_12 
ROOT
HETATM    1 Br   UNK N   1      31.250  29.206  -1.868  0.00  0.00    -0.051 Br
HETATM    2  O   UNK N   1      29.211  26.238  -6.125  0.00  0.00    -0.343 OA
HETATM    3  O   UNK N   1      24.222  27.164  -5.730  0.00  0.00    -0.271 OA
HETATM    4  N   UNK N   1      27.078  25.543  -5.549  0.00  0.00     0.144 N 
HETATM    5  N   UNK N   1      25.784  27.925  -4.351  0.00  0.00    -0.325 N 
HETATM    6  C   UNK N   1      28.353  26.043  -5.016  0.00  0.00     0.323 C 
HETATM    7  C   UNK N   1      27.542  24.639  -6.579  0.00  0.00     0.304 C 
HETATM    8  C   UNK N   1      28.273  27.348  -4.182  0.00  0.00     0.040 A 
HETATM    9  C   UNK N   1      28.831  25.262  -7.073  0.00  0.00     0.202 C 
HETATM   10  C   UNK N   1      26.391  26.578  -6.304  0.00  0.00     0.380 C 
HETATM   11  C   UNK N   1      27.103  28.139  -3.866  0.00  0.00     0.046 A 
HETATM   12  C   UNK N   1      25.401  27.226  -5.439  0.00  0.00     0.250 C 
HETATM   13  C   UNK N   1      29.496  27.733  -3.588  0.00  0.00     0.034 A 
HETATM   14  C   UNK N   1      27.240  29.218  -2.980  0.00  0.00     0.031 A 
HETATM   15  C   UNK N   1      29.588  28.806  -2.709  0.00  0.00     0.011 A 
HETATM   16  C   UNK N   1      28.458  29.546  -2.401  0.00  0.00     0.021 A 
HETATM   17  H   UNK N   1      25.060  28.339  -3.829  0.00  0.00     0.169 HD
ENDROOT
BRANCH   6  18
HETATM   18  C   UNK N   1      28.949  24.990  -4.047  0.00  0.00     0.051 A 
HETATM   19  C   UNK N   1      28.161  24.243  -3.127  0.00  0.00     0.128 A 
HETATM   20  F   UNK N   1      26.827  24.440  -2.995  0.00  0.00    -0.205 F 
HETATM   21  C   UNK N   1      28.754  23.254  -2.336  0.00  0.00     0.043 A 
HETATM   22  C   UNK N   1      30.117  22.985  -2.444  0.00  0.00     0.003 A 
HETATM   23  C   UNK N   1      30.903  23.714  -3.336  0.00  0.00     0.001 A 
HETATM   24  C   UNK N   1      30.326  24.709  -4.128  0.00  0.00     0.015 A 
ENDBRANCH   6  18
TORSDOF 1
ENDMDL
MODEL 4
REMARK VINA RESULT:      -6.6     14.383     16.397
REMARK  1 active torsions:
REMARK  status: ('A' for Active; 'I' for Inactive)
REMARK    1  A    between atoms: C_7  and  C_12 
ROOT
HETATM    1 Br   UNK N   1      31.013  20.903  -5.282  0.00  0.00    -0.051 Br
HETATM    2  O   UNK N   1      28.187  25.221  -7.392  0.00  0.00    -0.343 OA
HETATM    3  O   UNK N   1      25.841  27.036  -3.256  0.00  0.00    -0.271 OA
HETATM    4  N   UNK N   1      26.264  25.496  -6.131  0.00  0.00     0.144 N 
HETATM    5  N   UNK N   1      27.142  25.241  -3.312  0.00  0.00    -0.325 N 
HETATM    6  C   UNK N   1      27.332  24.550  -6.485  0.00  0.00     0.323 C 
HETATM    7  C   UNK N   1      26.011  26.123  -7.410  0.00  0.00     0.304 C 
HETATM    8  C   UNK N   1      28.162  23.991  -5.301  0.00  0.00     0.040 A 
HETATM    9  C   UNK N   1      27.357  26.114  -8.106  0.00  0.00     0.202 C 
HETATM   10  C   UNK N   1      26.785  26.588  -5.326  0.00  0.00     0.380 C 
HETATM   11  C   UNK N   1      28.022  24.285  -3.891  0.00  0.00     0.046 A 
HETATM   12  C   UNK N   1      26.550  26.294  -3.909  0.00  0.00     0.250 C 
HETATM   13  C   UNK N   1      29.098  22.998  -5.666  0.00  0.00     0.034 A 
HETATM   14  C   UNK N   1      28.796  23.562  -2.973  0.00  0.00     0.031 A 
HETATM   15  C   UNK N   1      29.843  22.298  -4.723  0.00  0.00     0.011 A 
HETATM   16  C   UNK N   1      29.688  22.576  -3.375  0.00  0.00     0.021 A 
HETATM   17  H   UNK N   1      26.941  25.119  -2.356  0.00  0.00     0.169 HD
ENDROOT
BRANCH   6  18
HETATM   18  C   UNK N   1      26.705  23.300  -7.154  0.00  0.00     0.051 A 
HETATM   19  C   UNK N   1      27.288  22.637  -8.270  0.00  0.00     0.128 A 
HETATM   20  F   UNK N   1      28.417  23.090  -8.867  0.00  0.00    -0.205 F 
HETATM   21  C   UNK N   1      26.709  21.469  -8.773  0.00  0.00     0.043 A 
HETATM   22  C   UNK N   1      25.562  20.938  -8.187  0.00  0.00     0.003 A 
HETATM   23  C   UNK N   1      24.975  21.579  -7.097  0.00  0.00     0.001 A 
HETATM   24  C   UNK N   1      25.539  22.752  -6.587  0.00  0.00     0.015 A 
ENDBRANCH   6  18
TORSDOF 1
ENDMDL
MODEL 5
REMARK VINA RESULT:      -6.5     13.690     15.842
REMARK  1 active torsions:
REMARK  status: ('A' for Active; 'I' for Inactive)
REMARK    1  A    between atoms: C_7  and  C_12 
ROOT
HETATM    1 Br   UNK N   1      28.493  22.221  -9.722  0.00  0.00    -0.051 Br
HETATM    2  O   UNK N   1      30.161  25.912  -5.890  0.00  0.00    -0.343 OA
HETATM    3  O   UNK N   1      30.813  22.939  -1.811  0.00  0.00    -0.271 OA
HETATM    4  N   UNK N   1      29.449  25.158  -3.819  0.00  0.00     0.144 N 
HETATM    5  N   UNK N   1      30.078  22.262  -3.791  0.00  0.00    -0.325 N 
HETATM    6  C   UNK N   1      29.239  25.036  -5.269  0.00  0.00     0.323 C 
HETATM    7  C   UNK N   1      29.663  26.583  -3.687  0.00  0.00     0.304 C 
HETATM    8  C   UNK N   1      29.395  23.610  -5.858  0.00  0.00     0.040 A 
HETATM    9  C   UNK N   1      30.332  26.984  -4.985  0.00  0.00     0.202 C 
HETATM   10  C   UNK N   1      30.731  24.594  -3.432  0.00  0.00     0.380 C 
HETATM   11  C   UNK N   1      29.726  22.385  -5.164  0.00  0.00     0.046 A 
HETATM   12  C   UNK N   1      30.530  23.222  -2.960  0.00  0.00     0.250 C 
HETATM   13  C   UNK N   1      29.071  23.510  -7.230  0.00  0.00     0.034 A 
HETATM   14  C   UNK N   1      29.686  21.177  -5.874  0.00  0.00     0.031 A 
HETATM   15  C   UNK N   1      29.036  22.291  -7.897  0.00  0.00     0.011 A 
HETATM   16  C   UNK N   1      29.338  21.123  -7.218  0.00  0.00     0.021 A 
HETATM   17  H   UNK N   1      29.980  21.364  -3.399  0.00  0.00     0.169 HD
ENDROOT
BRANCH   6  18
HETATM   18  C   UNK N   1      27.784  25.447  -5.610  0.00  0.00     0.051 A 
HETATM   19  C   UNK N   1      26.644  24.904  -4.953  0.00  0.00     0.128 A 
HETATM   20  F   UNK N   1      26.751  23.938  -4.009  0.00  0.00    -0.205 F 
HETATM   21  C   UNK N   1      25.366  25.378  -5.259  0.00  0.00     0.043 A 
HETATM   22  C   UNK N   1      25.192  26.389  -6.201  0.00  0.00     0.003 A 
HETATM   23  C   UNK N   1      26.298  26.927  -6.858  0.00  0.00     0.001 A 
HETATM   24  C   UNK N   1      27.582  26.459  -6.569  0.00  0.00     0.015 A 
ENDBRANCH   6  18
TORSDOF 1
ENDMDL
MODEL 6
REMARK VINA RESULT:      -6.4     16.415     18.532
REMARK  1 active torsions:
REMARK  status: ('A' for Active; 'I' for Inactive)
REMARK    1  A    between atoms: C_7  and  C_12 
ROOT
HETATM    1 Br   UNK N   1      29.855  29.044  -9.011  0.00  0.00    -0.051 Br
HETATM    2  O   UNK N   1      28.356  24.764  -5.767  0.00  0.00    -0.343 OA
HETATM    3  O   UNK N   1      24.425  22.833  -8.360  0.00  0.00    -0.271 OA
HETATM    4  N   UNK N   1      26.075  24.447  -6.017  0.00  0.00     0.144 N 
HETATM    5  N   UNK N   1      25.582  24.637  -8.933  0.00  0.00    -0.325 N 
HETATM    6  C   UNK N   1      27.173  25.407  -6.202  0.00  0.00     0.323 C 
HETATM    7  C   UNK N   1      26.438  23.851  -4.749  0.00  0.00     0.304 C 
HETATM    8  C   UNK N   1      27.369  25.942  -7.645  0.00  0.00     0.040 A 
HETATM    9  C   UNK N   1      27.952  23.885  -4.737  0.00  0.00     0.202 C 
HETATM   10  C   UNK N   1      26.194  23.339  -6.949  0.00  0.00     0.380 C 
HETATM   11  C   UNK N   1      26.613  25.611  -8.833  0.00  0.00     0.046 A 
HETATM   12  C   UNK N   1      25.340  23.595  -8.112  0.00  0.00     0.250 C 
HETATM   13  C   UNK N   1      28.353  26.949  -7.762  0.00  0.00     0.034 A 
HETATM   14  C   UNK N   1      26.877  26.316 -10.016  0.00  0.00     0.031 A 
HETATM   15  C   UNK N   1      28.581  27.629  -8.952  0.00  0.00     0.011 A 
HETATM   16  C   UNK N   1      27.839  27.316 -10.079  0.00  0.00     0.021 A 
HETATM   17  H   UNK N   1      24.970  24.733  -9.697  0.00  0.00     0.169 HD
ENDROOT
BRANCH   6  18
HETATM   18  C   UNK N   1      26.895  26.670  -5.347  0.00  0.00     0.051 A 
HETATM   19  C   UNK N   1      25.642  27.344  -5.334  0.00  0.00     0.128 A 
HETATM   20  F   UNK N   1      24.608  26.956  -6.119  0.00  0.00    -0.205 F 
HETATM   21  C   UNK N   1      25.438  28.432  -4.480  0.00  0.00     0.043 A 
HETATM   22  C   UNK N   1      26.454  28.864  -3.630  0.00  0.00     0.003 A 
HETATM   23  C   UNK N   1      27.690  28.218  -3.635  0.00  0.00     0.001 A 
HETATM   24  C   UNK N   1      27.911  27.134  -4.488  0.00  0.00     0.015 A 
ENDBRANCH   6  18
TORSDOF 1
ENDMDL
MODEL 7
REMARK VINA RESULT:      -6.3      9.247     11.689
REMARK  1 active torsions:
REMARK  status: ('A' for Active; 'I' for Inactive)
REMARK    1  A    between atoms: C_7  and  C_12 
ROOT
HETATM    1 Br   UNK N   1      26.518  15.171   5.342  0.00  0.00    -0.051 Br
HETATM    2  O   UNK N   1      21.566  16.154   2.977  0.00  0.00    -0.343 OA
HETATM    3  O   UNK N   1      21.592  21.230   2.604  0.00  0.00    -0.271 OA
HETATM    4  N   UNK N   1      20.829  18.226   3.705  0.00  0.00     0.144 N 
HETATM    5  N   UNK N   1      23.196  19.999   3.516  0.00  0.00    -0.325 N 
HETATM    6  C   UNK N   1      21.756  17.122   3.992  0.00  0.00     0.323 C 
HETATM    7  C   UNK N   1      19.655  17.499   3.274  0.00  0.00     0.304 C 
HETATM    8  C   UNK N   1      23.257  17.502   4.077  0.00  0.00     0.040 A 
HETATM    9  C   UNK N   1      20.206  16.255   2.608  0.00  0.00     0.202 C 
HETATM   10  C   UNK N   1      21.232  18.942   2.506  0.00  0.00     0.380 C 
HETATM   11  C   UNK N   1      23.862  18.804   3.904  0.00  0.00     0.046 A 
HETATM   12  C   UNK N   1      22.009  20.124   2.891  0.00  0.00     0.250 C 
HETATM   13  C   UNK N   1      24.103  16.441   4.471  0.00  0.00     0.034 A 
HETATM   14  C   UNK N   1      25.234  18.948   4.156  0.00  0.00     0.031 A 
HETATM   15  C   UNK N   1      25.459  16.626   4.718  0.00  0.00     0.011 A 
HETATM   16  C   UNK N   1      26.024  17.881   4.565  0.00  0.00     0.021 A 
HETATM   17  H   UNK N   1      23.660  20.841   3.731  0.00  0.00     0.169 HD
ENDROOT
BRANCH   6  18
HETATM   18  C   UNK N   1      21.421  16.523   5.383  0.00  0.00     0.051 A 
HETATM   19  C   UNK N   1      21.166  17.319   6.535  0.00  0.00     0.128 A 
HETATM   20  F   UNK N   1      21.254  18.671   6.509  0.00  0.00    -0.205 F 
HETATM   21  C   UNK N   1      20.794  16.714   7.738  0.00  0.00     0.043 A 
HETATM   22  C   UNK N   1      20.661  15.330   7.822  0.00  0.00     0.003 A 
HETATM   23  C   UNK N   1      20.913  14.536   6.704  0.00  0.00     0.001 A 
HETATM   24  C   UNK N   1      21.293  15.125   5.496  0.00  0.00     0.015 A 
ENDBRANCH   6  18
TORSDOF 1
ENDMDL
MODEL 8
REMARK VINA RESULT:      -6.3     11.010     13.120
REMARK  1 active torsions:
REMARK  status: ('A' for Active; 'I' for Inactive)
REMARK    1  A    between atoms: C_7  and  C_12 
ROOT
HETATM    1 Br   UNK N   1      25.942  15.310   1.562  0.00  0.00    -0.051 Br
HETATM    2  O   UNK N   1      21.435  15.124   4.838  0.00  0.00    -0.343 OA
HETATM    3  O   UNK N   1      18.043  12.854   1.797  0.00  0.00    -0.271 OA
HETATM    4  N   UNK N   1      19.562  15.237   3.478  0.00  0.00     0.144 N 
HETATM    5  N   UNK N   1      20.122  13.385   1.234  0.00  0.00    -0.325 N 
HETATM    6  C   UNK N   1      21.007  15.500   3.542  0.00  0.00     0.323 C 
HETATM    7  C   UNK N   1      19.143  15.669   4.794  0.00  0.00     0.304 C 
HETATM    8  C   UNK N   1      21.874  14.778   2.477  0.00  0.00     0.040 A 
HETATM    9  C   UNK N   1      20.330  15.367   5.685  0.00  0.00     0.202 C 
HETATM   10  C   UNK N   1      19.294  13.809   3.499  0.00  0.00     0.380 C 
HETATM   11  C   UNK N   1      21.442  13.875   1.433  0.00  0.00     0.046 A 
HETATM   12  C   UNK N   1      19.112  13.335   2.125  0.00  0.00     0.250 C 
HETATM   13  C   UNK N   1      23.238  15.145   2.493  0.00  0.00     0.034 A 
HETATM   14  C   UNK N   1      22.384  13.437   0.490  0.00  0.00     0.031 A 
HETATM   15  C   UNK N   1      24.140  14.694   1.536  0.00  0.00     0.011 A 
HETATM   16  C   UNK N   1      23.711  13.844   0.531  0.00  0.00     0.021 A 
HETATM   17  H   UNK N   1      19.922  13.036   0.336  0.00  0.00     0.169 HD
ENDROOT
BRANCH   6  18
HETATM   18  C   UNK N   1      21.263  17.010   3.302  0.00  0.00     0.051 A 
HETATM   19  C   UNK N   1      20.599  17.763   2.294  0.00  0.00     0.128 A 
HETATM   20  F   UNK N   1      19.726  17.194   1.427  0.00  0.00    -0.205 F 
HETATM   21  C   UNK N   1      20.820  19.139   2.185  0.00  0.00     0.043 A 
HETATM   22  C   UNK N   1      21.686  19.788   3.063  0.00  0.00     0.003 A 
HETATM   23  C   UNK N   1      22.349  19.062   4.052  0.00  0.00     0.001 A 
HETATM   24  C   UNK N   1      22.143  17.686   4.169  0.00  0.00     0.015 A 
ENDBRANCH   6  18
TORSDOF 1
ENDMDL
MODEL 9
REMARK VINA RESULT:      -6.2      8.690     10.850
REMARK  1 active torsions:
REMARK  status: ('A' for Active; 'I' for Inactive)
REMARK    1  A    between atoms: C_7  and  C_12 
ROOT
HETATM    1 Br   UNK N   1      25.380  20.553   2.815  0.00  0.00    -0.051 Br
HETATM    2  O   UNK N   1      21.899  17.995   6.339  0.00  0.00    -0.343 OA
HETATM    3  O   UNK N   1      24.056  13.405   6.768  0.00  0.00    -0.271 OA
HETATM    4  N   UNK N   1      21.923  15.732   5.845  0.00  0.00     0.144 N 
HETATM    5  N   UNK N   1      24.783  15.052   5.472  0.00  0.00    -0.325 N 
HETATM    6  C   UNK N   1      22.236  17.070   5.323  0.00  0.00     0.323 C 
HETATM    7  C   UNK N   1      20.681  15.989   6.541  0.00  0.00     0.304 C 
HETATM    8  C   UNK N   1      23.705  17.296   4.877  0.00  0.00     0.040 A 
HETATM    9  C   UNK N   1      20.813  17.416   7.033  0.00  0.00     0.202 C 
HETATM   10  C   UNK N   1      22.833  15.369   6.919  0.00  0.00     0.380 C 
HETATM   11  C   UNK N   1      24.807  16.360   4.915  0.00  0.00     0.046 A 
HETATM   12  C   UNK N   1      23.916  14.547   6.372  0.00  0.00     0.250 C 
HETATM   13  C   UNK N   1      23.941  18.551   4.272  0.00  0.00     0.034 A 
HETATM   14  C   UNK N   1      26.027  16.734   4.335  0.00  0.00     0.031 A 
HETATM   15  C   UNK N   1      25.165  18.881   3.702  0.00  0.00     0.011 A 
HETATM   16  C   UNK N   1      26.208  17.970   3.729  0.00  0.00     0.021 A 
HETATM   17  H   UNK N   1      25.488  14.438   5.162  0.00  0.00     0.169 HD
ENDROOT
BRANCH   6  18
HETATM   18  C   UNK N   1      21.392  17.331   4.049  0.00  0.00     0.051 A 
HETATM   19  C   UNK N   1      20.794  18.588   3.753  0.00  0.00     0.128 A 
HETATM   20  F   UNK N   1      20.877  19.642   4.600  0.00  0.00    -0.205 F 
HETATM   21  C   UNK N   1      20.111  18.774   2.548  0.00  0.00     0.043 A 
HETATM   22  C   UNK N   1      20.013  17.737   1.623  0.00  0.00     0.003 A 
HETATM   23  C   UNK N   1      20.588  16.497   1.901  0.00  0.00     0.001 A 
HETATM   24  C   UNK N   1      21.268  16.294   3.104  0.00  0.00     0.015 A 
ENDBRANCH   6  18
TORSDOF 1
ENDMDL
