MODEL 1
REMARK VINA RESULT:      -0.8      0.000      0.000
REMARK  3 active torsions:
REMARK  status: ('A' for Active; 'I' for Inactive)
REMARK    1  A    between atoms: Br_1  and  Br_1 
REMARK    2  A    between atoms: C_16  and  O_3 
REMARK    3  A    between atoms: O_4  and  C_22 
ROOT
HETATM    1 Br   UNK N   1      18.864  27.442 -11.952  0.00  0.00     0.000 Br
ENDROOT
TORSDOF 3
ENDMDL
MODEL 2
REMARK VINA RESULT:      -0.8      8.761      8.761
REMARK  3 active torsions:
REMARK  status: ('A' for Active; 'I' for Inactive)
REMARK    1  A    between atoms: Br_1  and  Br_1 
REMARK    2  A    between atoms: C_16  and  O_3 
REMARK    3  A    between atoms: O_4  and  C_22 
ROOT
HETATM    1 Br   UNK N   1      24.939  27.052  -5.651  0.00  0.00     0.000 Br
ENDROOT
TORSDOF 3
ENDMDL
MODEL 3
REMARK VINA RESULT:      -0.8     39.469     39.469
REMARK  3 active torsions:
REMARK  status: ('A' for Active; 'I' for Inactive)
REMARK    1  A    between atoms: Br_1  and  Br_1 
REMARK    2  A    between atoms: C_16  and  O_3 
REMARK    3  A    between atoms: O_4  and  C_22 
ROOT
HETATM    1 Br   UNK N   1      30.715   7.763  20.144  0.00  0.00     0.000 Br
ENDROOT
TORSDOF 3
ENDMDL
MODEL 4
REMARK VINA RESULT:      -0.8     34.722     34.722
REMARK  3 active torsions:
REMARK  status: ('A' for Active; 'I' for Inactive)
REMARK    1  A    between atoms: Br_1  and  Br_1 
REMARK    2  A    between atoms: C_16  and  O_3 
REMARK    3  A    between atoms: O_4  and  C_22 
ROOT
HETATM    1 Br   UNK N   1      33.792  10.781  14.603  0.00  0.00     0.000 Br
ENDROOT
TORSDOF 3
ENDMDL
MODEL 5
REMARK VINA RESULT:      -0.8     20.839     20.839
REMARK  3 active torsions:
REMARK  status: ('A' for Active; 'I' for Inactive)
REMARK    1  A    between atoms: Br_1  and  Br_1 
REMARK    2  A    between atoms: C_16  and  O_3 
REMARK    3  A    between atoms: O_4  and  C_22 
ROOT
HETATM    1 Br   UNK N   1      27.062  21.453   6.247  0.00  0.00     0.000 Br
ENDROOT
TORSDOF 3
ENDMDL
MODEL 6
REMARK VINA RESULT:      -0.8     28.201     28.201
REMARK  3 active torsions:
REMARK  status: ('A' for Active; 'I' for Inactive)
REMARK    1  A    between atoms: Br_1  and  Br_1 
REMARK    2  A    between atoms: C_16  and  O_3 
REMARK    3  A    between atoms: O_4  and  C_22 
ROOT
HETATM    1 Br   UNK N   1      22.891  12.052  11.333  0.00  0.00     0.000 Br
ENDROOT
TORSDOF 3
ENDMDL
MODEL 7
REMARK VINA RESULT:      -0.7     35.599     35.599
REMARK  3 active torsions:
REMARK  status: ('A' for Active; 'I' for Inactive)
REMARK    1  A    between atoms: Br_1  and  Br_1 
REMARK    2  A    between atoms: C_16  and  O_3 
REMARK    3  A    between atoms: O_4  and  C_22 
ROOT
HETATM    1 Br   UNK N   1      37.390  15.757  16.111  0.00  0.00     0.000 Br
ENDROOT
TORSDOF 3
ENDMDL
MODEL 8
REMARK VINA RESULT:      -0.7     10.615     10.615
REMARK  3 active torsions:
REMARK  status: ('A' for Active; 'I' for Inactive)
REMARK    1  A    between atoms: Br_1  and  Br_1 
REMARK    2  A    between atoms: C_16  and  O_3 
REMARK    3  A    between atoms: O_4  and  C_22 
ROOT
HETATM    1 Br   UNK N   1      25.745  28.057  -3.893  0.00  0.00     0.000 Br
ENDROOT
TORSDOF 3
ENDMDL
MODEL 9
REMARK VINA RESULT:      -0.7     36.725     36.725
REMARK  3 active torsions:
REMARK  status: ('A' for Active; 'I' for Inactive)
REMARK    1  A    between atoms: Br_1  and  Br_1 
REMARK    2  A    between atoms: C_16  and  O_3 
REMARK    3  A    between atoms: O_4  and  C_22 
ROOT
HETATM    1 Br   UNK N   1      35.134  13.391  17.824  0.00  0.00     0.000 Br
ENDROOT
TORSDOF 3
ENDMDL
