MODEL 1
REMARK VINA RESULT:      -5.7      0.000      0.000
REMARK  4 active torsions:
REMARK  status: ('A' for Active; 'I' for Inactive)
REMARK    1  A    between atoms: O_1  and  C_4 
REMARK    2  A    between atoms: O_1  and  C_13 
REMARK    3  A    between atoms: C_4  and  C_9 
REMARK    4  A    between atoms: C_13  and  C_16 
ROOT
HETATM    1  N   UNK N   1      34.801  16.492   9.089  0.00  0.00     0.084 N 
HETATM    2  C   UNK N   1      32.502  17.190   7.338  0.00  0.00     0.101 C 
HETATM    3  C   UNK N   1      32.877  15.749   7.737  0.00  0.00     0.074 C 
HETATM    4  C   UNK N   1      33.139  18.205   8.313  0.00  0.00     0.074 C 
HETATM    5  C   UNK N   1      33.579  15.676   9.094  0.00  0.00     0.275 C 
HETATM    6  C   UNK N   1      34.606  17.859   8.575  0.00  0.00     0.275 C 
HETATM    7  C   UNK N   1      35.253  16.605  10.463  0.00  0.00     0.309 C 
ENDROOT
BRANCH   2   8
HETATM    8  O   UNK N   1      32.974  17.380   6.041  0.00  0.00    -0.305 OA
BRANCH   8   9
HETATM    9  C   UNK N   1      33.697  16.492   5.306  0.00  0.00     0.259 C 
HETATM   10  O   UNK N   1      34.850  16.213   5.619  0.00  0.00    -0.265 OA
BRANCH   9  11
HETATM   11  C   UNK N   1      33.077  15.894   4.079  0.00  0.00     0.106 C 
HETATM   12  C   UNK N   1      32.403  16.929   3.194  0.00  0.00     0.015 C 
ENDBRANCH   9  11
ENDBRANCH   8   9
ENDBRANCH   2   8
BRANCH   2  13
HETATM   13  C   UNK N   1      30.985  17.324   7.394  0.00  0.00    -0.023 A 
HETATM   14  C   UNK N   1      30.348  17.910   8.502  0.00  0.00     0.010 A 
HETATM   15  C   UNK N   1      28.957  18.037   8.541  0.00  0.00     0.001 A 
HETATM   16  C   UNK N   1      28.187  17.590   7.466  0.00  0.00     0.000 A 
HETATM   17  C   UNK N   1      28.805  17.012   6.356  0.00  0.00     0.001 A 
HETATM   18  C   UNK N   1      30.198  16.876   6.320  0.00  0.00     0.010 A 
ENDBRANCH   2  13
TORSDOF 4
ENDMDL
MODEL 2
REMARK VINA RESULT:      -5.5     13.222     15.948
REMARK  4 active torsions:
REMARK  status: ('A' for Active; 'I' for Inactive)
REMARK    1  A    between atoms: O_1  and  C_4 
REMARK    2  A    between atoms: O_1  and  C_13 
REMARK    3  A    between atoms: C_4  and  C_9 
REMARK    4  A    between atoms: C_13  and  C_16 
ROOT
HETATM    1  N   UNK N   1      25.798  24.240  -7.257  0.00  0.00     0.084 N 
HETATM    2  C   UNK N   1      27.580  24.925  -4.978  0.00  0.00     0.101 C 
HETATM    3  C   UNK N   1      26.201  24.251  -4.825  0.00  0.00     0.074 C 
HETATM    4  C   UNK N   1      28.107  24.757  -6.421  0.00  0.00     0.074 C 
HETATM    5  C   UNK N   1      25.816  23.412  -6.045  0.00  0.00     0.275 C 
HETATM    6  C   UNK N   1      27.007  25.062  -7.440  0.00  0.00     0.275 C 
HETATM    7  C   UNK N   1      25.707  23.343  -8.395  0.00  0.00     0.309 C 
ENDROOT
BRANCH   2   8
HETATM    8  O   UNK N   1      27.402  26.271  -4.665  0.00  0.00    -0.305 OA
BRANCH   8   9
HETATM    9  C   UNK N   1      26.403  26.799  -3.908  0.00  0.00     0.259 C 
HETATM   10  O   UNK N   1      26.228  26.426  -2.752  0.00  0.00    -0.265 OA
BRANCH   9  11
HETATM   11  C   UNK N   1      25.487  27.813  -4.526  0.00  0.00     0.106 C 
HETATM   12  C   UNK N   1      24.631  27.234  -5.641  0.00  0.00     0.015 C 
ENDBRANCH   9  11
ENDBRANCH   8   9
ENDBRANCH   2   8
BRANCH   2  13
HETATM   13  C   UNK N   1      28.550  24.260  -4.010  0.00  0.00    -0.023 A 
HETATM   14  C   UNK N   1      29.940  24.333  -4.208  0.00  0.00     0.010 A 
HETATM   15  C   UNK N   1      30.822  23.728  -3.309  0.00  0.00     0.001 A 
HETATM   16  C   UNK N   1      30.325  23.052  -2.193  0.00  0.00     0.000 A 
HETATM   17  C   UNK N   1      28.948  22.976  -1.980  0.00  0.00     0.001 A 
HETATM   18  C   UNK N   1      28.062  23.575  -2.884  0.00  0.00     0.010 A 
ENDBRANCH   2  13
TORSDOF 4
ENDMDL
MODEL 3
REMARK VINA RESULT:      -5.5      7.745     11.021
REMARK  4 active torsions:
REMARK  status: ('A' for Active; 'I' for Inactive)
REMARK    1  A    between atoms: O_1  and  C_4 
REMARK    2  A    between atoms: O_1  and  C_13 
REMARK    3  A    between atoms: C_4  and  C_9 
REMARK    4  A    between atoms: C_13  and  C_16 
ROOT
HETATM    1  N   UNK N   1      35.742  13.387  12.419  0.00  0.00     0.084 N 
HETATM    2  C   UNK N   1      35.898  11.837  14.951  0.00  0.00     0.101 C 
HETATM    3  C   UNK N   1      36.969  12.846  14.489  0.00  0.00     0.074 C 
HETATM    4  C   UNK N   1      34.564  12.087  14.214  0.00  0.00     0.074 C 
HETATM    5  C   UNK N   1      36.391  13.956  13.607  0.00  0.00     0.275 C 
HETATM    6  C   UNK N   1      34.801  12.292  12.717  0.00  0.00     0.275 C 
HETATM    7  C   UNK N   1      34.984  14.451  11.787  0.00  0.00     0.309 C 
ENDROOT
BRANCH   2   8
HETATM    8  O   UNK N   1      36.397  10.568  14.665  0.00  0.00    -0.305 OA
BRANCH   8   9
HETATM    9  C   UNK N   1      37.527  10.283  13.962  0.00  0.00     0.259 C 
HETATM   10  O   UNK N   1      37.508  10.244  12.735  0.00  0.00    -0.265 OA
BRANCH   9  11
HETATM   11  C   UNK N   1      38.787   9.973  14.713  0.00  0.00     0.106 C 
HETATM   12  C   UNK N   1      38.816   8.554  15.257  0.00  0.00     0.015 C 
ENDBRANCH   9  11
ENDBRANCH   8   9
ENDBRANCH   2   8
BRANCH   2  13
HETATM   13  C   UNK N   1      35.685  12.016  16.449  0.00  0.00    -0.023 A 
HETATM   14  C   UNK N   1      35.346  13.269  16.991  0.00  0.00     0.010 A 
HETATM   15  C   UNK N   1      35.143  13.422  18.365  0.00  0.00     0.001 A 
HETATM   16  C   UNK N   1      35.265  12.320  19.213  0.00  0.00     0.000 A 
HETATM   17  C   UNK N   1      35.595  11.069  18.690  0.00  0.00     0.001 A 
HETATM   18  C   UNK N   1      35.807  10.916  17.315  0.00  0.00     0.010 A 
ENDBRANCH   2  13
TORSDOF 4
ENDMDL
MODEL 4
REMARK VINA RESULT:      -5.5      1.692      3.884
REMARK  4 active torsions:
REMARK  status: ('A' for Active; 'I' for Inactive)
REMARK    1  A    between atoms: O_1  and  C_4 
REMARK    2  A    between atoms: O_1  and  C_13 
REMARK    3  A    between atoms: C_4  and  C_9 
REMARK    4  A    between atoms: C_13  and  C_16 
ROOT
HETATM    1  N   UNK N   1      33.563  16.044   4.473  0.00  0.00     0.084 N 
HETATM    2  C   UNK N   1      32.182  16.466   7.071  0.00  0.00     0.101 C 
HETATM    3  C   UNK N   1      33.092  17.512   6.397  0.00  0.00     0.074 C 
HETATM    4  C   UNK N   1      31.707  15.417   6.041  0.00  0.00     0.074 C 
HETATM    5  C   UNK N   1      33.110  17.383   4.873  0.00  0.00     0.275 C 
HETATM    6  C   UNK N   1      32.872  14.945   5.170  0.00  0.00     0.275 C 
HETATM    7  C   UNK N   1      33.289  15.899   3.055  0.00  0.00     0.309 C 
ENDROOT
BRANCH   2   8
HETATM    8  O   UNK N   1      32.939  15.869   8.078  0.00  0.00    -0.305 OA
BRANCH   8   9
HETATM    9  C   UNK N   1      34.254  16.095   8.341  0.00  0.00     0.259 C 
HETATM   10  O   UNK N   1      35.127  15.442   7.775  0.00  0.00    -0.265 OA
BRANCH   9  11
HETATM   11  C   UNK N   1      34.621  17.123   9.368  0.00  0.00     0.106 C 
HETATM   12  C   UNK N   1      35.360  16.532  10.558  0.00  0.00     0.015 C 
ENDBRANCH   9  11
ENDBRANCH   8   9
ENDBRANCH   2   8
BRANCH   2  13
HETATM   13  C   UNK N   1      30.971  17.185   7.650  0.00  0.00    -0.023 A 
HETATM   14  C   UNK N   1      31.091  18.029   8.769  0.00  0.00     0.010 A 
HETATM   15  C   UNK N   1      29.976  18.691   9.288  0.00  0.00     0.001 A 
HETATM   16  C   UNK N   1      28.727  18.528   8.686  0.00  0.00     0.000 A 
HETATM   17  C   UNK N   1      28.592  17.699   7.571  0.00  0.00     0.001 A 
HETATM   18  C   UNK N   1      29.707  17.028   7.056  0.00  0.00     0.010 A 
ENDBRANCH   2  13
TORSDOF 4
ENDMDL
MODEL 5
REMARK VINA RESULT:      -5.5      7.320     10.260
REMARK  4 active torsions:
REMARK  status: ('A' for Active; 'I' for Inactive)
REMARK    1  A    between atoms: O_1  and  C_4 
REMARK    2  A    between atoms: O_1  and  C_13 
REMARK    3  A    between atoms: C_4  and  C_9 
REMARK    4  A    between atoms: C_13  and  C_16 
ROOT
HETATM    1  N   UNK N   1      35.657  10.019  12.549  0.00  0.00     0.084 N 
HETATM    2  C   UNK N   1      35.283  12.014  14.722  0.00  0.00     0.101 C 
HETATM    3  C   UNK N   1      34.227  10.964  14.321  0.00  0.00     0.074 C 
HETATM    4  C   UNK N   1      36.680  11.598  14.210  0.00  0.00     0.074 C 
HETATM    5  C   UNK N   1      34.849   9.696  13.732  0.00  0.00     0.275 C 
HETATM    6  C   UNK N   1      36.608  11.126  12.756  0.00  0.00     0.275 C 
HETATM    7  C   UNK N   1      36.431   8.838  12.216  0.00  0.00     0.309 C 
ENDROOT
BRANCH   2   8
HETATM    8  O   UNK N   1      34.881  13.220  14.152  0.00  0.00    -0.305 OA
BRANCH   8   9
HETATM    9  C   UNK N   1      35.662  14.076  13.439  0.00  0.00     0.259 C 
HETATM   10  O   UNK N   1      36.595  14.668  13.975  0.00  0.00    -0.265 OA
BRANCH   9  11
HETATM   11  C   UNK N   1      35.336  14.322  11.997  0.00  0.00     0.106 C 
HETATM   12  C   UNK N   1      35.749  15.706  11.525  0.00  0.00     0.015 C 
ENDBRANCH   9  11
ENDBRANCH   8   9
ENDBRANCH   2   8
BRANCH   2  13
HETATM   13  C   UNK N   1      35.314  12.109  16.242  0.00  0.00    -0.023 A 
HETATM   14  C   UNK N   1      35.070  13.328  16.899  0.00  0.00     0.010 A 
HETATM   15  C   UNK N   1      35.092  13.403  18.294  0.00  0.00     0.001 A 
HETATM   16  C   UNK N   1      35.346  12.257  19.050  0.00  0.00     0.000 A 
HETATM   17  C   UNK N   1      35.583  11.038  18.412  0.00  0.00     0.001 A 
HETATM   18  C   UNK N   1      35.570  10.963  17.014  0.00  0.00     0.010 A 
ENDBRANCH   2  13
TORSDOF 4
ENDMDL
MODEL 6
REMARK VINA RESULT:      -5.5      1.761      2.141
REMARK  4 active torsions:
REMARK  status: ('A' for Active; 'I' for Inactive)
REMARK    1  A    between atoms: O_1  and  C_4 
REMARK    2  A    between atoms: O_1  and  C_13 
REMARK    3  A    between atoms: C_4  and  C_9 
REMARK    4  A    between atoms: C_13  and  C_16 
ROOT
HETATM    1  N   UNK N   1      34.133  15.440   6.603  0.00  0.00     0.084 N 
HETATM    2  C   UNK N   1      31.652  17.076   6.633  0.00  0.00     0.101 C 
HETATM    3  C   UNK N   1      31.676  15.548   6.433  0.00  0.00     0.074 C 
HETATM    4  C   UNK N   1      32.970  17.559   7.277  0.00  0.00     0.074 C 
HETATM    5  C   UNK N   1      32.874  14.883   7.114  0.00  0.00     0.275 C 
HETATM    6  C   UNK N   1      34.177  16.913   6.593  0.00  0.00     0.275 C 
HETATM    7  C   UNK N   1      35.198  14.979   7.476  0.00  0.00     0.309 C 
ENDROOT
BRANCH   2   8
HETATM    8  O   UNK N   1      31.477  17.640   5.371  0.00  0.00    -0.305 OA
BRANCH   8   9
HETATM    9  C   UNK N   1      31.425  16.971   4.187  0.00  0.00     0.259 C 
HETATM   10  O   UNK N   1      30.437  16.309   3.884  0.00  0.00    -0.265 OA
BRANCH   9  11
HETATM   11  C   UNK N   1      32.616  17.017   3.278  0.00  0.00     0.106 C 
HETATM   12  C   UNK N   1      33.234  15.648   3.044  0.00  0.00     0.015 C 
ENDBRANCH   9  11
ENDBRANCH   8   9
ENDBRANCH   2   8
BRANCH   2  13
HETATM   13  C   UNK N   1      30.488  17.422   7.553  0.00  0.00    -0.023 A 
HETATM   14  C   UNK N   1      30.693  18.136   8.748  0.00  0.00     0.010 A 
HETATM   15  C   UNK N   1      29.618  18.456   9.581  0.00  0.00     0.001 A 
HETATM   16  C   UNK N   1      28.323  18.077   9.225  0.00  0.00     0.000 A 
HETATM   17  C   UNK N   1      28.103  17.374   8.039  0.00  0.00     0.001 A 
HETATM   18  C   UNK N   1      29.179  17.045   7.207  0.00  0.00     0.010 A 
ENDBRANCH   2  13
TORSDOF 4
ENDMDL
MODEL 7
REMARK VINA RESULT:      -5.4     13.380     15.652
REMARK  4 active torsions:
REMARK  status: ('A' for Active; 'I' for Inactive)
REMARK    1  A    between atoms: O_1  and  C_4 
REMARK    2  A    between atoms: O_1  and  C_13 
REMARK    3  A    between atoms: C_4  and  C_9 
REMARK    4  A    between atoms: C_13  and  C_16 
ROOT
HETATM    1  N   UNK N   1      29.666  22.778  -4.020  0.00  0.00     0.084 N 
HETATM    2  C   UNK N   1      27.383  24.553  -4.711  0.00  0.00     0.101 C 
HETATM    3  C   UNK N   1      27.724  24.103  -3.276  0.00  0.00     0.074 C 
HETATM    4  C   UNK N   1      28.607  24.378  -5.638  0.00  0.00     0.074 C 
HETATM    5  C   UNK N   1      29.215  23.817  -3.086  0.00  0.00     0.275 C 
HETATM    6  C   UNK N   1      29.263  23.013  -5.418  0.00  0.00     0.275 C 
HETATM    7  C   UNK N   1      31.117  22.760  -3.983  0.00  0.00     0.309 C 
ENDROOT
BRANCH   2   8
HETATM    8  O   UNK N   1      26.318  23.762  -5.135  0.00  0.00    -0.305 OA
BRANCH   8   9
HETATM    9  C   UNK N   1      25.894  23.597  -6.417  0.00  0.00     0.259 C 
HETATM   10  O   UNK N   1      25.317  24.505  -7.008  0.00  0.00    -0.265 OA
BRANCH   9  11
HETATM   11  C   UNK N   1      26.103  22.270  -7.083  0.00  0.00     0.106 C 
HETATM   12  C   UNK N   1      24.799  21.552  -7.389  0.00  0.00     0.015 C 
ENDBRANCH   9  11
ENDBRANCH   8   9
ENDBRANCH   2   8
BRANCH   2  13
HETATM   13  C   UNK N   1      26.991  26.025  -4.672  0.00  0.00    -0.023 A 
HETATM   14  C   UNK N   1      27.425  26.920  -5.666  0.00  0.00     0.010 A 
HETATM   15  C   UNK N   1      27.053  28.266  -5.627  0.00  0.00     0.001 A 
HETATM   16  C   UNK N   1      26.231  28.732  -4.599  0.00  0.00     0.000 A 
HETATM   17  C   UNK N   1      25.787  27.854  -3.608  0.00  0.00     0.001 A 
HETATM   18  C   UNK N   1      26.166  26.507  -3.641  0.00  0.00     0.010 A 
ENDBRANCH   2  13
TORSDOF 4
ENDMDL
MODEL 8
REMARK VINA RESULT:      -5.3      3.156      5.188
REMARK  4 active torsions:
REMARK  status: ('A' for Active; 'I' for Inactive)
REMARK    1  A    between atoms: O_1  and  C_4 
REMARK    2  A    between atoms: O_1  and  C_13 
REMARK    3  A    between atoms: C_4  and  C_9 
REMARK    4  A    between atoms: C_13  and  C_16 
ROOT
HETATM    1  N   UNK N   1      27.904  16.221   3.251  0.00  0.00     0.084 N 
HETATM    2  C   UNK N   1      29.608  16.658   5.648  0.00  0.00     0.101 C 
HETATM    3  C   UNK N   1      29.281  17.750   4.610  0.00  0.00     0.074 C 
HETATM    4  C   UNK N   1      28.589  15.501   5.556  0.00  0.00     0.074 C 
HETATM    5  C   UNK N   1      27.931  17.527   3.923  0.00  0.00     0.275 C 
HETATM    6  C   UNK N   1      28.351  15.101   4.099  0.00  0.00     0.275 C 
HETATM    7  C   UNK N   1      26.528  15.957   2.872  0.00  0.00     0.309 C 
ENDROOT
BRANCH   2   8
HETATM    8  O   UNK N   1      30.897  16.212   5.363  0.00  0.00    -0.305 OA
BRANCH   8   9
HETATM    9  C   UNK N   1      31.658  16.569   4.292  0.00  0.00     0.259 C 
HETATM   10  O   UNK N   1      31.524  16.001   3.212  0.00  0.00    -0.265 OA
BRANCH   9  11
HETATM   11  C   UNK N   1      32.695  17.637   4.466  0.00  0.00     0.106 C 
HETATM   12  C   UNK N   1      33.612  17.383   5.650  0.00  0.00     0.015 C 
ENDBRANCH   9  11
ENDBRANCH   8   9
ENDBRANCH   2   8
BRANCH   2  13
HETATM   13  C   UNK N   1      29.538  17.279   7.037  0.00  0.00    -0.023 A 
HETATM   14  C   UNK N   1      30.707  17.587   7.756  0.00  0.00     0.010 A 
HETATM   15  C   UNK N   1      30.633  18.165   9.026  0.00  0.00     0.001 A 
HETATM   16  C   UNK N   1      29.388  18.453   9.588  0.00  0.00     0.000 A 
HETATM   17  C   UNK N   1      28.219  18.160   8.884  0.00  0.00     0.001 A 
HETATM   18  C   UNK N   1      28.291  17.573   7.615  0.00  0.00     0.010 A 
ENDBRANCH   2  13
TORSDOF 4
ENDMDL
MODEL 9
REMARK VINA RESULT:      -5.3      1.683      3.773
REMARK  4 active torsions:
REMARK  status: ('A' for Active; 'I' for Inactive)
REMARK    1  A    between atoms: O_1  and  C_4 
REMARK    2  A    between atoms: O_1  and  C_13 
REMARK    3  A    between atoms: C_4  and  C_9 
REMARK    4  A    between atoms: C_13  and  C_16 
ROOT
HETATM    1  N   UNK N   1      34.672  16.129  10.390  0.00  0.00     0.084 N 
HETATM    2  C   UNK N   1      32.665  16.297   8.203  0.00  0.00     0.101 C 
HETATM    3  C   UNK N   1      33.507  17.491   8.697  0.00  0.00     0.074 C 
HETATM    4  C   UNK N   1      33.316  14.962   8.629  0.00  0.00     0.074 C 
HETATM    5  C   UNK N   1      34.859  17.062   9.272  0.00  0.00     0.275 C 
HETATM    6  C   UNK N   1      33.753  15.015  10.094  0.00  0.00     0.275 C 
HETATM    7  C   UNK N   1      35.968  15.553  10.696  0.00  0.00     0.309 C 
ENDROOT
BRANCH   2   8
HETATM    8  O   UNK N   1      31.401  16.439   8.771  0.00  0.00    -0.305 OA
BRANCH   8   9
HETATM    9  C   UNK N   1      30.516  17.445   8.531  0.00  0.00     0.259 C 
HETATM   10  O   UNK N   1      30.709  18.570   8.982  0.00  0.00    -0.265 OA
BRANCH   9  11
HETATM   11  C   UNK N   1      29.276  17.145   7.743  0.00  0.00     0.106 C 
HETATM   12  C   UNK N   1      29.303  17.747   6.348  0.00  0.00     0.015 C 
ENDBRANCH   9  11
ENDBRANCH   8   9
ENDBRANCH   2   8
BRANCH   2  13
HETATM   13  C   UNK N   1      32.593  16.356   6.683  0.00  0.00    -0.023 A 
HETATM   14  C   UNK N   1      33.069  17.474   5.975  0.00  0.00     0.010 A 
HETATM   15  C   UNK N   1      33.006  17.516   4.579  0.00  0.00     0.001 A 
HETATM   16  C   UNK N   1      32.477  16.434   3.874  0.00  0.00     0.000 A 
HETATM   17  C   UNK N   1      32.007  15.314   4.562  0.00  0.00     0.001 A 
HETATM   18  C   UNK N   1      32.061  15.275   5.960  0.00  0.00     0.010 A 
ENDBRANCH   2  13
TORSDOF 4
ENDMDL
