REMARK  4 active torsions:
REMARK  status: ('A' for Active; 'I' for Inactive)
REMARK    1  A    between atoms: O_1  and  C_4 
REMARK    2  A    between atoms: O_1  and  C_13 
REMARK    3  A    between atoms: C_4  and  C_9 
REMARK    4  A    between atoms: C_13  and  C_16 
ROOT
HETATM    1  N   UNK N   1       4.377  -2.819   0.332  0.00  0.00     0.084 N 
HETATM    2  C   UNK N   1       4.193   0.148   0.302  0.00  0.00     0.101 C 
HETATM    3  C   UNK N   1       4.927  -0.661   1.390  0.00  0.00     0.074 C 
HETATM    4  C   UNK N   1       3.999  -0.707  -0.970  0.00  0.00     0.074 C 
HETATM    5  C   UNK N   1       5.467  -1.995   0.870  0.00  0.00     0.275 C 
HETATM    6  C   UNK N   1       3.497  -2.107  -0.612  0.00  0.00     0.275 C 
HETATM    7  C   UNK N   1       4.983  -3.924  -0.388  0.00  0.00     0.309 C 
ENDROOT
BRANCH   2   8
HETATM    8  O   UNK N   1       2.965   0.522   0.844  0.00  0.00    -0.305 OA
BRANCH   8   9
HETATM    9  C   UNK N   1       1.956   1.162   0.193  0.00  0.00     0.259 C 
HETATM   10  O   UNK N   1       1.898   1.155  -1.033  0.00  0.00    -0.265 OA
BRANCH   9  11
HETATM   11  C   UNK N   1       0.940   1.916   0.997  0.00  0.00     0.106 C 
HETATM   12  C   UNK N   1      -0.011   2.729   0.134  0.00  0.00     0.015 C 
ENDBRANCH   9  11
ENDBRANCH   8   9
ENDBRANCH   2   8
BRANCH   2  13
HETATM   13  C   UNK N   1       5.036   1.370  -0.039  0.00  0.00    -0.023 A 
HETATM   14  C   UNK N   1       4.534   2.672   0.136  0.00  0.00     0.010 A 
HETATM   15  C   UNK N   1       5.318   3.787  -0.171  0.00  0.00     0.001 A 
HETATM   16  C   UNK N   1       6.619   3.614  -0.646  0.00  0.00     0.000 A 
HETATM   17  C   UNK N   1       7.134   2.328  -0.819  0.00  0.00     0.001 A 
HETATM   18  C   UNK N   1       6.347   1.210  -0.520  0.00  0.00     0.010 A 
ENDBRANCH   2  13
TORSDOF 4
