MODEL 1
REMARK VINA RESULT:      -7.6      0.000      0.000
REMARK  1 active torsions:
REMARK  status: ('A' for Active; 'I' for Inactive)
REMARK    1  A    between atoms: C_10  and  O_1 
ROOT
HETATM    1  O   UNK N   1      25.594  20.888 -10.166  0.00  0.00    -0.293 OA
HETATM    2  C   UNK N   1      26.361  27.071  -5.548  0.00  0.00     0.001 C 
HETATM    3  C   UNK N   1      26.636  25.990  -6.605  0.00  0.00    -0.005 C 
HETATM    4  C   UNK N   1      26.997  26.724  -4.206  0.00  0.00    -0.014 C 
HETATM    5  C   UNK N   1      26.145  24.611  -6.090  0.00  0.00     0.002 C 
HETATM    6  C   UNK N   1      26.564  23.475  -7.091  0.00  0.00    -0.018 C 
HETATM    7  C   UNK N   1      26.350  25.449  -3.660  0.00  0.00     0.012 C 
HETATM    8  C   UNK N   1      26.589  24.288  -4.640  0.00  0.00     0.007 C 
HETATM    9  C   UNK N   1      26.751  27.997  -3.404  0.00  0.00     0.126 C 
HETATM   10  C   UNK N   1      26.896  28.465  -5.829  0.00  0.00     0.008 C 
HETATM   11  C   UNK N   1      25.878  26.316  -7.923  0.00  0.00     0.006 C 
HETATM   12  C   UNK N   1      26.660  24.010  -8.559  0.00  0.00     0.005 C 
HETATM   13  C   UNK N   1      27.021  29.107  -4.435  0.00  0.00     0.033 C 
HETATM   14  C   UNK N   1      25.604  25.079  -8.820  0.00  0.00     0.006 C 
HETATM   15  C   UNK N   1      28.518  26.516  -4.296  0.00  0.00     0.018 C 
HETATM   16  C   UNK N   1      27.942  22.903  -6.749  0.00  0.00     0.020 C 
HETATM   17  C   UNK N   1      25.556  22.354  -6.951  0.00  0.00    -0.013 C 
HETATM   18  C   UNK N   1      26.674  22.908  -9.627  0.00  0.00     0.088 C 
HETATM   19  C   UNK N   1      25.217  21.556  -7.969  0.00  0.00     0.047 C 
HETATM   20  C   UNK N   1      25.792  21.735  -9.312  0.00  0.00     0.149 C 
ENDROOT
BRANCH   9  21
HETATM   21  O   UNK N   1      25.415  28.085  -3.002  0.00  0.00    -0.395 OA
HETATM   22  H   UNK N   1      24.524  27.765  -2.790  0.00  0.00     0.210 HD
ENDBRANCH   9  21
TORSDOF 1
ENDMDL
MODEL 2
REMARK VINA RESULT:      -7.1      1.134      6.400
REMARK  1 active torsions:
REMARK  status: ('A' for Active; 'I' for Inactive)
REMARK    1  A    between atoms: C_10  and  O_1 
ROOT
HETATM    1  O   UNK N   1      26.856  29.157  -2.684  0.00  0.00    -0.293 OA
HETATM    2  C   UNK N   1      26.728  22.987  -7.381  0.00  0.00     0.001 C 
HETATM    3  C   UNK N   1      27.211  24.199  -6.567  0.00  0.00    -0.005 C 
HETATM    4  C   UNK N   1      26.433  23.361  -8.829  0.00  0.00    -0.014 C 
HETATM    5  C   UNK N   1      26.165  25.342  -6.651  0.00  0.00     0.002 C 
HETATM    6  C   UNK N   1      26.719  26.639  -5.959  0.00  0.00    -0.018 C 
HETATM    7  C   UNK N   1      25.274  24.360  -8.863  0.00  0.00     0.012 C 
HETATM    8  C   UNK N   1      25.666  25.630  -8.091  0.00  0.00     0.007 C 
HETATM    9  C   UNK N   1      26.161  21.997  -9.455  0.00  0.00     0.126 C 
HETATM   10  C   UNK N   1      27.689  21.819  -7.517  0.00  0.00     0.008 C 
HETATM   11  C   UNK N   1      27.389  23.811  -5.072  0.00  0.00     0.006 C 
HETATM   12  C   UNK N   1      27.720  26.291  -4.806  0.00  0.00     0.005 C 
HETATM   13  C   UNK N   1      27.228  21.103  -8.800  0.00  0.00     0.033 C 
HETATM   14  C   UNK N   1      27.305  25.010  -4.090  0.00  0.00     0.006 C 
HETATM   15  C   UNK N   1      27.645  23.972  -9.552  0.00  0.00     0.018 C 
HETATM   16  C   UNK N   1      27.486  27.520  -6.946  0.00  0.00     0.020 C 
HETATM   17  C   UNK N   1      25.528  27.433  -5.468  0.00  0.00    -0.013 C 
HETATM   18  C   UNK N   1      27.993  27.455  -3.843  0.00  0.00     0.088 C 
HETATM   19  C   UNK N   1      25.574  28.206  -4.377  0.00  0.00     0.047 C 
HETATM   20  C   UNK N   1      26.796  28.315  -3.564  0.00  0.00     0.149 C 
ENDROOT
BRANCH   9  21
HETATM   21  O   UNK N   1      24.900  21.520  -9.086  0.00  0.00    -0.395 OA
HETATM   22  H   UNK N   1      23.945  21.557  -8.922  0.00  0.00     0.210 HD
ENDBRANCH   9  21
TORSDOF 1
ENDMDL
MODEL 3
REMARK VINA RESULT:      -6.9     27.891     30.001
REMARK  1 active torsions:
REMARK  status: ('A' for Active; 'I' for Inactive)
REMARK    1  A    between atoms: C_10  and  O_1 
ROOT
HETATM    1  O   UNK N   1      35.012   9.232  23.170  0.00  0.00    -0.293 OA
HETATM    2  C   UNK N   1      35.955  12.255  16.090  0.00  0.00     0.001 C 
HETATM    3  C   UNK N   1      35.313  11.708  17.376  0.00  0.00    -0.005 C 
HETATM    4  C   UNK N   1      36.044  11.187  15.006  0.00  0.00    -0.014 C 
HETATM    5  C   UNK N   1      36.101  10.468  17.873  0.00  0.00     0.002 C 
HETATM    6  C   UNK N   1      35.363   9.805  19.091  0.00  0.00    -0.018 C 
HETATM    7  C   UNK N   1      36.975  10.068  15.480  0.00  0.00     0.012 C 
HETATM    8  C   UNK N   1      36.408   9.432  16.759  0.00  0.00     0.007 C 
HETATM    9  C   UNK N   1      36.526  11.998  13.807  0.00  0.00     0.126 C 
HETATM   10  C   UNK N   1      35.235  13.395  15.390  0.00  0.00     0.008 C 
HETATM   11  C   UNK N   1      35.344  12.785  18.497  0.00  0.00     0.006 C 
HETATM   12  C   UNK N   1      34.553  10.863  19.915  0.00  0.00     0.005 C 
HETATM   13  C   UNK N   1      35.717  13.301  13.930  0.00  0.00     0.033 C 
HETATM   14  C   UNK N   1      35.273  12.207  19.935  0.00  0.00     0.006 C 
HETATM   15  C   UNK N   1      34.678  10.582  14.641  0.00  0.00     0.018 C 
HETATM   16  C   UNK N   1      34.355   8.750  18.633  0.00  0.00     0.020 C 
HETATM   17  C   UNK N   1      36.411   9.104  19.928  0.00  0.00    -0.013 C 
HETATM   18  C   UNK N   1      34.139  10.383  21.313  0.00  0.00     0.088 C 
HETATM   19  C   UNK N   1      36.306   8.969  21.254  0.00  0.00     0.047 C 
HETATM   20  C   UNK N   1      35.161   9.523  21.995  0.00  0.00     0.149 C 
ENDROOT
BRANCH   9  21
HETATM   21  O   UNK N   1      37.883  12.309  13.927  0.00  0.00    -0.395 OA
HETATM   22  H   UNK N   1      38.666  12.878  13.992  0.00  0.00     0.210 HD
ENDBRANCH   9  21
TORSDOF 1
ENDMDL
MODEL 4
REMARK VINA RESULT:      -6.9     26.875     28.853
REMARK  1 active torsions:
REMARK  status: ('A' for Active; 'I' for Inactive)
REMARK    1  A    between atoms: C_10  and  O_1 
ROOT
HETATM    1  O   UNK N   1      36.058  14.981  12.590  0.00  0.00    -0.293 OA
HETATM    2  C   UNK N   1      35.026  10.481  18.822  0.00  0.00     0.001 C 
HETATM    3  C   UNK N   1      35.655  11.430  17.788  0.00  0.00    -0.005 C 
HETATM    4  C   UNK N   1      35.415   9.029  18.566  0.00  0.00    -0.014 C 
HETATM    5  C   UNK N   1      35.258  10.986  16.355  0.00  0.00     0.002 C 
HETATM    6  C   UNK N   1      36.022  11.848  15.287  0.00  0.00    -0.018 C 
HETATM    7  C   UNK N   1      34.847   8.589  17.214  0.00  0.00     0.012 C 
HETATM    8  C   UNK N   1      35.435   9.467  16.097  0.00  0.00     0.007 C 
HETATM    9  C   UNK N   1      34.841   8.330  19.793  0.00  0.00     0.126 C 
HETATM   10  C   UNK N   1      35.415  10.688  20.275  0.00  0.00     0.008 C 
HETATM   11  C   UNK N   1      35.145  12.882  18.006  0.00  0.00     0.006 C 
HETATM   12  C   UNK N   1      36.343  13.281  15.830  0.00  0.00     0.005 C 
HETATM   13  C   UNK N   1      35.164   9.316  20.929  0.00  0.00     0.033 C 
HETATM   14  C   UNK N   1      35.230  13.781  16.744  0.00  0.00     0.006 C 
HETATM   15  C   UNK N   1      36.936   8.803  18.569  0.00  0.00     0.018 C 
HETATM   16  C   UNK N   1      37.364  11.218  14.909  0.00  0.00     0.020 C 
HETATM   17  C   UNK N   1      35.167  11.883  14.039  0.00  0.00    -0.013 C 
HETATM   18  C   UNK N   1      36.724  14.292  14.739  0.00  0.00     0.088 C 
HETATM   19  C   UNK N   1      35.153  12.926  13.201  0.00  0.00     0.047 C 
HETATM   20  C   UNK N   1      35.962  14.128  13.457  0.00  0.00     0.149 C 
ENDROOT
BRANCH   9  21
HETATM   21  O   UNK N   1      33.452   8.209  19.697  0.00  0.00    -0.395 OA
HETATM   22  H   UNK N   1      32.603   7.765  19.544  0.00  0.00     0.210 HD
ENDBRANCH   9  21
TORSDOF 1
ENDMDL
MODEL 5
REMARK VINA RESULT:      -6.9     16.965     18.652
REMARK  1 active torsions:
REMARK  status: ('A' for Active; 'I' for Inactive)
REMARK    1  A    between atoms: C_10  and  O_1 
ROOT
HETATM    1  O   UNK N   1      31.889  16.826   2.181  0.00  0.00    -0.293 OA
HETATM    2  C   UNK N   1      35.614  14.846   8.689  0.00  0.00     0.001 C 
HETATM    3  C   UNK N   1      34.629  14.850   7.508  0.00  0.00    -0.005 C 
HETATM    4  C   UNK N   1      35.011  15.497   9.929  0.00  0.00    -0.014 C 
HETATM    5  C   UNK N   1      34.166  16.301   7.212  0.00  0.00     0.002 C 
HETATM    6  C   UNK N   1      33.040  16.300   6.116  0.00  0.00    -0.018 C 
HETATM    7  C   UNK N   1      34.734  16.973   9.636  0.00  0.00     0.012 C 
HETATM    8  C   UNK N   1      33.734  17.091   8.475  0.00  0.00     0.007 C 
HETATM    9  C   UNK N   1      36.075  15.210  10.982  0.00  0.00     0.126 C 
HETATM   10  C   UNK N   1      36.072  13.492   9.202  0.00  0.00     0.008 C 
HETATM   11  C   UNK N   1      35.314  14.288   6.230  0.00  0.00     0.006 C 
HETATM   12  C   UNK N   1      33.194  15.088   5.137  0.00  0.00     0.005 C 
HETATM   13  C   UNK N   1      36.497  13.766  10.656  0.00  0.00     0.033 C 
HETATM   14  C   UNK N   1      34.663  14.758   4.902  0.00  0.00     0.006 C 
HETATM   15  C   UNK N   1      33.707  14.824  10.389  0.00  0.00     0.018 C 
HETATM   16  C   UNK N   1      31.648  16.180   6.738  0.00  0.00     0.020 C 
HETATM   17  C   UNK N   1      33.107  17.631   5.399  0.00  0.00    -0.013 C 
HETATM   18  C   UNK N   1      32.395  15.230   3.835  0.00  0.00     0.088 C 
HETATM   19  C   UNK N   1      32.777  17.776   4.110  0.00  0.00     0.047 C 
HETATM   20  C   UNK N   1      32.346  16.629   3.294  0.00  0.00     0.149 C 
ENDROOT
BRANCH   9  21
HETATM   21  O   UNK N   1      37.186  16.042  10.811  0.00  0.00    -0.395 OA
HETATM   22  H   UNK N   1      37.666  16.853  10.585  0.00  0.00     0.210 HD
ENDBRANCH   9  21
TORSDOF 1
ENDMDL
MODEL 6
REMARK VINA RESULT:      -6.8     17.429     19.070
REMARK  1 active torsions:
REMARK  status: ('A' for Active; 'I' for Inactive)
REMARK    1  A    between atoms: C_10  and  O_1 
ROOT
HETATM    1  O   UNK N   1      31.856  17.166   2.907  0.00  0.00    -0.293 OA
HETATM    2  C   UNK N   1      34.587  15.600   9.995  0.00  0.00     0.001 C 
HETATM    3  C   UNK N   1      34.468  16.120   8.553  0.00  0.00    -0.005 C 
HETATM    4  C   UNK N   1      35.325  14.268  10.056  0.00  0.00    -0.014 C 
HETATM    5  C   UNK N   1      33.777  15.053   7.663  0.00  0.00     0.002 C 
HETATM    6  C   UNK N   1      33.794  15.505   6.159  0.00  0.00    -0.018 C 
HETATM    7  C   UNK N   1      34.511  13.209   9.309  0.00  0.00     0.012 C 
HETATM    8  C   UNK N   1      34.352  13.623   7.838  0.00  0.00     0.007 C 
HETATM    9  C   UNK N   1      35.476  14.062  11.559  0.00  0.00     0.126 C 
HETATM   10  C   UNK N   1      35.358  16.464  10.979  0.00  0.00     0.008 C 
HETATM   11  C   UNK N   1      33.611  17.416   8.514  0.00  0.00     0.006 C 
HETATM   12  C   UNK N   1      33.784  17.065   6.028  0.00  0.00     0.005 C 
HETATM   13  C   UNK N   1      35.819  15.474  12.064  0.00  0.00     0.033 C 
HETATM   14  C   UNK N   1      32.952  17.700   7.137  0.00  0.00     0.006 C 
HETATM   15  C   UNK N   1      36.738  14.333   9.451  0.00  0.00     0.018 C 
HETATM   16  C   UNK N   1      35.054  15.019   5.439  0.00  0.00     0.020 C 
HETATM   17  C   UNK N   1      32.604  14.862   5.480  0.00  0.00    -0.013 C 
HETATM   18  C   UNK N   1      33.407  17.573   4.629  0.00  0.00     0.088 C 
HETATM   19  C   UNK N   1      31.956  15.435   4.459  0.00  0.00     0.047 C 
HETATM   20  C   UNK N   1      32.353  16.755   3.942  0.00  0.00     0.149 C 
ENDROOT
BRANCH   9  21
HETATM   21  O   UNK N   1      34.263  13.671  12.135  0.00  0.00    -0.395 OA
HETATM   22  H   UNK N   1      33.458  13.143  12.246  0.00  0.00     0.210 HD
ENDBRANCH   9  21
TORSDOF 1
ENDMDL
MODEL 7
REMARK VINA RESULT:      -6.8      3.275      6.067
REMARK  1 active torsions:
REMARK  status: ('A' for Active; 'I' for Inactive)
REMARK    1  A    between atoms: C_10  and  O_1 
ROOT
HETATM    1  O   UNK N   1      32.326  21.690  -2.181  0.00  0.00    -0.293 OA
HETATM    2  C   UNK N   1      27.227  22.710  -7.935  0.00  0.00     0.001 C 
HETATM    3  C   UNK N   1      28.531  22.684  -7.120  0.00  0.00    -0.005 C 
HETATM    4  C   UNK N   1      26.558  24.079  -7.888  0.00  0.00    -0.014 C 
HETATM    5  C   UNK N   1      28.248  23.122  -5.659  0.00  0.00     0.002 C 
HETATM    6  C   UNK N   1      29.595  23.255  -4.860  0.00  0.00    -0.018 C 
HETATM    7  C   UNK N   1      26.143  24.385  -6.446  0.00  0.00     0.012 C 
HETATM    8  C   UNK N   1      27.387  24.407  -5.544  0.00  0.00     0.007 C 
HETATM    9  C   UNK N   1      25.423  23.908  -8.891  0.00  0.00     0.126 C 
HETATM   10  C   UNK N   1      27.337  22.434  -9.424  0.00  0.00     0.008 C 
HETATM   11  C   UNK N   1      29.123  21.247  -7.092  0.00  0.00     0.006 C 
HETATM   12  C   UNK N   1      30.687  22.277  -5.411  0.00  0.00     0.005 C 
HETATM   13  C   UNK N   1      26.087  23.105 -10.023  0.00  0.00     0.033 C 
HETATM   14  C   UNK N   1      30.061  20.971  -5.886  0.00  0.00     0.006 C 
HETATM   15  C   UNK N   1      27.466  25.211  -8.399  0.00  0.00     0.018 C 
HETATM   16  C   UNK N   1      30.180  24.664  -4.973  0.00  0.00     0.020 C 
HETATM   17  C   UNK N   1      29.282  23.005  -3.401  0.00  0.00    -0.013 C 
HETATM   18  C   UNK N   1      31.872  22.063  -4.459  0.00  0.00     0.088 C 
HETATM   19  C   UNK N   1      30.160  22.453  -2.557  0.00  0.00     0.047 C 
HETATM   20  C   UNK N   1      31.495  22.027  -3.007  0.00  0.00     0.149 C 
ENDROOT
BRANCH   9  21
HETATM   21  O   UNK N   1      24.390  23.137  -8.351  0.00  0.00    -0.395 OA
HETATM   22  H   UNK N   1      23.586  22.954  -7.840  0.00  0.00     0.210 HD
ENDBRANCH   9  21
TORSDOF 1
ENDMDL
MODEL 8
REMARK VINA RESULT:      -6.7      4.813      6.531
REMARK  1 active torsions:
REMARK  status: ('A' for Active; 'I' for Inactive)
REMARK    1  A    between atoms: C_10  and  O_1 
ROOT
HETATM    1  O   UNK N   1      35.330  19.355  -4.521  0.00  0.00    -0.293 OA
HETATM    2  C   UNK N   1      28.501  22.967  -5.204  0.00  0.00     0.001 C 
HETATM    3  C   UNK N   1      29.922  22.455  -5.490  0.00  0.00    -0.005 C 
HETATM    4  C   UNK N   1      28.516  24.365  -4.597  0.00  0.00    -0.014 C 
HETATM    5  C   UNK N   1      30.768  22.494  -4.190  0.00  0.00     0.002 C 
HETATM    6  C   UNK N   1      32.264  22.127  -4.502  0.00  0.00    -0.018 C 
HETATM    7  C   UNK N   1      29.209  24.311  -3.233  0.00  0.00     0.012 C 
HETATM    8  C   UNK N   1      30.658  23.830  -3.410  0.00  0.00     0.007 C 
HETATM    9  C   UNK N   1      27.032  24.715  -4.581  0.00  0.00     0.126 C 
HETATM   10  C   UNK N   1      27.570  23.120  -6.394  0.00  0.00     0.008 C 
HETATM   11  C   UNK N   1      29.877  20.986  -5.997  0.00  0.00     0.006 C 
HETATM   12  C   UNK N   1      32.373  21.161  -5.729  0.00  0.00     0.005 C 
HETATM   13  C   UNK N   1      26.537  24.164  -5.930  0.00  0.00     0.033 C 
HETATM   14  C   UNK N   1      31.194  20.195  -5.771  0.00  0.00     0.006 C 
HETATM   15  C   UNK N   1      29.229  25.399  -5.483  0.00  0.00     0.018 C 
HETATM   16  C   UNK N   1      33.087  23.368  -4.854  0.00  0.00     0.020 C 
HETATM   17  C   UNK N   1      32.854  21.528  -3.243  0.00  0.00    -0.013 C 
HETATM   18  C   UNK N   1      33.731  20.455  -5.851  0.00  0.00     0.088 C 
HETATM   19  C   UNK N   1      33.813  20.596  -3.267  0.00  0.00     0.047 C 
HETATM   20  C   UNK N   1      34.343  20.071  -4.536  0.00  0.00     0.149 C 
ENDROOT
BRANCH   9  21
HETATM   21  O   UNK N   1      26.367  24.033  -3.557  0.00  0.00    -0.395 OA
HETATM   22  H   UNK N   1      25.719  23.431  -3.160  0.00  0.00     0.210 HD
ENDBRANCH   9  21
TORSDOF 1
ENDMDL
MODEL 9
REMARK VINA RESULT:      -6.6      1.842      2.710
REMARK  1 active torsions:
REMARK  status: ('A' for Active; 'I' for Inactive)
REMARK    1  A    between atoms: C_10  and  O_1 
ROOT
HETATM    1  O   UNK N   1      29.456  19.394  -8.268  0.00  0.00    -0.293 OA
HETATM    2  C   UNK N   1      26.177  25.718  -5.201  0.00  0.00     0.001 C 
HETATM    3  C   UNK N   1      26.766  24.714  -6.205  0.00  0.00    -0.005 C 
HETATM    4  C   UNK N   1      27.204  26.762  -4.777  0.00  0.00    -0.014 C 
HETATM    5  C   UNK N   1      28.031  24.047  -5.604  0.00  0.00     0.002 C 
HETATM    6  C   UNK N   1      28.733  23.141  -6.679  0.00  0.00    -0.018 C 
HETATM    7  C   UNK N   1      28.348  26.068  -4.034  0.00  0.00     0.012 C 
HETATM    8  C   UNK N   1      29.027  25.051  -4.965  0.00  0.00     0.007 C 
HETATM    9  C   UNK N   1      26.353  27.722  -3.953  0.00  0.00     0.126 C 
HETATM   10  C   UNK N   1      25.006  26.562  -5.673  0.00  0.00     0.008 C 
HETATM   11  C   UNK N   1      25.733  23.598  -6.525  0.00  0.00     0.006 C 
HETATM   12  C   UNK N   1      27.701  22.567  -7.707  0.00  0.00     0.005 C 
HETATM   13  C   UNK N   1      25.048  27.804  -4.765  0.00  0.00     0.033 C 
HETATM   14  C   UNK N   1      26.365  22.274  -7.033  0.00  0.00     0.006 C 
HETATM   15  C   UNK N   1      27.783  27.553  -5.963  0.00  0.00     0.018 C 
HETATM   16  C   UNK N   1      29.762  23.928  -7.494  0.00  0.00     0.020 C 
HETATM   17  C   UNK N   1      29.474  22.050  -5.937  0.00  0.00    -0.013 C 
HETATM   18  C   UNK N   1      28.229  21.385  -8.530  0.00  0.00     0.088 C 
HETATM   19  C   UNK N   1      29.659  20.827  -6.445  0.00  0.00     0.047 C 
HETATM   20  C   UNK N   1      29.123  20.454  -7.765  0.00  0.00     0.149 C 
ENDROOT
BRANCH   9  21
HETATM   21  O   UNK N   1      26.058  27.178  -2.700  0.00  0.00    -0.395 OA
HETATM   22  H   UNK N   1      25.822  26.490  -2.058  0.00  0.00     0.210 HD
ENDBRANCH   9  21
TORSDOF 1
ENDMDL
