MODEL 1
REMARK VINA RESULT:      -5.2      0.000      0.000
REMARK  2 active torsions:
REMARK  status: ('A' for Active; 'I' for Inactive)
REMARK    1  A    between atoms: C_6  and  C_7 
REMARK    2  A    between atoms: C_6  and  C_8 
ROOT
HETATM    1  O   UNK N   1      37.508  14.594  15.878  0.00  0.00    -0.272 OA
HETATM    2  O   UNK N   1      34.211  11.876  13.892  0.00  0.00    -0.272 OA
HETATM    3  O   UNK N   1      36.024  15.323  11.755  0.00  0.00    -0.247 OA
HETATM    4  N   UNK N   1      36.766  14.958  13.818  0.00  0.00    -0.278 N 
HETATM    5  N   UNK N   1      35.120  13.596  12.824  0.00  0.00    -0.278 N 
HETATM    6  C   UNK N   1      35.839  13.052  15.171  0.00  0.00     0.121 A 
HETATM    7  C   UNK N   1      36.759  14.252  14.975  0.00  0.00     0.243 A 
HETATM    8  C   UNK N   1      35.006  12.805  13.918  0.00  0.00     0.243 A 
HETATM    9  C   UNK N   1      35.972  14.646  12.767  0.00  0.00     0.329 A 
HETATM   10  H   UNK N   1      37.374  15.729  13.739  0.00  0.00     0.173 HD
HETATM   11  H   UNK N   1      34.562  13.398  12.037  0.00  0.00     0.173 HD
ENDROOT
BRANCH   6  12
HETATM   12  C   UNK N   1      34.877  13.330  16.344  0.00  0.00     0.024 C 
HETATM   13  C   UNK N   1      35.175  12.507  17.593  0.00  0.00     0.007 C 
ENDBRANCH   6  12
BRANCH   6  14
HETATM   14  C   UNK N   1      36.714  11.814  15.457  0.00  0.00     0.024 C 
HETATM   15  C   UNK N   1      37.697  11.483  14.338  0.00  0.00     0.007 C 
ENDBRANCH   6  14
TORSDOF 2
ENDMDL
MODEL 2
REMARK VINA RESULT:      -5.2      0.092      3.001
REMARK  2 active torsions:
REMARK  status: ('A' for Active; 'I' for Inactive)
REMARK    1  A    between atoms: C_6  and  C_7 
REMARK    2  A    between atoms: C_6  and  C_8 
ROOT
HETATM    1  O   UNK N   1      34.257  11.762  13.873  0.00  0.00    -0.272 OA
HETATM    2  O   UNK N   1      37.468  14.567  15.880  0.00  0.00    -0.272 OA
HETATM    3  O   UNK N   1      36.037  15.220  11.725  0.00  0.00    -0.247 OA
HETATM    4  N   UNK N   1      35.147  13.490  12.801  0.00  0.00    -0.278 N 
HETATM    5  N   UNK N   1      36.749  14.894  13.806  0.00  0.00    -0.278 N 
HETATM    6  C   UNK N   1      35.853  12.973  15.158  0.00  0.00     0.121 A 
HETATM    7  C   UNK N   1      35.034  12.705  13.900  0.00  0.00     0.243 A 
HETATM    8  C   UNK N   1      36.741  14.198  14.969  0.00  0.00     0.243 A 
HETATM    9  C   UNK N   1      35.980  14.555  12.746  0.00  0.00     0.329 A 
HETATM   10  H   UNK N   1      34.601  13.275  12.009  0.00  0.00     0.173 HD
HETATM   11  H   UNK N   1      37.339  15.679  13.729  0.00  0.00     0.173 HD
ENDROOT
BRANCH   6  12
HETATM   12  C   UNK N   1      36.759  11.759  15.447  0.00  0.00     0.024 C 
HETATM   13  C   UNK N   1      37.729  11.431  14.316  0.00  0.00     0.007 C 
ENDBRANCH   6  12
BRANCH   6  14
HETATM   14  C   UNK N   1      34.877  13.223  16.326  0.00  0.00     0.024 C 
HETATM   15  C   UNK N   1      35.183  12.394  17.571  0.00  0.00     0.007 C 
ENDBRANCH   6  14
TORSDOF 2
ENDMDL
MODEL 3
REMARK VINA RESULT:      -4.9      6.019      8.012
REMARK  2 active torsions:
REMARK  status: ('A' for Active; 'I' for Inactive)
REMARK    1  A    between atoms: C_6  and  C_7 
REMARK    2  A    between atoms: C_6  and  C_8 
ROOT
HETATM    1  O   UNK N   1      32.314  14.571   8.921  0.00  0.00    -0.272 OA
HETATM    2  O   UNK N   1      34.419  18.303   6.960  0.00  0.00    -0.272 OA
HETATM    3  O   UNK N   1      35.332  16.992  11.105  0.00  0.00    -0.247 OA
HETATM    4  N   UNK N   1      33.822  15.781  10.012  0.00  0.00    -0.278 N 
HETATM    5  N   UNK N   1      34.878  17.645   9.029  0.00  0.00    -0.278 N 
HETATM    6  C   UNK N   1      33.183  16.391   7.658  0.00  0.00     0.121 A 
HETATM    7  C   UNK N   1      33.081  15.523   8.907  0.00  0.00     0.243 A 
HETATM    8  C   UNK N   1      34.202  17.507   7.862  0.00  0.00     0.243 A 
HETATM    9  C   UNK N   1      34.697  16.812  10.080  0.00  0.00     0.329 A 
HETATM   10  H   UNK N   1      33.719  15.196  10.797  0.00  0.00     0.173 HD
HETATM   11  H   UNK N   1      35.527  18.380   9.115  0.00  0.00     0.173 HD
ENDROOT
BRANCH   6  12
HETATM   12  C   UNK N   1      31.811  17.037   7.370  0.00  0.00     0.024 C 
HETATM   13  C   UNK N   1      31.284  17.898   8.512  0.00  0.00     0.007 C 
ENDBRANCH   6  12
BRANCH   6  14
HETATM   14  C   UNK N   1      33.630  15.498   6.482  0.00  0.00     0.024 C 
HETATM   15  C   UNK N   1      35.024  14.902   6.658  0.00  0.00     0.007 C 
ENDBRANCH   6  14
TORSDOF 2
ENDMDL
MODEL 4
REMARK VINA RESULT:      -4.9      6.597      8.480
REMARK  2 active torsions:
REMARK  status: ('A' for Active; 'I' for Inactive)
REMARK    1  A    between atoms: C_6  and  C_7 
REMARK    2  A    between atoms: C_6  and  C_8 
ROOT
HETATM    1  O   UNK N   1      33.684  17.961   6.218  0.00  0.00    -0.272 OA
HETATM    2  O   UNK N   1      32.109  14.893   9.428  0.00  0.00    -0.272 OA
HETATM    3  O   UNK N   1      35.591  17.538  10.208  0.00  0.00    -0.247 OA
HETATM    4  N   UNK N   1      34.636  17.749   8.211  0.00  0.00    -0.278 N 
HETATM    5  N   UNK N   1      33.845  16.217   9.818  0.00  0.00    -0.278 N 
HETATM    6  C   UNK N   1      32.658  16.321   7.604  0.00  0.00     0.121 A 
HETATM    7  C   UNK N   1      33.694  17.398   7.303  0.00  0.00     0.243 A 
HETATM    8  C   UNK N   1      32.855  15.766   9.011  0.00  0.00     0.243 A 
HETATM    9  C   UNK N   1      34.718  17.179   9.436  0.00  0.00     0.329 A 
HETATM   10  H   UNK N   1      35.288  18.447   7.971  0.00  0.00     0.173 HD
HETATM   11  H   UNK N   1      33.934  15.830  10.718  0.00  0.00     0.173 HD
ENDROOT
BRANCH   6  12
HETATM   12  C   UNK N   1      32.819  15.161   6.600  0.00  0.00     0.024 C 
HETATM   13  C   UNK N   1      31.546  14.835   5.827  0.00  0.00     0.007 C 
ENDBRANCH   6  12
BRANCH   6  14
HETATM   14  C   UNK N   1      31.256  16.954   7.494  0.00  0.00     0.024 C 
HETATM   15  C   UNK N   1      30.980  18.024   8.547  0.00  0.00     0.007 C 
ENDBRANCH   6  14
TORSDOF 2
ENDMDL
MODEL 5
REMARK VINA RESULT:      -4.7     24.412     25.735
REMARK  2 active torsions:
REMARK  status: ('A' for Active; 'I' for Inactive)
REMARK    1  A    between atoms: C_6  and  C_7 
REMARK    2  A    between atoms: C_6  and  C_8 
ROOT
HETATM    1  O   UNK N   1      28.529  26.393  -4.096  0.00  0.00    -0.272 OA
HETATM    2  O   UNK N   1      24.236  27.362  -5.781  0.00  0.00    -0.272 OA
HETATM    3  O   UNK N   1      25.868  23.231  -5.726  0.00  0.00    -0.247 OA
HETATM    4  N   UNK N   1      27.199  24.814  -4.911  0.00  0.00    -0.278 N 
HETATM    5  N   UNK N   1      25.051  25.299  -5.749  0.00  0.00    -0.278 N 
HETATM    6  C   UNK N   1      26.433  27.208  -4.874  0.00  0.00     0.121 A 
HETATM    7  C   UNK N   1      27.453  26.108  -4.602  0.00  0.00     0.243 A 
HETATM    8  C   UNK N   1      25.169  26.625  -5.497  0.00  0.00     0.243 A 
HETATM    9  C   UNK N   1      26.034  24.411  -5.470  0.00  0.00     0.329 A 
HETATM   10  H   UNK N   1      27.890  24.138  -4.721  0.00  0.00     0.173 HD
HETATM   11  H   UNK N   1      24.216  24.966  -6.152  0.00  0.00     0.173 HD
ENDROOT
BRANCH   6  12
HETATM   12  C   UNK N   1      27.032  28.229  -5.864  0.00  0.00     0.024 C 
HETATM   13  C   UNK N   1      27.505  27.610  -7.176  0.00  0.00     0.007 C 
ENDBRANCH   6  12
BRANCH   6  14
HETATM   14  C   UNK N   1      26.079  27.883  -3.533  0.00  0.00     0.024 C 
HETATM   15  C   UNK N   1      26.316  29.391  -3.523  0.00  0.00     0.007 C 
ENDBRANCH   6  14
TORSDOF 2
ENDMDL
MODEL 6
REMARK VINA RESULT:      -4.7     20.479     21.930
REMARK  2 active torsions:
REMARK  status: ('A' for Active; 'I' for Inactive)
REMARK    1  A    between atoms: C_6  and  C_7 
REMARK    2  A    between atoms: C_6  and  C_8 
ROOT
HETATM    1  O   UNK N   1      29.407  23.251  -6.042  0.00  0.00    -0.272 OA
HETATM    2  O   UNK N   1      30.356  22.907  -1.440  0.00  0.00    -0.272 OA
HETATM    3  O   UNK N   1      26.414  24.306  -2.934  0.00  0.00    -0.247 OA
HETATM    4  N   UNK N   1      27.912  23.778  -4.489  0.00  0.00    -0.278 N 
HETATM    5  N   UNK N   1      28.386  23.602  -2.187  0.00  0.00    -0.278 N 
HETATM    6  C   UNK N   1      30.197  22.976  -3.815  0.00  0.00     0.121 A 
HETATM    7  C   UNK N   1      29.143  23.344  -4.853  0.00  0.00     0.243 A 
HETATM    8  C   UNK N   1      29.648  23.159  -2.404  0.00  0.00     0.243 A 
HETATM    9  C   UNK N   1      27.536  23.908  -3.195  0.00  0.00     0.329 A 
HETATM   10  H   UNK N   1      27.265  24.009  -5.194  0.00  0.00     0.173 HD
HETATM   11  H   UNK N   1      28.074  23.705  -1.259  0.00  0.00     0.173 HD
ENDROOT
BRANCH   6  12
HETATM   12  C   UNK N   1      31.423  23.898  -3.980  0.00  0.00     0.024 C 
HETATM   13  C   UNK N   1      31.103  25.381  -3.819  0.00  0.00     0.007 C 
ENDBRANCH   6  12
BRANCH   6  14
HETATM   14  C   UNK N   1      30.588  21.498  -4.024  0.00  0.00     0.024 C 
HETATM   15  C   UNK N   1      32.039  21.301  -4.453  0.00  0.00     0.007 C 
ENDBRANCH   6  14
TORSDOF 2
ENDMDL
MODEL 7
REMARK VINA RESULT:      -4.5      7.346      9.301
REMARK  2 active torsions:
REMARK  status: ('A' for Active; 'I' for Inactive)
REMARK    1  A    between atoms: C_6  and  C_7 
REMARK    2  A    between atoms: C_6  and  C_8 
ROOT
HETATM    1  O   UNK N   1      31.659  14.594   6.828  0.00  0.00    -0.272 OA
HETATM    2  O   UNK N   1      34.633  18.237   7.117  0.00  0.00    -0.272 OA
HETATM    3  O   UNK N   1      30.673  18.263   9.131  0.00  0.00    -0.247 OA
HETATM    4  N   UNK N   1      31.167  16.427   7.978  0.00  0.00    -0.278 N 
HETATM    5  N   UNK N   1      32.657  18.247   8.126  0.00  0.00    -0.278 N 
HETATM    6  C   UNK N   1      33.365  16.251   6.771  0.00  0.00     0.121 A 
HETATM    7  C   UNK N   1      32.007  15.706   7.197  0.00  0.00     0.243 A 
HETATM    8  C   UNK N   1      33.591  17.643   7.352  0.00  0.00     0.243 A 
HETATM    9  C   UNK N   1      31.474  17.664   8.433  0.00  0.00     0.329 A 
HETATM   10  H   UNK N   1      30.298  16.036   8.224  0.00  0.00     0.173 HD
HETATM   11  H   UNK N   1      32.845  19.146   8.480  0.00  0.00     0.173 HD
ENDROOT
BRANCH   6  12
HETATM   12  C   UNK N   1      33.415  16.356   5.232  0.00  0.00     0.024 C 
HETATM   13  C   UNK N   1      32.404  17.337   4.649  0.00  0.00     0.007 C 
ENDBRANCH   6  12
BRANCH   6  14
HETATM   14  C   UNK N   1      34.457  15.295   7.294  0.00  0.00     0.024 C 
HETATM   15  C   UNK N   1      34.503  15.187   8.816  0.00  0.00     0.007 C 
ENDBRANCH   6  14
TORSDOF 2
ENDMDL
MODEL 8
REMARK VINA RESULT:      -4.5      7.658      9.272
REMARK  2 active torsions:
REMARK  status: ('A' for Active; 'I' for Inactive)
REMARK    1  A    between atoms: C_6  and  C_7 
REMARK    2  A    between atoms: C_6  and  C_8 
ROOT
HETATM    1  O   UNK N   1      34.588  18.299   7.072  0.00  0.00    -0.272 OA
HETATM    2  O   UNK N   1      31.652  14.711   6.232  0.00  0.00    -0.272 OA
HETATM    3  O   UNK N   1      30.630  17.978   9.063  0.00  0.00    -0.247 OA
HETATM    4  N   UNK N   1      32.611  18.138   8.066  0.00  0.00    -0.278 N 
HETATM    5  N   UNK N   1      31.141  16.345   7.642  0.00  0.00    -0.278 N 
HETATM    6  C   UNK N   1      33.349  16.368   6.441  0.00  0.00     0.121 A 
HETATM    7  C   UNK N   1      33.553  17.665   7.215  0.00  0.00     0.243 A 
HETATM    8  C   UNK N   1      31.990  15.757   6.766  0.00  0.00     0.243 A 
HETATM    9  C   UNK N   1      31.435  17.502   8.281  0.00  0.00     0.329 A 
HETATM   10  H   UNK N   1      32.788  18.978   8.549  0.00  0.00     0.173 HD
HETATM   11  H   UNK N   1      30.274  15.915   7.822  0.00  0.00     0.173 HD
ENDROOT
BRANCH   6  12
HETATM   12  C   UNK N   1      34.442  15.355   6.840  0.00  0.00     0.024 C 
HETATM   13  C   UNK N   1      34.464  15.029   8.330  0.00  0.00     0.007 C 
ENDBRANCH   6  12
BRANCH   6  14
HETATM   14  C   UNK N   1      33.419  16.688   4.933  0.00  0.00     0.024 C 
HETATM   15  C   UNK N   1      32.321  17.633   4.453  0.00  0.00     0.007 C 
ENDBRANCH   6  14
TORSDOF 2
ENDMDL
MODEL 9
REMARK VINA RESULT:      -4.3     23.804     24.777
REMARK  2 active torsions:
REMARK  status: ('A' for Active; 'I' for Inactive)
REMARK    1  A    between atoms: C_6  and  C_7 
REMARK    2  A    between atoms: C_6  and  C_8 
ROOT
HETATM    1  O   UNK N   1      29.433  26.275  -4.766  0.00  0.00    -0.272 OA
HETATM    2  O   UNK N   1      25.339  27.914  -3.107  0.00  0.00    -0.272 OA
HETATM    3  O   UNK N   1      29.225  29.805  -2.077  0.00  0.00    -0.247 OA
HETATM    4  N   UNK N   1      29.328  28.038  -3.423  0.00  0.00    -0.278 N 
HETATM    5  N   UNK N   1      27.280  28.860  -2.597  0.00  0.00    -0.278 N 
HETATM    6  C   UNK N   1      27.221  26.844  -4.098  0.00  0.00     0.121 A 
HETATM    7  C   UNK N   1      28.733  27.037  -4.116  0.00  0.00     0.243 A 
HETATM    8  C   UNK N   1      26.555  27.910  -3.235  0.00  0.00     0.243 A 
HETATM    9  C   UNK N   1      28.629  28.928  -2.680  0.00  0.00     0.329 A 
HETATM   10  H   UNK N   1      30.309  28.121  -3.460  0.00  0.00     0.173 HD
HETATM   11  H   UNK N   1      26.807  29.529  -2.050  0.00  0.00     0.173 HD
ENDROOT
BRANCH   6  12
HETATM   12  C   UNK N   1      26.888  25.461  -3.501  0.00  0.00     0.024 C 
HETATM   13  C   UNK N   1      26.110  24.553  -4.447  0.00  0.00     0.007 C 
ENDBRANCH   6  12
BRANCH   6  14
HETATM   14  C   UNK N   1      26.701  26.959  -5.546  0.00  0.00     0.024 C 
HETATM   15  C   UNK N   1      27.076  28.270  -6.232  0.00  0.00     0.007 C 
ENDBRANCH   6  14
TORSDOF 2
ENDMDL
