REMARK  5 active torsions:
REMARK  status: ('A' for Active; 'I' for Inactive)
REMARK    1  A    between atoms: O_2  and  C_8 
REMARK    2  A    between atoms: O_3  and  C_11 
REMARK    3  A    between atoms: N_4  and  C_6 
REMARK    4  A    between atoms: C_5  and  C_6 
REMARK    5  A    between atoms: C_5  and  C_7 
ROOT
HETATM    1 Br   UNK N   1       3.504  -4.289   0.087  0.00  0.00    -0.048 Br
HETATM    2  C   UNK N   1       3.563   0.451  -0.055  0.00  0.00    -0.020 A 
HETATM    3  C   UNK N   1       2.348  -0.291  -0.030  0.00  0.00     0.076 A 
HETATM    4  C   UNK N   1       4.778  -0.245  -0.027  0.00  0.00     0.048 A 
HETATM    5  C   UNK N   1       4.844  -1.637   0.018  0.00  0.00     0.086 A 
HETATM    6  C   UNK N   1       2.413  -1.687   0.016  0.00  0.00     0.059 A 
HETATM    7  C   UNK N   1       3.629  -2.374   0.038  0.00  0.00     0.047 A 
ENDROOT
BRANCH   2   8
HETATM    8  C   UNK N   1       3.581   1.961  -0.157  0.00  0.00     0.065 C 
BRANCH   8   9
HETATM    9  C   UNK N   1       4.839   2.678   0.343  0.00  0.00     0.074 C 
HETATM   10  C   UNK N   1       6.057   2.363  -0.509  0.00  0.00     0.032 C 
BRANCH   9  11
HETATM   11  N   UNK N   1       4.608   4.110   0.296  0.00  0.00    -0.426 N 
HETATM   12  H   UNK N   1       5.399   4.754   0.263  0.00  0.00     0.150 HD
HETATM   13  H   UNK N   1       3.655   4.473   0.296  0.00  0.00     0.150 HD
ENDBRANCH   9  11
ENDBRANCH   8   9
ENDBRANCH   2   8
BRANCH   3  14
HETATM   14  O   UNK N   1       1.105   0.264  -0.052  0.00  0.00    -0.355 OA
HETATM   15  C   UNK N   1       0.804   1.605  -0.044  0.00  0.00     0.210 C 
ENDBRANCH   3  14
BRANCH   5  16
HETATM   16  O   UNK N   1       6.088  -2.186   0.033  0.00  0.00    -0.355 OA
HETATM   17  C   UNK N   1       6.400  -3.523   0.044  0.00  0.00     0.210 C 
ENDBRANCH   5  16
TORSDOF 5
