MODEL 1
REMARK VINA RESULT:      -4.9      0.000      0.000
REMARK  5 active torsions:
REMARK  status: ('A' for Active; 'I' for Inactive)
REMARK    1  A    between atoms: O_2  and  C_8 
REMARK    2  A    between atoms: O_3  and  C_11 
REMARK    3  A    between atoms: N_4  and  C_6 
REMARK    4  A    between atoms: C_5  and  C_6 
REMARK    5  A    between atoms: C_5  and  C_7 
ROOT
HETATM    1 Br   UNK N   1      26.291  21.716  -7.985  0.00  0.00    -0.048 Br
HETATM    2  C   UNK N   1      25.536  25.873  -5.831  0.00  0.00    -0.020 A 
HETATM    3  C   UNK N   1      25.852  24.690  -5.105  0.00  0.00     0.076 A 
HETATM    4  C   UNK N   1      25.456  25.805  -7.228  0.00  0.00     0.048 A 
HETATM    5  C   UNK N   1      25.667  24.622  -7.934  0.00  0.00     0.086 A 
HETATM    6  C   UNK N   1      26.065  23.503  -5.812  0.00  0.00     0.059 A 
HETATM    7  C   UNK N   1      25.978  23.442  -7.205  0.00  0.00     0.047 A 
ENDROOT
BRANCH   2   8
HETATM    8  C   UNK N   1      25.240  27.187  -5.140  0.00  0.00     0.065 C 
BRANCH   8   9
HETATM    9  C   UNK N   1      26.339  27.765  -4.243  0.00  0.00     0.074 C 
HETATM   10  C   UNK N   1      26.638  29.219  -4.565  0.00  0.00     0.032 C 
BRANCH   9  11
HETATM   11  N   UNK N   1      25.901  27.685  -2.861  0.00  0.00    -0.426 N 
HETATM   12  H   UNK N   1      26.085  26.843  -2.315  0.00  0.00     0.150 HD
HETATM   13  H   UNK N   1      25.409  28.471  -2.436  0.00  0.00     0.150 HD
ENDBRANCH   9  11
ENDBRANCH   8   9
ENDBRANCH   2   8
BRANCH   3  14
HETATM   14  O   UNK N   1      25.960  24.624  -3.749  0.00  0.00    -0.355 OA
HETATM   15  C   UNK N   1      27.071  24.250  -3.031  0.00  0.00     0.210 C 
ENDBRANCH   3  14
BRANCH   5  16
HETATM   16  O   UNK N   1      25.551  24.693  -9.287  0.00  0.00    -0.355 OA
HETATM   17  C   UNK N   1      25.431  25.830 -10.047  0.00  0.00     0.210 C 
ENDBRANCH   5  16
TORSDOF 5
ENDMDL
MODEL 2
REMARK VINA RESULT:      -4.8     17.467     19.315
REMARK  5 active torsions:
REMARK  status: ('A' for Active; 'I' for Inactive)
REMARK    1  A    between atoms: O_2  and  C_8 
REMARK    2  A    between atoms: O_3  and  C_11 
REMARK    3  A    between atoms: N_4  and  C_6 
REMARK    4  A    between atoms: C_5  and  C_6 
REMARK    5  A    between atoms: C_5  and  C_7 
ROOT
HETATM    1 Br   UNK N   1      20.178  16.529   5.097  0.00  0.00    -0.048 Br
HETATM    2  C   UNK N   1      21.001  13.851   8.923  0.00  0.00    -0.020 A 
HETATM    3  C   UNK N   1      20.917  13.297   7.614  0.00  0.00     0.076 A 
HETATM    4  C   UNK N   1      20.844  15.234   9.080  0.00  0.00     0.048 A 
HETATM    5  C   UNK N   1      20.603  16.088   8.005  0.00  0.00     0.086 A 
HETATM    6  C   UNK N   1      20.676  14.153   6.535  0.00  0.00     0.059 A 
HETATM    7  C   UNK N   1      20.515  15.530   6.701  0.00  0.00     0.047 A 
ENDROOT
BRANCH   2   8
HETATM    8  C   UNK N   1      21.208  12.989  10.150  0.00  0.00     0.065 C 
BRANCH   8   9
HETATM    9  C   UNK N   1      22.648  12.590  10.486  0.00  0.00     0.074 C 
HETATM   10  C   UNK N   1      22.778  12.038  11.895  0.00  0.00     0.032 C 
BRANCH   9  11
HETATM   11  N   UNK N   1      23.076  11.563   9.553  0.00  0.00    -0.426 N 
HETATM   12  H   UNK N   1      23.797  11.769   8.862  0.00  0.00     0.150 HD
HETATM   13  H   UNK N   1      22.654  10.635   9.589  0.00  0.00     0.150 HD
ENDBRANCH   9  11
ENDBRANCH   8   9
ENDBRANCH   2   8
BRANCH   3  14
HETATM   14  O   UNK N   1      21.053  11.973   7.328  0.00  0.00    -0.355 OA
HETATM   15  C   UNK N   1      21.094  11.403   6.078  0.00  0.00     0.210 C 
ENDBRANCH   3  14
BRANCH   5  16
HETATM   16  O   UNK N   1      20.462  17.409   8.298  0.00  0.00    -0.355 OA
HETATM   17  C   UNK N   1      19.459  17.988   9.035  0.00  0.00     0.210 C 
ENDBRANCH   5  16
TORSDOF 5
ENDMDL
MODEL 3
REMARK VINA RESULT:      -4.6     16.140     17.592
REMARK  5 active torsions:
REMARK  status: ('A' for Active; 'I' for Inactive)
REMARK    1  A    between atoms: O_2  and  C_8 
REMARK    2  A    between atoms: O_3  and  C_11 
REMARK    3  A    between atoms: N_4  and  C_6 
REMARK    4  A    between atoms: C_5  and  C_6 
REMARK    5  A    between atoms: C_5  and  C_7 
ROOT
HETATM    1 Br   UNK N   1      28.493  16.736   5.593  0.00  0.00    -0.048 Br
HETATM    2  C   UNK N   1      32.588  17.513   7.856  0.00  0.00    -0.020 A 
HETATM    3  C   UNK N   1      32.536  17.213   6.465  0.00  0.00     0.076 A 
HETATM    4  C   UNK N   1      31.387  17.590   8.573  0.00  0.00     0.048 A 
HETATM    5  C   UNK N   1      30.144  17.377   7.979  0.00  0.00     0.086 A 
HETATM    6  C   UNK N   1      31.289  17.001   5.868  0.00  0.00     0.059 A 
HETATM    7  C   UNK N   1      30.097  17.073   6.592  0.00  0.00     0.047 A 
ENDROOT
BRANCH   2   8
HETATM    8  C   UNK N   1      33.898  17.706   8.589  0.00  0.00     0.065 C 
BRANCH   8   9
HETATM    9  C   UNK N   1      34.329  16.592   9.549  0.00  0.00     0.074 C 
HETATM   10  C   UNK N   1      35.180  15.538   8.861  0.00  0.00     0.032 C 
BRANCH   9  11
HETATM   11  N   UNK N   1      35.110  17.180  10.621  0.00  0.00    -0.426 N 
HETATM   12  H   UNK N   1      35.399  18.157  10.567  0.00  0.00     0.150 HD
HETATM   13  H   UNK N   1      35.371  16.616  11.430  0.00  0.00     0.150 HD
ENDBRANCH   9  11
ENDBRANCH   8   9
ENDBRANCH   2   8
BRANCH   3  14
HETATM   14  O   UNK N   1      33.627  17.111   5.657  0.00  0.00    -0.355 OA
HETATM   15  C   UNK N   1      34.261  15.953   5.275  0.00  0.00     0.210 C 
ENDBRANCH   3  14
BRANCH   5  16
HETATM   16  O   UNK N   1      29.058  17.474   8.792  0.00  0.00    -0.355 OA
HETATM   17  C   UNK N   1      28.221  18.553   8.927  0.00  0.00     0.210 C 
ENDBRANCH   5  16
TORSDOF 5
ENDMDL
MODEL 4
REMARK VINA RESULT:      -4.5      2.136      2.668
REMARK  5 active torsions:
REMARK  status: ('A' for Active; 'I' for Inactive)
REMARK    1  A    between atoms: O_2  and  C_8 
REMARK    2  A    between atoms: O_3  and  C_11 
REMARK    3  A    between atoms: N_4  and  C_6 
REMARK    4  A    between atoms: C_5  and  C_6 
REMARK    5  A    between atoms: C_5  and  C_7 
ROOT
HETATM    1 Br   UNK N   1      28.170  21.423  -7.905  0.00  0.00    -0.048 Br
HETATM    2  C   UNK N   1      26.733  24.666  -4.757  0.00  0.00    -0.020 A 
HETATM    3  C   UNK N   1      28.108  24.345  -4.940  0.00  0.00     0.076 A 
HETATM    4  C   UNK N   1      25.777  24.008  -5.542  0.00  0.00     0.048 A 
HETATM    5  C   UNK N   1      26.120  23.045  -6.490  0.00  0.00     0.086 A 
HETATM    6  C   UNK N   1      28.453  23.380  -5.891  0.00  0.00     0.059 A 
HETATM    7  C   UNK N   1      27.493  22.724  -6.666  0.00  0.00     0.047 A 
ENDROOT
BRANCH   2   8
HETATM    8  C   UNK N   1      26.271  25.660  -3.713  0.00  0.00     0.065 C 
BRANCH   8   9
HETATM    9  C   UNK N   1      26.209  27.132  -4.132  0.00  0.00     0.074 C 
HETATM   10  C   UNK N   1      25.137  27.388  -5.178  0.00  0.00     0.032 C 
BRANCH   9  11
HETATM   11  N   UNK N   1      25.906  27.936  -2.963  0.00  0.00    -0.426 N 
HETATM   12  H   UNK N   1      25.012  28.424  -2.897  0.00  0.00     0.150 HD
HETATM   13  H   UNK N   1      26.586  28.014  -2.207  0.00  0.00     0.150 HD
ENDBRANCH   9  11
ENDBRANCH   8   9
ENDBRANCH   2   8
BRANCH   3  14
HETATM   14  O   UNK N   1      29.131  24.912  -4.243  0.00  0.00    -0.355 OA
HETATM   15  C   UNK N   1      30.262  24.280  -3.786  0.00  0.00     0.210 C 
ENDBRANCH   3  14
BRANCH   5  16
HETATM   16  O   UNK N   1      25.093  22.477  -7.178  0.00  0.00    -0.355 OA
HETATM   17  C   UNK N   1      24.481  21.278  -6.906  0.00  0.00     0.210 C 
ENDBRANCH   5  16
TORSDOF 5
ENDMDL
MODEL 5
REMARK VINA RESULT:      -4.4     14.021     16.488
REMARK  5 active torsions:
REMARK  status: ('A' for Active; 'I' for Inactive)
REMARK    1  A    between atoms: O_2  and  C_8 
REMARK    2  A    between atoms: O_3  and  C_11 
REMARK    3  A    between atoms: N_4  and  C_6 
REMARK    4  A    between atoms: C_5  and  C_6 
REMARK    5  A    between atoms: C_5  and  C_7 
ROOT
HETATM    1 Br   UNK N   1      34.558  17.213   9.038  0.00  0.00    -0.048 Br
HETATM    2  C   UNK N   1      30.558  17.172   6.490  0.00  0.00    -0.020 A 
HETATM    3  C   UNK N   1      30.556  17.362   7.901  0.00  0.00     0.076 A 
HETATM    4  C   UNK N   1      31.785  17.002   5.836  0.00  0.00     0.048 A 
HETATM    5  C   UNK N   1      33.003  17.005   6.514  0.00  0.00     0.086 A 
HETATM    6  C   UNK N   1      31.777  17.366   8.582  0.00  0.00     0.059 A 
HETATM    7  C   UNK N   1      32.996  17.190   7.923  0.00  0.00     0.047 A 
ENDROOT
BRANCH   2   8
HETATM    8  C   UNK N   1      29.278  17.103   5.686  0.00  0.00     0.065 C 
BRANCH   8   9
HETATM    9  C   UNK N   1      28.450  18.387   5.583  0.00  0.00     0.074 C 
HETATM   10  C   UNK N   1      27.846  18.573   4.201  0.00  0.00     0.032 C 
BRANCH   9  11
HETATM   11  N   UNK N   1      27.368  18.321   6.548  0.00  0.00    -0.426 N 
HETATM   12  H   UNK N   1      27.355  18.957   7.346  0.00  0.00     0.150 HD
HETATM   13  H   UNK N   1      26.620  17.638   6.429  0.00  0.00     0.150 HD
ENDBRANCH   9  11
ENDBRANCH   8   9
ENDBRANCH   2   8
BRANCH   3  14
HETATM   14  O   UNK N   1      29.435  17.539   8.653  0.00  0.00    -0.355 OA
HETATM   15  C   UNK N   1      29.253  18.467   9.651  0.00  0.00     0.210 C 
ENDBRANCH   3  14
BRANCH   5  16
HETATM   16  O   UNK N   1      34.119  16.821   5.758  0.00  0.00    -0.355 OA
HETATM   17  C   UNK N   1      34.665  15.622   5.371  0.00  0.00     0.210 C 
ENDBRANCH   5  16
TORSDOF 5
ENDMDL
MODEL 6
REMARK VINA RESULT:      -4.4     15.060     16.648
REMARK  5 active torsions:
REMARK  status: ('A' for Active; 'I' for Inactive)
REMARK    1  A    between atoms: O_2  and  C_8 
REMARK    2  A    between atoms: O_3  and  C_11 
REMARK    3  A    between atoms: N_4  and  C_6 
REMARK    4  A    between atoms: C_5  and  C_6 
REMARK    5  A    between atoms: C_5  and  C_7 
ROOT
HETATM    1 Br   UNK N   1      28.580  16.913   4.300  0.00  0.00    -0.048 Br
HETATM    2  C   UNK N   1      32.279  17.518   7.205  0.00  0.00    -0.020 A 
HETATM    3  C   UNK N   1      30.936  17.525   7.677  0.00  0.00     0.076 A 
HETATM    4  C   UNK N   1      32.512  17.317   5.838  0.00  0.00     0.048 A 
HETATM    5  C   UNK N   1      31.478  17.129   4.922  0.00  0.00     0.086 A 
HETATM    6  C   UNK N   1      29.899  17.335   6.759  0.00  0.00     0.059 A 
HETATM    7  C   UNK N   1      30.139  17.140   5.397  0.00  0.00     0.047 A 
ENDROOT
BRANCH   2   8
HETATM    8  C   UNK N   1      33.456  17.767   8.123  0.00  0.00     0.065 C 
BRANCH   8   9
HETATM    9  C   UNK N   1      33.910  16.601   9.006  0.00  0.00     0.074 C 
HETATM   10  C   UNK N   1      34.793  15.620   8.254  0.00  0.00     0.032 C 
BRANCH   9  11
HETATM   11  N   UNK N   1      34.668  17.131  10.125  0.00  0.00    -0.426 N 
HETATM   12  H   UNK N   1      35.276  16.516  10.667  0.00  0.00     0.150 HD
HETATM   13  H   UNK N   1      34.593  18.118  10.369  0.00  0.00     0.150 HD
ENDBRANCH   9  11
ENDBRANCH   8   9
ENDBRANCH   2   8
BRANCH   3  14
HETATM   14  O   UNK N   1      30.577  17.709   8.978  0.00  0.00    -0.355 OA
HETATM   15  C   UNK N   1      29.329  18.041   9.446  0.00  0.00     0.210 C 
ENDBRANCH   3  14
BRANCH   5  16
HETATM   16  O   UNK N   1      31.842  16.952   3.623  0.00  0.00    -0.355 OA
HETATM   17  C   UNK N   1      33.059  16.517   3.159  0.00  0.00     0.210 C 
ENDBRANCH   5  16
TORSDOF 5
ENDMDL
MODEL 7
REMARK VINA RESULT:      -4.4      2.894      5.786
REMARK  5 active torsions:
REMARK  status: ('A' for Active; 'I' for Inactive)
REMARK    1  A    between atoms: O_2  and  C_8 
REMARK    2  A    between atoms: O_3  and  C_11 
REMARK    3  A    between atoms: N_4  and  C_6 
REMARK    4  A    between atoms: C_5  and  C_6 
REMARK    5  A    between atoms: C_5  and  C_7 
ROOT
HETATM    1 Br   UNK N   1      25.468  27.795  -4.407  0.00  0.00    -0.048 Br
HETATM    2  C   UNK N   1      26.290  23.764  -6.766  0.00  0.00    -0.020 A 
HETATM    3  C   UNK N   1      25.828  24.942  -7.418  0.00  0.00     0.076 A 
HETATM    4  C   UNK N   1      26.516  23.803  -5.384  0.00  0.00     0.048 A 
HETATM    5  C   UNK N   1      26.301  24.950  -4.622  0.00  0.00     0.086 A 
HETATM    6  C   UNK N   1      25.613  26.093  -6.654  0.00  0.00     0.059 A 
HETATM    7  C   UNK N   1      25.836  26.123  -5.276  0.00  0.00     0.047 A 
ENDROOT
BRANCH   2   8
HETATM    8  C   UNK N   1      26.498  22.462  -7.510  0.00  0.00     0.065 C 
BRANCH   8   9
HETATM    9  C   UNK N   1      25.243  21.691  -7.930  0.00  0.00     0.074 C 
HETATM   10  C   UNK N   1      25.535  20.227  -8.212  0.00  0.00     0.032 C 
BRANCH   9  11
HETATM   11  N   UNK N   1      24.271  21.763  -6.854  0.00  0.00    -0.426 N 
HETATM   12  H   UNK N   1      23.273  21.736  -7.065  0.00  0.00     0.150 HD
HETATM   13  H   UNK N   1      24.585  21.841  -5.887  0.00  0.00     0.150 HD
ENDBRANCH   9  11
ENDBRANCH   8   9
ENDBRANCH   2   8
BRANCH   3  14
HETATM   14  O   UNK N   1      25.572  25.035  -8.752  0.00  0.00    -0.355 OA
HETATM   15  C   UNK N   1      25.839  26.109  -9.567  0.00  0.00     0.210 C 
ENDBRANCH   3  14
BRANCH   5  16
HETATM   16  O   UNK N   1      26.552  24.850  -3.289  0.00  0.00    -0.355 OA
HETATM   17  C   UNK N   1      27.490  24.050  -2.684  0.00  0.00     0.210 C 
ENDBRANCH   5  16
TORSDOF 5
ENDMDL
MODEL 8
REMARK VINA RESULT:      -4.4     13.252     15.870
REMARK  5 active torsions:
REMARK  status: ('A' for Active; 'I' for Inactive)
REMARK    1  A    between atoms: O_2  and  C_8 
REMARK    2  A    between atoms: O_3  and  C_11 
REMARK    3  A    between atoms: N_4  and  C_6 
REMARK    4  A    between atoms: C_5  and  C_6 
REMARK    5  A    between atoms: C_5  and  C_7 
ROOT
HETATM    1 Br   UNK N   1      32.651  17.214   3.583  0.00  0.00    -0.048 Br
HETATM    2  C   UNK N   1      29.415  17.023   7.045  0.00  0.00    -0.020 A 
HETATM    3  C   UNK N   1      29.149  17.645   5.793  0.00  0.00     0.076 A 
HETATM    4  C   UNK N   1      30.672  16.441   7.254  0.00  0.00     0.048 A 
HETATM    5  C   UNK N   1      31.675  16.454   6.285  0.00  0.00     0.086 A 
HETATM    6  C   UNK N   1      30.153  17.657   4.820  0.00  0.00     0.059 A 
HETATM    7  C   UNK N   1      31.406  17.080   5.038  0.00  0.00     0.047 A 
ENDROOT
BRANCH   2   8
HETATM    8  C   UNK N   1      28.402  17.012   8.170  0.00  0.00     0.065 C 
BRANCH   8   9
HETATM    9  C   UNK N   1      28.378  18.231   9.097  0.00  0.00     0.074 C 
HETATM   10  C   UNK N   1      29.764  18.811   9.321  0.00  0.00     0.032 C 
BRANCH   9  11
HETATM   11  N   UNK N   1      27.546  19.257   8.495  0.00  0.00    -0.426 N 
HETATM   12  H   UNK N   1      27.127  19.101   7.578  0.00  0.00     0.150 HD
HETATM   13  H   UNK N   1      27.381  20.134   8.989  0.00  0.00     0.150 HD
ENDBRANCH   9  11
ENDBRANCH   8   9
ENDBRANCH   2   8
BRANCH   3  14
HETATM   14  O   UNK N   1      27.971  18.244   5.465  0.00  0.00    -0.355 OA
HETATM   15  C   UNK N   1      27.810  19.488   4.902  0.00  0.00     0.210 C 
ENDBRANCH   3  14
BRANCH   5  16
HETATM   16  O   UNK N   1      32.851  15.860   6.621  0.00  0.00    -0.355 OA
HETATM   17  C   UNK N   1      33.986  16.480   7.082  0.00  0.00     0.210 C 
ENDBRANCH   5  16
TORSDOF 5
ENDMDL
MODEL 9
REMARK VINA RESULT:      -4.3     12.797     14.717
REMARK  5 active torsions:
REMARK  status: ('A' for Active; 'I' for Inactive)
REMARK    1  A    between atoms: O_2  and  C_8 
REMARK    2  A    between atoms: O_3  and  C_11 
REMARK    3  A    between atoms: N_4  and  C_6 
REMARK    4  A    between atoms: C_5  and  C_6 
REMARK    5  A    between atoms: C_5  and  C_7 
ROOT
HETATM    1 Br   UNK N   1      25.956  20.464   3.087  0.00  0.00    -0.048 Br
HETATM    2  C   UNK N   1      28.571  18.631   6.593  0.00  0.00    -0.020 A 
HETATM    3  C   UNK N   1      28.578  18.086   5.278  0.00  0.00     0.076 A 
HETATM    4  C   UNK N   1      27.771  19.751   6.854  0.00  0.00     0.048 A 
HETATM    5  C   UNK N   1      26.977  20.349   5.876  0.00  0.00     0.086 A 
HETATM    6  C   UNK N   1      27.783  18.685   4.297  0.00  0.00     0.059 A 
HETATM    7  C   UNK N   1      26.984  19.798   4.566  0.00  0.00     0.047 A 
ENDROOT
BRANCH   2   8
HETATM    8  C   UNK N   1      29.362  18.011   7.725  0.00  0.00     0.065 C 
BRANCH   8   9
HETATM    9  C   UNK N   1      28.806  18.187   9.142  0.00  0.00     0.074 C 
HETATM   10  C   UNK N   1      27.860  17.064   9.531  0.00  0.00     0.032 C 
BRANCH   9  11
HETATM   11  N   UNK N   1      29.914  18.195  10.079  0.00  0.00    -0.426 N 
HETATM   12  H   UNK N   1      29.982  17.471  10.796  0.00  0.00     0.150 HD
HETATM   13  H   UNK N   1      30.626  18.923  10.021  0.00  0.00     0.150 HD
ENDBRANCH   9  11
ENDBRANCH   8   9
ENDBRANCH   2   8
BRANCH   3  14
HETATM   14  O   UNK N   1      29.310  17.003   4.896  0.00  0.00    -0.355 OA
HETATM   15  C   UNK N   1      28.828  15.830   4.368  0.00  0.00     0.210 C 
ENDBRANCH   3  14
BRANCH   5  16
HETATM   16  O   UNK N   1      26.243  21.425   6.265  0.00  0.00    -0.355 OA
HETATM   17  C   UNK N   1      25.859  21.744   7.544  0.00  0.00     0.210 C 
ENDBRANCH   5  16
TORSDOF 5
ENDMDL
