MODEL 1
REMARK VINA RESULT:      -5.2      0.000      0.000
REMARK  4 active torsions:
REMARK  status: ('A' for Active; 'I' for Inactive)
REMARK    1  A    between atoms: C_3  and  O_1 
REMARK    2  A    between atoms: C_4  and  N_2 
REMARK    3  A    between atoms: C_3  and  C_4 
REMARK    4  A    between atoms: C_3  and  C_5 
ROOT
HETATM    1  C   UNK N   1      35.458  13.207  15.435  0.00  0.00     0.173 C 
ENDROOT
BRANCH   1   2
HETATM    2  O   UNK N   1      34.416  12.847  14.579  0.00  0.00    -0.389 OA
HETATM    3  H   UNK N   1      33.503  13.093  14.796  0.00  0.00     0.210 HD
ENDBRANCH   1   2
BRANCH   1   4
HETATM    4  C   UNK N   1      36.537  14.147  14.883  0.00  0.00     0.103 C 
HETATM    5  C   UNK N   1      37.310  15.164  15.702  0.00  0.00     0.034 C 
BRANCH   4   6
HETATM    6  N   UNK N   1      36.853  14.067  13.468  0.00  0.00    -0.424 N 
HETATM    7  H   UNK N   1      36.210  13.603  12.827  0.00  0.00     0.150 HD
HETATM    8  H   UNK N   1      37.719  14.475  13.115  0.00  0.00     0.150 HD
ENDBRANCH   4   6
ENDBRANCH   1   4
BRANCH   1   9
HETATM    9  C   UNK N   1      35.447  12.648  16.834  0.00  0.00    -0.028 A 
HETATM   10  C   UNK N   1      35.127  13.465  17.924  0.00  0.00     0.010 A 
HETATM   11  C   UNK N   1      35.116  12.950  19.221  0.00  0.00     0.001 A 
HETATM   12  C   UNK N   1      35.428  11.606  19.438  0.00  0.00     0.000 A 
HETATM   13  C   UNK N   1      35.749  10.780  18.356  0.00  0.00     0.001 A 
HETATM   14  C   UNK N   1      35.760  11.298  17.057  0.00  0.00     0.010 A 
ENDBRANCH   1   9
TORSDOF 4
ENDMDL
MODEL 2
REMARK VINA RESULT:      -5.1      8.835     11.119
REMARK  4 active torsions:
REMARK  status: ('A' for Active; 'I' for Inactive)
REMARK    1  A    between atoms: C_3  and  O_1 
REMARK    2  A    between atoms: C_4  and  N_2 
REMARK    3  A    between atoms: C_3  and  C_4 
REMARK    4  A    between atoms: C_3  and  C_5 
ROOT
HETATM    1  C   UNK N   1      34.410  17.828   8.325  0.00  0.00     0.173 C 
ENDROOT
BRANCH   1   2
HETATM    2  O   UNK N   1      35.019  19.083   8.378  0.00  0.00    -0.389 OA
HETATM    3  H   UNK N   1      35.761  19.288   7.788  0.00  0.00     0.210 HD
ENDBRANCH   1   2
BRANCH   1   4
HETATM    4  C   UNK N   1      34.863  16.777   9.347  0.00  0.00     0.103 C 
HETATM    5  C   UNK N   1      35.085  15.307   9.045  0.00  0.00     0.034 C 
BRANCH   4   6
HETATM    6  N   UNK N   1      35.100  17.210  10.712  0.00  0.00    -0.424 N 
HETATM    7  H   UNK N   1      35.981  16.982  11.173  0.00  0.00     0.150 HD
HETATM    8  H   UNK N   1      34.386  17.741  11.211  0.00  0.00     0.150 HD
ENDBRANCH   4   6
ENDBRANCH   1   4
BRANCH   1   9
HETATM    9  C   UNK N   1      33.357  17.597   7.273  0.00  0.00    -0.028 A 
HETATM   10  C   UNK N   1      33.701  17.569   5.917  0.00  0.00     0.010 A 
HETATM   11  C   UNK N   1      32.728  17.356   4.940  0.00  0.00     0.001 A 
HETATM   12  C   UNK N   1      31.396  17.168   5.314  0.00  0.00     0.000 A 
HETATM   13  C   UNK N   1      31.040  17.194   6.667  0.00  0.00     0.001 A 
HETATM   14  C   UNK N   1      32.017  17.408   7.645  0.00  0.00     0.010 A 
ENDBRANCH   1   9
TORSDOF 4
ENDMDL
MODEL 3
REMARK VINA RESULT:      -5.1      0.521      1.548
REMARK  4 active torsions:
REMARK  status: ('A' for Active; 'I' for Inactive)
REMARK    1  A    between atoms: C_3  and  O_1 
REMARK    2  A    between atoms: C_4  and  N_2 
REMARK    3  A    between atoms: C_3  and  C_4 
REMARK    4  A    between atoms: C_3  and  C_5 
ROOT
HETATM    1  C   UNK N   1      35.423  13.089  15.842  0.00  0.00     0.173 C 
ENDROOT
BRANCH   1   2
HETATM    2  O   UNK N   1      34.266  12.959  15.070  0.00  0.00    -0.389 OA
HETATM    3  H   UNK N   1      33.600  13.663  15.073  0.00  0.00     0.210 HD
ENDBRANCH   1   2
BRANCH   1   4
HETATM    4  C   UNK N   1      36.623  13.800  15.206  0.00  0.00     0.103 C 
HETATM    5  C   UNK N   1      37.244  15.088  15.714  0.00  0.00     0.034 C 
BRANCH   4   6
HETATM    6  N   UNK N   1      37.222  13.206  14.023  0.00  0.00    -0.424 N 
HETATM    7  H   UNK N   1      36.673  13.107  13.169  0.00  0.00     0.150 HD
HETATM    8  H   UNK N   1      38.191  12.888  14.047  0.00  0.00     0.150 HD
ENDBRANCH   4   6
ENDBRANCH   1   4
BRANCH   1   9
HETATM    9  C   UNK N   1      35.408  12.523  17.237  0.00  0.00    -0.028 A 
HETATM   10  C   UNK N   1      35.640  11.160  17.455  0.00  0.00     0.010 A 
HETATM   11  C   UNK N   1      35.626  10.632  18.747  0.00  0.00     0.001 A 
HETATM   12  C   UNK N   1      35.380  11.469  19.837  0.00  0.00     0.000 A 
HETATM   13  C   UNK N   1      35.147  12.833  19.632  0.00  0.00     0.001 A 
HETATM   14  C   UNK N   1      35.161  13.360  18.336  0.00  0.00     0.010 A 
ENDBRANCH   1   9
TORSDOF 4
ENDMDL
MODEL 4
REMARK VINA RESULT:      -4.8      1.698      2.348
REMARK  4 active torsions:
REMARK  status: ('A' for Active; 'I' for Inactive)
REMARK    1  A    between atoms: C_3  and  O_1 
REMARK    2  A    between atoms: C_4  and  N_2 
REMARK    3  A    between atoms: C_3  and  C_4 
REMARK    4  A    between atoms: C_3  and  C_5 
ROOT
HETATM    1  C   UNK N   1      35.797  12.379  15.008  0.00  0.00     0.173 C 
ENDROOT
BRANCH   1   2
HETATM    2  O   UNK N   1      36.999  12.875  14.499  0.00  0.00    -0.389 OA
HETATM    3  H   UNK N   1      37.236  12.714  13.572  0.00  0.00     0.210 HD
ENDBRANCH   1   2
BRANCH   1   4
HETATM    4  C   UNK N   1      34.746  11.894  14.002  0.00  0.00     0.103 C 
HETATM    5  C   UNK N   1      33.766  10.761  14.242  0.00  0.00     0.034 C 
BRANCH   4   6
HETATM    6  N   UNK N   1      34.673  12.563  12.715  0.00  0.00    -0.424 N 
HETATM    7  H   UNK N   1      33.851  13.118  12.475  0.00  0.00     0.150 HD
HETATM    8  H   UNK N   1      35.443  12.478  12.052  0.00  0.00     0.150 HD
ENDBRANCH   4   6
ENDBRANCH   1   4
BRANCH   1   9
HETATM    9  C   UNK N   1      35.621  12.355  16.504  0.00  0.00    -0.028 A 
HETATM   10  C   UNK N   1      35.307  13.527  17.202  0.00  0.00     0.010 A 
HETATM   11  C   UNK N   1      35.143  13.508  18.588  0.00  0.00     0.001 A 
HETATM   12  C   UNK N   1      35.294  12.311  19.290  0.00  0.00     0.000 A 
HETATM   13  C   UNK N   1      35.608  11.134  18.603  0.00  0.00     0.001 A 
HETATM   14  C   UNK N   1      35.772  11.154  17.214  0.00  0.00     0.010 A 
ENDBRANCH   1   9
TORSDOF 4
ENDMDL
MODEL 5
REMARK VINA RESULT:      -4.8      1.638      2.495
REMARK  4 active torsions:
REMARK  status: ('A' for Active; 'I' for Inactive)
REMARK    1  A    between atoms: C_3  and  O_1 
REMARK    2  A    between atoms: C_4  and  N_2 
REMARK    3  A    between atoms: C_3  and  C_4 
REMARK    4  A    between atoms: C_3  and  C_5 
ROOT
HETATM    1  C   UNK N   1      36.589  13.959  15.052  0.00  0.00     0.173 C 
ENDROOT
BRANCH   1   2
HETATM    2  O   UNK N   1      37.605  14.859  15.380  0.00  0.00    -0.389 OA
HETATM    3  H   UNK N   1      37.392  15.788  15.557  0.00  0.00     0.210 HD
ENDBRANCH   1   2
BRANCH   1   4
HETATM    4  C   UNK N   1      36.023  14.018  13.628  0.00  0.00     0.103 C 
HETATM    5  C   UNK N   1      35.104  12.980  13.011  0.00  0.00     0.034 C 
BRANCH   4   6
HETATM    6  N   UNK N   1      36.389  15.149  12.793  0.00  0.00    -0.424 N 
HETATM    7  H   UNK N   1      36.200  16.100  13.112  0.00  0.00     0.150 HD
HETATM    8  H   UNK N   1      36.835  14.993  11.889  0.00  0.00     0.150 HD
ENDBRANCH   4   6
ENDBRANCH   1   4
BRANCH   1   9
HETATM    9  C   UNK N   1      36.123  13.001  16.116  0.00  0.00    -0.028 A 
HETATM   10  C   UNK N   1      36.347  11.626  15.983  0.00  0.00     0.010 A 
HETATM   11  C   UNK N   1      35.916  10.736  16.968  0.00  0.00     0.001 A 
HETATM   12  C   UNK N   1      35.255  11.217  18.099  0.00  0.00     0.000 A 
HETATM   13  C   UNK N   1      35.025  12.589  18.243  0.00  0.00     0.001 A 
HETATM   14  C   UNK N   1      35.457  13.480  17.255  0.00  0.00     0.010 A 
ENDBRANCH   1   9
TORSDOF 4
ENDMDL
MODEL 6
REMARK VINA RESULT:      -4.7     12.471     14.257
REMARK  4 active torsions:
REMARK  status: ('A' for Active; 'I' for Inactive)
REMARK    1  A    between atoms: C_3  and  O_1 
REMARK    2  A    between atoms: C_4  and  N_2 
REMARK    3  A    between atoms: C_3  and  C_4 
REMARK    4  A    between atoms: C_3  and  C_5 
ROOT
HETATM    1  C   UNK N   1      28.319  18.572   8.193  0.00  0.00     0.173 C 
ENDROOT
BRANCH   1   2
HETATM    2  O   UNK N   1      27.311  18.405   9.145  0.00  0.00    -0.389 OA
HETATM    3  H   UNK N   1      27.224  17.561   9.616  0.00  0.00     0.210 HD
ENDBRANCH   1   2
BRANCH   1   4
HETATM    4  C   UNK N   1      29.746  18.179   8.594  0.00  0.00     0.103 C 
HETATM    5  C   UNK N   1      30.708  17.386   7.730  0.00  0.00     0.034 C 
BRANCH   4   6
HETATM    6  N   UNK N   1      30.226  18.592   9.901  0.00  0.00    -0.424 N 
HETATM    7  H   UNK N   1      29.701  18.342  10.740  0.00  0.00     0.150 HD
HETATM    8  H   UNK N   1      31.088  19.131   9.981  0.00  0.00     0.150 HD
ENDBRANCH   4   6
ENDBRANCH   1   4
BRANCH   1   9
HETATM    9  C   UNK N   1      27.933  19.125   6.846  0.00  0.00    -0.028 A 
HETATM   10  C   UNK N   1      27.968  18.312   5.707  0.00  0.00     0.010 A 
HETATM   11  C   UNK N   1      27.611  18.822   4.458  0.00  0.00     0.001 A 
HETATM   12  C   UNK N   1      27.214  20.155   4.338  0.00  0.00     0.000 A 
HETATM   13  C   UNK N   1      27.175  20.977   5.469  0.00  0.00     0.001 A 
HETATM   14  C   UNK N   1      27.533  20.465   6.721  0.00  0.00     0.010 A 
ENDBRANCH   1   9
TORSDOF 4
ENDMDL
MODEL 7
REMARK VINA RESULT:      -4.7     11.208     12.787
REMARK  4 active torsions:
REMARK  status: ('A' for Active; 'I' for Inactive)
REMARK    1  A    between atoms: C_3  and  O_1 
REMARK    2  A    between atoms: C_4  and  N_2 
REMARK    3  A    between atoms: C_3  and  C_4 
REMARK    4  A    between atoms: C_3  and  C_5 
ROOT
HETATM    1  C   UNK N   1      28.143  18.713   8.191  0.00  0.00     0.173 C 
ENDROOT
BRANCH   1   2
HETATM    2  O   UNK N   1      27.441  18.300   9.325  0.00  0.00    -0.389 OA
HETATM    3  H   UNK N   1      27.200  18.946  10.008  0.00  0.00     0.210 HD
ENDBRANCH   1   2
BRANCH   1   4
HETATM    4  C   UNK N   1      27.484  19.767   7.294  0.00  0.00     0.103 C 
HETATM    5  C   UNK N   1      27.855  20.038   5.848  0.00  0.00     0.034 C 
BRANCH   4   6
HETATM    6  N   UNK N   1      26.419  20.577   7.860  0.00  0.00    -0.424 N 
HETATM    7  H   UNK N   1      25.706  20.980   7.251  0.00  0.00     0.150 HD
HETATM    8  H   UNK N   1      26.383  20.742   8.865  0.00  0.00     0.150 HD
ENDBRANCH   4   6
ENDBRANCH   1   4
BRANCH   1   9
HETATM    9  C   UNK N   1      29.492  18.095   7.932  0.00  0.00    -0.028 A 
HETATM   10  C   UNK N   1      29.667  17.178   6.890  0.00  0.00     0.010 A 
HETATM   11  C   UNK N   1      30.916  16.605   6.648  0.00  0.00     0.001 A 
HETATM   12  C   UNK N   1      32.006  16.946   7.452  0.00  0.00     0.000 A 
HETATM   13  C   UNK N   1      31.843  17.861   8.497  0.00  0.00     0.001 A 
HETATM   14  C   UNK N   1      30.591  18.435   8.738  0.00  0.00     0.010 A 
ENDBRANCH   1   9
TORSDOF 4
ENDMDL
MODEL 8
REMARK VINA RESULT:      -4.7     13.302     14.592
REMARK  4 active torsions:
REMARK  status: ('A' for Active; 'I' for Inactive)
REMARK    1  A    between atoms: C_3  and  O_1 
REMARK    2  A    between atoms: C_4  and  N_2 
REMARK    3  A    between atoms: C_3  and  C_4 
REMARK    4  A    between atoms: C_3  and  C_5 
ROOT
HETATM    1  C   UNK N   1      24.039  12.202  10.826  0.00  0.00     0.173 C 
ENDROOT
BRANCH   1   2
HETATM    2  O   UNK N   1      25.166  12.298  11.645  0.00  0.00    -0.389 OA
HETATM    3  H   UNK N   1      26.022  12.549  11.264  0.00  0.00     0.210 HD
ENDBRANCH   1   2
BRANCH   1   4
HETATM    4  C   UNK N   1      22.676  12.048  11.512  0.00  0.00     0.103 C 
HETATM    5  C   UNK N   1      21.340  12.407  10.888  0.00  0.00     0.034 C 
BRANCH   4   6
HETATM    6  N   UNK N   1      22.647  11.519  12.864  0.00  0.00    -0.424 N 
HETATM    7  H   UNK N   1      23.486  11.554  13.443  0.00  0.00     0.150 HD
HETATM    8  H   UNK N   1      21.788  11.112  13.234  0.00  0.00     0.150 HD
ENDBRANCH   4   6
ENDBRANCH   1   4
BRANCH   1   9
HETATM    9  C   UNK N   1      24.243  12.256   9.335  0.00  0.00    -0.028 A 
HETATM   10  C   UNK N   1      23.767  11.227   8.514  0.00  0.00     0.010 A 
HETATM   11  C   UNK N   1      23.955  11.275   7.132  0.00  0.00     0.001 A 
HETATM   12  C   UNK N   1      24.624  12.358   6.558  0.00  0.00     0.000 A 
HETATM   13  C   UNK N   1      25.104  13.391   7.368  0.00  0.00     0.001 A 
HETATM   14  C   UNK N   1      24.915  13.342   8.753  0.00  0.00     0.010 A 
ENDBRANCH   1   9
TORSDOF 4
ENDMDL
MODEL 9
REMARK VINA RESULT:      -4.6     24.094     26.064
REMARK  4 active torsions:
REMARK  status: ('A' for Active; 'I' for Inactive)
REMARK    1  A    between atoms: C_3  and  O_1 
REMARK    2  A    between atoms: C_4  and  N_2 
REMARK    3  A    between atoms: C_3  and  C_4 
REMARK    4  A    between atoms: C_3  and  C_5 
ROOT
HETATM    1  C   UNK N   1      27.477  24.473  -3.472  0.00  0.00     0.173 C 
ENDROOT
BRANCH   1   2
HETATM    2  O   UNK N   1      26.992  23.755  -2.377  0.00  0.00    -0.389 OA
HETATM    3  H   UNK N   1      27.298  22.849  -2.218  0.00  0.00     0.210 HD
ENDBRANCH   1   2
BRANCH   1   4
HETATM    4  C   UNK N   1      28.871  24.110  -3.997  0.00  0.00     0.103 C 
HETATM    5  C   UNK N   1      30.179  24.643  -3.443  0.00  0.00     0.034 C 
BRANCH   4   6
HETATM    6  N   UNK N   1      28.961  23.184  -5.113  0.00  0.00    -0.424 N 
HETATM    7  H   UNK N   1      28.130  22.683  -5.428  0.00  0.00     0.150 HD
HETATM    8  H   UNK N   1      29.855  23.035  -5.581  0.00  0.00     0.150 HD
ENDBRANCH   4   6
ENDBRANCH   1   4
BRANCH   1   9
HETATM    9  C   UNK N   1      26.599  25.549  -4.056  0.00  0.00    -0.028 A 
HETATM   10  C   UNK N   1      25.928  25.341  -5.266  0.00  0.00     0.010 A 
HETATM   11  C   UNK N   1      25.114  26.336  -5.809  0.00  0.00     0.001 A 
HETATM   12  C   UNK N   1      24.963  27.553  -5.142  0.00  0.00     0.000 A 
HETATM   13  C   UNK N   1      25.629  27.772  -3.931  0.00  0.00     0.001 A 
HETATM   14  C   UNK N   1      26.445  26.774  -3.388  0.00  0.00     0.010 A 
ENDBRANCH   1   9
TORSDOF 4
ENDMDL
