MODEL 1
REMARK VINA RESULT:      -5.6      0.000      0.000
REMARK  10 active torsions:
REMARK  status: ('A' for Active; 'I' for Inactive)
REMARK    1  A    between atoms: O_1  and  C_15 
REMARK    2  A    between atoms: O_3  and  C_20 
REMARK    3  A    between atoms: N_4  and  C_8 
REMARK       I    between atoms: N_4  and  C_14 
REMARK    4  A    between atoms: C_5  and  C_6 
REMARK    5  A    between atoms: C_5  and  C_7 
REMARK    6  A    between atoms: C_5  and  C_8 
REMARK    7  A    between atoms: C_5  and  C_9 
REMARK    8  A    between atoms: C_14  and  C_17 
REMARK    9  A    between atoms: C_17  and  C_19 
REMARK   10  A    between atoms: C_19  and  C_20 
ROOT
HETATM    1  C   UNK N   1      35.913  12.298  14.553  0.00  0.00     0.002 C 
ENDROOT
BRANCH   1   2
HETATM    2  C   UNK N   1      37.281  11.903  13.941  0.00  0.00     0.012 C 
HETATM    3  C   UNK N   1      37.767  10.507  14.303  0.00  0.00     0.006 C 
ENDBRANCH   1   2
BRANCH   1   4
HETATM    4  C   UNK N   1      35.256  11.017  15.106  0.00  0.00     0.012 C 
HETATM    5  C   UNK N   1      33.831  10.777  14.620  0.00  0.00     0.006 C 
ENDBRANCH   1   4
BRANCH   1   6
HETATM    6  C   UNK N   1      34.957  12.855  13.473  0.00  0.00     0.137 C 
BRANCH   6   7
HETATM    7  N   UNK N   1      35.643  13.202  12.243  0.00  0.00    -0.360 N 
HETATM    8  C   UNK N   1      35.196  14.122  11.354  0.00  0.00     0.217 C 
HETATM    9  O   UNK N   1      34.172  14.754  11.568  0.00  0.00    -0.274 OA
HETATM   10  H   UNK N   1      36.487  12.739  12.040  0.00  0.00     0.162 HD
BRANCH   8  11
HETATM   11  C   UNK N   1      35.956  14.356  10.088  0.00  0.00     0.105 C 
BRANCH  11  12
HETATM   12  C   UNK N   1      36.721  13.103   9.696  0.00  0.00     0.035 C 
BRANCH  12  13
HETATM   13  C   UNK N   1      38.216  13.359   9.752  0.00  0.00     0.164 C 
BRANCH  13  14
HETATM   14  O   UNK N   1      38.654  13.309  11.075  0.00  0.00    -0.401 OA
HETATM   15  H   UNK N   1      38.395  12.617  11.703  0.00  0.00     0.209 HD
ENDBRANCH  13  14
ENDBRANCH  12  13
ENDBRANCH  11  12
ENDBRANCH   8  11
ENDBRANCH   6   7
ENDBRANCH   1   6
BRANCH   1  16
HETATM   16  C   UNK N   1      36.110  13.367  15.633  0.00  0.00    -0.045 A 
HETATM   17  C   UNK N   1      35.466  13.284  16.884  0.00  0.00     0.044 A 
HETATM   18  C   UNK N   1      35.692  14.243  17.877  0.00  0.00     0.068 A 
HETATM   19  C   UNK N   1      36.562  15.314  17.616  0.00  0.00     0.037 A 
HETATM   20  C   UNK N   1      37.193  15.420  16.377  0.00  0.00     0.003 A 
HETATM   21  C   UNK N   1      36.972  14.452  15.396  0.00  0.00     0.008 A 
BRANCH  18  22
HETATM   22  O   UNK N   1      35.076  14.107  19.075  0.00  0.00    -0.356 OA
HETATM   23  C   UNK N   1      35.013  12.914  19.759  0.00  0.00     0.210 C 
ENDBRANCH  18  22
ENDBRANCH   1  16
TORSDOF 10
ENDMDL
MODEL 2
REMARK VINA RESULT:      -5.6      5.893      9.654
REMARK  10 active torsions:
REMARK  status: ('A' for Active; 'I' for Inactive)
REMARK    1  A    between atoms: O_1  and  C_15 
REMARK    2  A    between atoms: O_3  and  C_20 
REMARK    3  A    between atoms: N_4  and  C_8 
REMARK       I    between atoms: N_4  and  C_14 
REMARK    4  A    between atoms: C_5  and  C_6 
REMARK    5  A    between atoms: C_5  and  C_7 
REMARK    6  A    between atoms: C_5  and  C_8 
REMARK    7  A    between atoms: C_5  and  C_9 
REMARK    8  A    between atoms: C_14  and  C_17 
REMARK    9  A    between atoms: C_17  and  C_19 
REMARK   10  A    between atoms: C_19  and  C_20 
ROOT
HETATM    1  C   UNK N   1      32.177  16.561   7.838  0.00  0.00     0.002 C 
ENDROOT
BRANCH   1   2
HETATM    2  C   UNK N   1      32.057  15.094   8.322  0.00  0.00     0.012 C 
HETATM    3  C   UNK N   1      32.662  14.057   7.385  0.00  0.00     0.006 C 
ENDBRANCH   1   2
BRANCH   1   4
HETATM    4  C   UNK N   1      32.695  16.538   6.385  0.00  0.00     0.012 C 
HETATM    5  C   UNK N   1      33.699  17.637   6.053  0.00  0.00     0.006 C 
ENDBRANCH   1   4
BRANCH   1   6
HETATM    6  C   UNK N   1      33.223  17.340   8.667  0.00  0.00     0.137 C 
BRANCH   6   7
HETATM    7  N   UNK N   1      33.921  16.499   9.621  0.00  0.00    -0.360 N 
HETATM    8  C   UNK N   1      35.102  16.823  10.203  0.00  0.00     0.217 C 
HETATM    9  O   UNK N   1      35.642  17.894   9.971  0.00  0.00    -0.274 OA
HETATM   10  H   UNK N   1      33.512  15.637   9.861  0.00  0.00     0.162 HD
BRANCH   8  11
HETATM   11  C   UNK N   1      35.760  15.850  11.128  0.00  0.00     0.105 C 
BRANCH  11  12
HETATM   12  C   UNK N   1      34.803  14.720  11.471  0.00  0.00     0.035 C 
BRANCH  12  13
HETATM   13  C   UNK N   1      35.297  13.961  12.688  0.00  0.00     0.164 C 
BRANCH  13  14
HETATM   14  O   UNK N   1      34.442  12.892  12.957  0.00  0.00    -0.401 OA
HETATM   15  H   UNK N   1      33.477  12.940  12.874  0.00  0.00     0.209 HD
ENDBRANCH  13  14
ENDBRANCH  12  13
ENDBRANCH  11  12
ENDBRANCH   8  11
ENDBRANCH   6   7
ENDBRANCH   1   6
BRANCH   1  16
HETATM   16  C   UNK N   1      30.824  17.268   7.964  0.00  0.00    -0.045 A 
HETATM   17  C   UNK N   1      29.876  17.246   6.922  0.00  0.00     0.044 A 
HETATM   18  C   UNK N   1      28.626  17.858   7.070  0.00  0.00     0.068 A 
HETATM   19  C   UNK N   1      28.319  18.518   8.271  0.00  0.00     0.037 A 
HETATM   20  C   UNK N   1      29.254  18.564   9.305  0.00  0.00     0.003 A 
HETATM   21  C   UNK N   1      30.493  17.941   9.155  0.00  0.00     0.008 A 
BRANCH  18  22
HETATM   22  O   UNK N   1      27.735  17.785   6.054  0.00  0.00    -0.356 OA
HETATM   23  C   UNK N   1      27.965  18.327   4.810  0.00  0.00     0.210 C 
ENDBRANCH  18  22
ENDBRANCH   1  16
TORSDOF 10
ENDMDL
MODEL 3
REMARK VINA RESULT:      -5.6      1.845      2.403
REMARK  10 active torsions:
REMARK  status: ('A' for Active; 'I' for Inactive)
REMARK    1  A    between atoms: O_1  and  C_15 
REMARK    2  A    between atoms: O_3  and  C_20 
REMARK    3  A    between atoms: N_4  and  C_8 
REMARK       I    between atoms: N_4  and  C_14 
REMARK    4  A    between atoms: C_5  and  C_6 
REMARK    5  A    between atoms: C_5  and  C_7 
REMARK    6  A    between atoms: C_5  and  C_8 
REMARK    7  A    between atoms: C_5  and  C_9 
REMARK    8  A    between atoms: C_14  and  C_17 
REMARK    9  A    between atoms: C_17  and  C_19 
REMARK   10  A    between atoms: C_19  and  C_20 
ROOT
HETATM    1  C   UNK N   1      35.808  11.797  15.226  0.00  0.00     0.002 C 
ENDROOT
BRANCH   1   2
HETATM    2  C   UNK N   1      37.314  11.562  14.944  0.00  0.00     0.012 C 
HETATM    3  C   UNK N   1      37.676  10.143  14.529  0.00  0.00     0.006 C 
ENDBRANCH   1   2
BRANCH   1   4
HETATM    4  C   UNK N   1      35.035  10.560  14.722  0.00  0.00     0.012 C 
HETATM    5  C   UNK N   1      33.531  10.766  14.589  0.00  0.00     0.006 C 
ENDBRANCH   1   4
BRANCH   1   6
HETATM    6  C   UNK N   1      35.272  13.008  14.429  0.00  0.00     0.137 C 
BRANCH   6   7
HETATM    7  N   UNK N   1      36.133  13.375  13.321  0.00  0.00    -0.360 N 
HETATM    8  C   UNK N   1      35.912  13.017  12.032  0.00  0.00     0.217 C 
HETATM    9  O   UNK N   1      34.922  12.371  11.722  0.00  0.00    -0.274 OA
HETATM   10  H   UNK N   1      36.930  13.919  13.516  0.00  0.00     0.162 HD
BRANCH   8  11
HETATM   11  C   UNK N   1      36.901  13.402  10.979  0.00  0.00     0.105 C 
BRANCH  11  12
HETATM   12  C   UNK N   1      36.205  14.145   9.851  0.00  0.00     0.035 C 
BRANCH  12  13
HETATM   13  C   UNK N   1      35.922  15.579  10.260  0.00  0.00     0.164 C 
BRANCH  13  14
HETATM   14  O   UNK N   1      37.051  16.129  10.866  0.00  0.00    -0.401 OA
HETATM   15  H   UNK N   1      37.201  16.133  11.825  0.00  0.00     0.209 HD
ENDBRANCH  13  14
ENDBRANCH  12  13
ENDBRANCH  11  12
ENDBRANCH   8  11
ENDBRANCH   6   7
ENDBRANCH   1   6
BRANCH   1  16
HETATM   16  C   UNK N   1      35.588  12.054  16.720  0.00  0.00    -0.045 A 
HETATM   17  C   UNK N   1      35.697  11.024  17.674  0.00  0.00     0.044 A 
HETATM   18  C   UNK N   1      35.538  11.284  19.040  0.00  0.00     0.068 A 
HETATM   19  C   UNK N   1      35.249  12.591  19.464  0.00  0.00     0.037 A 
HETATM   20  C   UNK N   1      35.120  13.619  18.530  0.00  0.00     0.003 A 
HETATM   21  C   UNK N   1      35.293  13.354  17.171  0.00  0.00     0.008 A 
BRANCH  18  22
HETATM   22  O   UNK N   1      35.682  10.268  19.923  0.00  0.00    -0.356 OA
HETATM   23  C   UNK N   1      36.554   9.221  19.732  0.00  0.00     0.210 C 
ENDBRANCH  18  22
ENDBRANCH   1  16
TORSDOF 10
ENDMDL
MODEL 4
REMARK VINA RESULT:      -5.6      1.511      2.483
REMARK  10 active torsions:
REMARK  status: ('A' for Active; 'I' for Inactive)
REMARK    1  A    between atoms: O_1  and  C_15 
REMARK    2  A    between atoms: O_3  and  C_20 
REMARK    3  A    between atoms: N_4  and  C_8 
REMARK       I    between atoms: N_4  and  C_14 
REMARK    4  A    between atoms: C_5  and  C_6 
REMARK    5  A    between atoms: C_5  and  C_7 
REMARK    6  A    between atoms: C_5  and  C_8 
REMARK    7  A    between atoms: C_5  and  C_9 
REMARK    8  A    between atoms: C_14  and  C_17 
REMARK    9  A    between atoms: C_17  and  C_19 
REMARK   10  A    between atoms: C_19  and  C_20 
ROOT
HETATM    1  C   UNK N   1      35.752  11.648  15.161  0.00  0.00     0.002 C 
ENDROOT
BRANCH   1   2
HETATM    2  C   UNK N   1      37.246  11.399  14.833  0.00  0.00     0.012 C 
HETATM    3  C   UNK N   1      37.638   9.935  14.695  0.00  0.00     0.006 C 
ENDBRANCH   1   2
BRANCH   1   4
HETATM    4  C   UNK N   1      34.973  10.362  14.819  0.00  0.00     0.012 C 
HETATM    5  C   UNK N   1      33.715  10.585  13.987  0.00  0.00     0.006 C 
ENDBRANCH   1   4
BRANCH   1   6
HETATM    6  C   UNK N   1      35.164  12.769  14.274  0.00  0.00     0.137 C 
BRANCH   6   7
HETATM    7  N   UNK N   1      36.117  13.275  13.304  0.00  0.00    -0.360 N 
HETATM    8  C   UNK N   1      35.877  13.363  11.973  0.00  0.00     0.217 C 
HETATM    9  O   UNK N   1      34.794  13.041  11.509  0.00  0.00    -0.274 OA
HETATM   10  H   UNK N   1      36.996  13.573  13.634  0.00  0.00     0.162 HD
BRANCH   8  11
HETATM   11  C   UNK N   1      36.958  13.845  11.059  0.00  0.00     0.105 C 
BRANCH  11  12
HETATM   12  C   UNK N   1      36.422  14.926  10.135  0.00  0.00     0.035 C 
BRANCH  12  13
HETATM   13  C   UNK N   1      35.946  16.120  10.941  0.00  0.00     0.164 C 
BRANCH  13  14
HETATM   14  O   UNK N   1      34.555  16.205  10.884  0.00  0.00    -0.401 OA
HETATM   15  H   UNK N   1      33.963  15.445  11.003  0.00  0.00     0.209 HD
ENDBRANCH  13  14
ENDBRANCH  12  13
ENDBRANCH  11  12
ENDBRANCH   8  11
ENDBRANCH   6   7
ENDBRANCH   1   6
BRANCH   1  16
HETATM   16  C   UNK N   1      35.597  12.052  16.630  0.00  0.00    -0.045 A 
HETATM   17  C   UNK N   1      35.483  13.401  17.021  0.00  0.00     0.044 A 
HETATM   18  C   UNK N   1      35.296  13.751  18.363  0.00  0.00     0.068 A 
HETATM   19  C   UNK N   1      35.237  12.741  19.337  0.00  0.00     0.037 A 
HETATM   20  C   UNK N   1      35.366  11.402  18.969  0.00  0.00     0.003 A 
HETATM   21  C   UNK N   1      35.539  11.061  17.627  0.00  0.00     0.008 A 
BRANCH  18  22
HETATM   22  O   UNK N   1      35.162  15.059  18.688  0.00  0.00    -0.356 OA
HETATM   23  C   UNK N   1      35.984  16.046  18.195  0.00  0.00     0.210 C 
ENDBRANCH  18  22
ENDBRANCH   1  16
TORSDOF 10
ENDMDL
MODEL 5
REMARK VINA RESULT:      -5.4      9.351     12.885
REMARK  10 active torsions:
REMARK  status: ('A' for Active; 'I' for Inactive)
REMARK    1  A    between atoms: O_1  and  C_15 
REMARK    2  A    between atoms: O_3  and  C_20 
REMARK    3  A    between atoms: N_4  and  C_8 
REMARK       I    between atoms: N_4  and  C_14 
REMARK    4  A    between atoms: C_5  and  C_6 
REMARK    5  A    between atoms: C_5  and  C_7 
REMARK    6  A    between atoms: C_5  and  C_8 
REMARK    7  A    between atoms: C_5  and  C_9 
REMARK    8  A    between atoms: C_14  and  C_17 
REMARK    9  A    between atoms: C_17  and  C_19 
REMARK   10  A    between atoms: C_19  and  C_20 
ROOT
HETATM    1  C   UNK N   1      28.789  17.217   5.774  0.00  0.00     0.002 C 
ENDROOT
BRANCH   1   2
HETATM    2  C   UNK N   1      27.822  16.093   5.325  0.00  0.00     0.012 C 
HETATM    3  C   UNK N   1      26.664  15.824   6.276  0.00  0.00     0.006 C 
ENDBRANCH   1   2
BRANCH   1   4
HETATM    4  C   UNK N   1      30.064  17.116   4.911  0.00  0.00     0.012 C 
HETATM    5  C   UNK N   1      29.926  16.226   3.681  0.00  0.00     0.006 C 
ENDBRANCH   1   4
BRANCH   1   6
HETATM    6  C   UNK N   1      29.232  17.021   7.241  0.00  0.00     0.137 C 
BRANCH   6   7
HETATM    7  N   UNK N   1      30.673  17.071   7.403  0.00  0.00    -0.360 N 
HETATM    8  C   UNK N   1      31.312  17.852   8.308  0.00  0.00     0.217 C 
HETATM    9  O   UNK N   1      30.683  18.555   9.084  0.00  0.00    -0.274 OA
HETATM   10  H   UNK N   1      31.222  16.501   6.818  0.00  0.00     0.162 HD
BRANCH   8  11
HETATM   11  C   UNK N   1      32.807  17.867   8.345  0.00  0.00     0.105 C 
BRANCH  11  12
HETATM   12  C   UNK N   1      33.356  16.511   7.936  0.00  0.00     0.035 C 
BRANCH  12  13
HETATM   13  C   UNK N   1      34.131  16.625   6.637  0.00  0.00     0.164 C 
BRANCH  13  14
HETATM   14  O   UNK N   1      34.314  17.969   6.313  0.00  0.00    -0.401 OA
HETATM   15  H   UNK N   1      33.588  18.579   6.109  0.00  0.00     0.209 HD
ENDBRANCH  13  14
ENDBRANCH  12  13
ENDBRANCH  11  12
ENDBRANCH   8  11
ENDBRANCH   6   7
ENDBRANCH   1   6
BRANCH   1  16
HETATM   16  C   UNK N   1      28.104  18.582   5.645  0.00  0.00    -0.045 A 
HETATM   17  C   UNK N   1      27.634  19.062   4.407  0.00  0.00     0.044 A 
HETATM   18  C   UNK N   1      26.970  20.289   4.314  0.00  0.00     0.068 A 
HETATM   19  C   UNK N   1      26.783  21.062   5.471  0.00  0.00     0.037 A 
HETATM   20  C   UNK N   1      27.259  20.610   6.702  0.00  0.00     0.003 A 
HETATM   21  C   UNK N   1      27.909  19.378   6.788  0.00  0.00     0.008 A 
BRANCH  18  22
HETATM   22  O   UNK N   1      26.508  20.697   3.107  0.00  0.00    -0.356 OA
HETATM   23  C   UNK N   1      25.253  20.387   2.637  0.00  0.00     0.210 C 
ENDBRANCH  18  22
ENDBRANCH   1  16
TORSDOF 10
ENDMDL
MODEL 6
REMARK VINA RESULT:      -5.4     20.901     24.015
REMARK  10 active torsions:
REMARK  status: ('A' for Active; 'I' for Inactive)
REMARK    1  A    between atoms: O_1  and  C_15 
REMARK    2  A    between atoms: O_3  and  C_20 
REMARK    3  A    between atoms: N_4  and  C_8 
REMARK       I    between atoms: N_4  and  C_14 
REMARK    4  A    between atoms: C_5  and  C_6 
REMARK    5  A    between atoms: C_5  and  C_7 
REMARK    6  A    between atoms: C_5  and  C_8 
REMARK    7  A    between atoms: C_5  and  C_9 
REMARK    8  A    between atoms: C_14  and  C_17 
REMARK    9  A    between atoms: C_17  and  C_19 
REMARK   10  A    between atoms: C_19  and  C_20 
ROOT
HETATM    1  C   UNK N   1      28.740  23.992  -4.221  0.00  0.00     0.002 C 
ENDROOT
BRANCH   1   2
HETATM    2  C   UNK N   1      29.553  23.658  -2.945  0.00  0.00     0.012 C 
HETATM    3  C   UNK N   1      28.741  23.064  -1.802  0.00  0.00     0.006 C 
ENDBRANCH   1   2
BRANCH   1   4
HETATM    4  C   UNK N   1      29.172  25.392  -4.703  0.00  0.00     0.012 C 
HETATM    5  C   UNK N   1      30.467  25.903  -4.081  0.00  0.00     0.006 C 
ENDBRANCH   1   4
BRANCH   1   6
HETATM    6  C   UNK N   1      27.227  24.078  -3.913  0.00  0.00     0.137 C 
BRANCH   6   7
HETATM    7  N   UNK N   1      26.650  25.353  -4.294  0.00  0.00    -0.360 N 
HETATM    8  C   UNK N   1      25.624  25.495  -5.169  0.00  0.00     0.217 C 
HETATM    9  O   UNK N   1      25.092  24.518  -5.675  0.00  0.00    -0.274 OA
HETATM   10  H   UNK N   1      27.027  26.168  -3.892  0.00  0.00     0.162 HD
BRANCH   8  11
HETATM   11  C   UNK N   1      25.149  26.866  -5.533  0.00  0.00     0.105 C 
BRANCH  11  12
HETATM   12  C   UNK N   1      26.240  27.889  -5.264  0.00  0.00     0.035 C 
BRANCH  12  13
HETATM   13  C   UNK N   1      25.882  28.735  -4.057  0.00  0.00     0.164 C 
BRANCH  13  14
HETATM   14  O   UNK N   1      25.489  27.911  -3.002  0.00  0.00    -0.401 OA
HETATM   15  H   UNK N   1      25.453  28.200  -2.077  0.00  0.00     0.209 HD
ENDBRANCH  13  14
ENDBRANCH  12  13
ENDBRANCH  11  12
ENDBRANCH   8  11
ENDBRANCH   6   7
ENDBRANCH   1   6
BRANCH   1  16
HETATM   16  C   UNK N   1      28.965  22.913  -5.285  0.00  0.00    -0.045 A 
HETATM   17  C   UNK N   1      29.957  21.923  -5.139  0.00  0.00     0.044 A 
HETATM   18  C   UNK N   1      30.119  20.917  -6.097  0.00  0.00     0.068 A 
HETATM   19  C   UNK N   1      29.290  20.904  -7.231  0.00  0.00     0.037 A 
HETATM   20  C   UNK N   1      28.315  21.887  -7.399  0.00  0.00     0.003 A 
HETATM   21  C   UNK N   1      28.151  22.880  -6.432  0.00  0.00     0.008 A 
BRANCH  18  22
HETATM   22  O   UNK N   1      31.066  19.969  -5.901  0.00  0.00    -0.356 OA
HETATM   23  C   UNK N   1      31.917  19.967  -4.819  0.00  0.00     0.210 C 
ENDBRANCH  18  22
ENDBRANCH   1  16
TORSDOF 10
ENDMDL
MODEL 7
REMARK VINA RESULT:      -5.4      6.020      9.760
REMARK  10 active torsions:
REMARK  status: ('A' for Active; 'I' for Inactive)
REMARK    1  A    between atoms: O_1  and  C_15 
REMARK    2  A    between atoms: O_3  and  C_20 
REMARK    3  A    between atoms: N_4  and  C_8 
REMARK       I    between atoms: N_4  and  C_14 
REMARK    4  A    between atoms: C_5  and  C_6 
REMARK    5  A    between atoms: C_5  and  C_7 
REMARK    6  A    between atoms: C_5  and  C_8 
REMARK    7  A    between atoms: C_5  and  C_9 
REMARK    8  A    between atoms: C_14  and  C_17 
REMARK    9  A    between atoms: C_17  and  C_19 
REMARK   10  A    between atoms: C_19  and  C_20 
ROOT
HETATM    1  C   UNK N   1      32.333  17.010   7.587  0.00  0.00     0.002 C 
ENDROOT
BRANCH   1   2
HETATM    2  C   UNK N   1      32.837  17.417   6.180  0.00  0.00     0.012 C 
HETATM    3  C   UNK N   1      33.194  16.254   5.264  0.00  0.00     0.006 C 
ENDBRANCH   1   2
BRANCH   1   4
HETATM    4  C   UNK N   1      33.285  17.633   8.628  0.00  0.00     0.012 C 
HETATM    5  C   UNK N   1      34.494  18.346   8.033  0.00  0.00     0.006 C 
ENDBRANCH   1   4
BRANCH   1   6
HETATM    6  C   UNK N   1      32.402  15.479   7.785  0.00  0.00     0.137 C 
BRANCH   6   7
HETATM    7  N   UNK N   1      33.216  15.098   8.924  0.00  0.00    -0.360 N 
HETATM    8  C   UNK N   1      34.445  14.535   8.830  0.00  0.00     0.217 C 
HETATM    9  O   UNK N   1      34.965  14.345   7.740  0.00  0.00    -0.274 OA
HETATM   10  H   UNK N   1      32.851  15.257   9.825  0.00  0.00     0.162 HD
BRANCH   8  11
HETATM   11  C   UNK N   1      35.169  14.128  10.073  0.00  0.00     0.105 C 
BRANCH  11  12
HETATM   12  C   UNK N   1      34.816  15.064  11.217  0.00  0.00     0.035 C 
BRANCH  12  13
HETATM   13  C   UNK N   1      35.656  16.325  11.144  0.00  0.00     0.164 C 
BRANCH  13  14
HETATM   14  O   UNK N   1      36.982  15.994  10.867  0.00  0.00    -0.401 OA
HETATM   15  H   UNK N   1      37.375  16.038   9.981  0.00  0.00     0.209 HD
ENDBRANCH  13  14
ENDBRANCH  12  13
ENDBRANCH  11  12
ENDBRANCH   8  11
ENDBRANCH   6   7
ENDBRANCH   1   6
BRANCH   1  16
HETATM   16  C   UNK N   1      30.882  17.465   7.777  0.00  0.00    -0.045 A 
HETATM   17  C   UNK N   1      29.876  17.146   6.843  0.00  0.00     0.044 A 
HETATM   18  C   UNK N   1      28.547  17.529   7.054  0.00  0.00     0.068 A 
HETATM   19  C   UNK N   1      28.214  18.258   8.207  0.00  0.00     0.037 A 
HETATM   20  C   UNK N   1      29.201  18.598   9.132  0.00  0.00     0.003 A 
HETATM   21  C   UNK N   1      30.522  18.200   8.921  0.00  0.00     0.008 A 
BRANCH  18  22
HETATM   22  O   UNK N   1      27.609  17.174   6.144  0.00  0.00    -0.356 OA
HETATM   23  C   UNK N   1      26.862  18.087   5.436  0.00  0.00     0.210 C 
ENDBRANCH  18  22
ENDBRANCH   1  16
TORSDOF 10
ENDMDL
MODEL 8
REMARK VINA RESULT:      -5.2      9.225     11.748
REMARK  10 active torsions:
REMARK  status: ('A' for Active; 'I' for Inactive)
REMARK    1  A    between atoms: O_1  and  C_15 
REMARK    2  A    between atoms: O_3  and  C_20 
REMARK    3  A    between atoms: N_4  and  C_8 
REMARK       I    between atoms: N_4  and  C_14 
REMARK    4  A    between atoms: C_5  and  C_6 
REMARK    5  A    between atoms: C_5  and  C_7 
REMARK    6  A    between atoms: C_5  and  C_8 
REMARK    7  A    between atoms: C_5  and  C_9 
REMARK    8  A    between atoms: C_14  and  C_17 
REMARK    9  A    between atoms: C_17  and  C_19 
REMARK   10  A    between atoms: C_19  and  C_20 
ROOT
HETATM    1  C   UNK N   1      31.407  16.373   4.624  0.00  0.00     0.002 C 
ENDROOT
BRANCH   1   2
HETATM    2  C   UNK N   1      32.178  17.120   3.507  0.00  0.00     0.012 C 
HETATM    3  C   UNK N   1      33.223  16.286   2.779  0.00  0.00     0.006 C 
ENDBRANCH   1   2
BRANCH   1   4
HETATM    4  C   UNK N   1      31.758  14.875   4.519  0.00  0.00     0.012 C 
HETATM    5  C   UNK N   1      30.624  13.931   4.900  0.00  0.00     0.006 C 
ENDBRANCH   1   4
BRANCH   1   6
HETATM    6  C   UNK N   1      29.879  16.484   4.420  0.00  0.00     0.137 C 
BRANCH   6   7
HETATM    7  N   UNK N   1      29.440  17.850   4.204  0.00  0.00    -0.360 N 
HETATM    8  C   UNK N   1      28.293  18.371   4.703  0.00  0.00     0.217 C 
HETATM    9  O   UNK N   1      27.559  17.702   5.416  0.00  0.00    -0.274 OA
HETATM   10  H   UNK N   1      30.012  18.436   3.658  0.00  0.00     0.162 HD
BRANCH   8  11
HETATM   11  C   UNK N   1      27.912  19.777   4.364  0.00  0.00     0.105 C 
BRANCH  11  12
HETATM   12  C   UNK N   1      27.859  20.625   5.624  0.00  0.00     0.035 C 
BRANCH  12  13
HETATM   13  C   UNK N   1      26.429  21.034   5.925  0.00  0.00     0.164 C 
BRANCH  13  14
HETATM   14  O   UNK N   1      25.649  19.898   6.143  0.00  0.00    -0.401 OA
HETATM   15  H   UNK N   1      25.487  19.516   7.019  0.00  0.00     0.209 HD
ENDBRANCH  13  14
ENDBRANCH  12  13
ENDBRANCH  11  12
ENDBRANCH   8  11
ENDBRANCH   6   7
ENDBRANCH   1   6
BRANCH   1  16
HETATM   16  C   UNK N   1      31.764  16.962   5.993  0.00  0.00    -0.045 A 
HETATM   17  C   UNK N   1      30.835  16.995   7.051  0.00  0.00     0.044 A 
HETATM   18  C   UNK N   1      31.191  17.494   8.309  0.00  0.00     0.068 A 
HETATM   19  C   UNK N   1      32.491  17.985   8.514  0.00  0.00     0.037 A 
HETATM   20  C   UNK N   1      33.417  17.976   7.471  0.00  0.00     0.003 A 
HETATM   21  C   UNK N   1      33.058  17.464   6.223  0.00  0.00     0.008 A 
BRANCH  18  22
HETATM   22  O   UNK N   1      30.275  17.479   9.306  0.00  0.00    -0.356 OA
HETATM   23  C   UNK N   1      29.613  18.605   9.739  0.00  0.00     0.210 C 
ENDBRANCH  18  22
ENDBRANCH   1  16
TORSDOF 10
ENDMDL
MODEL 9
REMARK VINA RESULT:      -5.1      5.454      9.433
REMARK  10 active torsions:
REMARK  status: ('A' for Active; 'I' for Inactive)
REMARK    1  A    between atoms: O_1  and  C_15 
REMARK    2  A    between atoms: O_3  and  C_20 
REMARK    3  A    between atoms: N_4  and  C_8 
REMARK       I    between atoms: N_4  and  C_14 
REMARK    4  A    between atoms: C_5  and  C_6 
REMARK    5  A    between atoms: C_5  and  C_7 
REMARK    6  A    between atoms: C_5  and  C_8 
REMARK    7  A    between atoms: C_5  and  C_9 
REMARK    8  A    between atoms: C_14  and  C_17 
REMARK    9  A    between atoms: C_17  and  C_19 
REMARK   10  A    between atoms: C_19  and  C_20 
ROOT
HETATM    1  C   UNK N   1      32.952  16.467   7.263  0.00  0.00     0.002 C 
ENDROOT
BRANCH   1   2
HETATM    2  C   UNK N   1      33.375  15.132   6.602  0.00  0.00     0.012 C 
HETATM    3  C   UNK N   1      34.660  15.197   5.787  0.00  0.00     0.006 C 
ENDBRANCH   1   2
BRANCH   1   4
HETATM    4  C   UNK N   1      34.058  17.505   6.983  0.00  0.00     0.012 C 
HETATM    5  C   UNK N   1      34.337  18.460   8.137  0.00  0.00     0.006 C 
ENDBRANCH   1   4
BRANCH   1   6
HETATM    6  C   UNK N   1      32.857  16.326   8.799  0.00  0.00     0.137 C 
BRANCH   6   7
HETATM    7  N   UNK N   1      33.548  15.151   9.297  0.00  0.00    -0.360 N 
HETATM    8  C   UNK N   1      34.544  15.183  10.215  0.00  0.00     0.217 C 
HETATM    9  O   UNK N   1      34.903  16.240  10.714  0.00  0.00    -0.274 OA
HETATM   10  H   UNK N   1      33.275  14.273   8.945  0.00  0.00     0.162 HD
BRANCH   8  11
HETATM   11  C   UNK N   1      35.225  13.912  10.611  0.00  0.00     0.105 C 
BRANCH  11  12
HETATM   12  C   UNK N   1      35.003  13.635  12.088  0.00  0.00     0.035 C 
BRANCH  12  13
HETATM   13  C   UNK N   1      36.296  13.821  12.860  0.00  0.00     0.164 C 
BRANCH  13  14
HETATM   14  O   UNK N   1      36.497  15.175  13.124  0.00  0.00    -0.401 OA
HETATM   15  H   UNK N   1      37.335  15.543  13.446  0.00  0.00     0.209 HD
ENDBRANCH  13  14
ENDBRANCH  12  13
ENDBRANCH  11  12
ENDBRANCH   8  11
ENDBRANCH   6   7
ENDBRANCH   1   6
BRANCH   1  16
HETATM   16  C   UNK N   1      31.587  16.910   6.726  0.00  0.00    -0.045 A 
HETATM   17  C   UNK N   1      30.493  17.145   7.582  0.00  0.00     0.044 A 
HETATM   18  C   UNK N   1      29.266  17.593   7.080  0.00  0.00     0.068 A 
HETATM   19  C   UNK N   1      29.119  17.796   5.699  0.00  0.00     0.037 A 
HETATM   20  C   UNK N   1      30.187  17.551   4.835  0.00  0.00     0.003 A 
HETATM   21  C   UNK N   1      31.411  17.117   5.345  0.00  0.00     0.008 A 
BRANCH  18  22
HETATM   22  O   UNK N   1      28.252  17.835   7.944  0.00  0.00    -0.356 OA
HETATM   23  C   UNK N   1      28.343  17.603   9.298  0.00  0.00     0.210 C 
ENDBRANCH  18  22
ENDBRANCH   1  16
TORSDOF 10
ENDMDL
