MODEL 1
REMARK VINA RESULT:      -5.4      0.000      0.000
REMARK  3 active torsions:
REMARK  status: ('A' for Active; 'I' for Inactive)
REMARK    1  A    between atoms: N_1  and  C_5 
REMARK    2  A    between atoms: C_3  and  C_4 
REMARK    3  A    between atoms: C_3  and  C_5 
ROOT
HETATM    1  N   UNK N   1      21.143  12.015  11.659  0.00  0.00    -0.365 N 
HETATM    2  C   UNK N   1      21.033  13.384   9.880  0.00  0.00    -0.029 A 
HETATM    3  C   UNK N   1      22.349  13.078  10.105  0.00  0.00    -0.002 A 
HETATM    4  C   UNK N   1      22.384  12.245  11.185  0.00  0.00     0.042 A 
HETATM    5  C   UNK N   1      20.298  12.713  10.854  0.00  0.00     0.096 A 
HETATM    6  C   UNK N   1      23.508  13.454   9.427  0.00  0.00     0.014 A 
HETATM    7  C   UNK N   1      23.577  11.715  11.670  0.00  0.00     0.030 A 
HETATM    8  C   UNK N   1      24.733  12.942   9.893  0.00  0.00     0.001 A 
HETATM    9  C   UNK N   1      24.768  12.073  11.008  0.00  0.00     0.002 A 
HETATM   10  H   UNK N   1      20.898  11.456  12.431  0.00  0.00     0.165 HD
ENDROOT
BRANCH   2  11
HETATM   11  C   UNK N   1      20.497  14.203   8.752  0.00  0.00     0.071 C 
BRANCH  11  12
HETATM   12  C   UNK N   1      19.748  15.443   9.213  0.00  0.00     0.276 C 
BRANCH  12  13
HETATM   13  N   UNK N   1      19.747  16.422   8.134  0.00  0.00     0.080 N 
HETATM   14  C   UNK N   1      19.577  17.736   8.724  0.00  0.00     0.309 C 
HETATM   15  C   UNK N   1      21.058  16.400   7.509  0.00  0.00     0.309 C 
ENDBRANCH  12  13
ENDBRANCH  11  12
ENDBRANCH   2  11
TORSDOF 3
ENDMDL
MODEL 2
REMARK VINA RESULT:      -5.2      8.395     10.510
REMARK  3 active torsions:
REMARK  status: ('A' for Active; 'I' for Inactive)
REMARK    1  A    between atoms: N_1  and  C_5 
REMARK    2  A    between atoms: C_3  and  C_4 
REMARK    3  A    between atoms: C_3  and  C_5 
ROOT
HETATM    1  N   UNK N   1      27.653  19.133   8.486  0.00  0.00    -0.365 N 
HETATM    2  C   UNK N   1      28.856  17.719   7.221  0.00  0.00    -0.029 A 
HETATM    3  C   UNK N   1      28.328  18.683   6.403  0.00  0.00    -0.002 A 
HETATM    4  C   UNK N   1      27.609  19.528   7.198  0.00  0.00     0.042 A 
HETATM    5  C   UNK N   1      28.427  18.016   8.512  0.00  0.00     0.096 A 
HETATM    6  C   UNK N   1      28.448  18.889   5.030  0.00  0.00     0.014 A 
HETATM    7  C   UNK N   1      26.958  20.647   6.686  0.00  0.00     0.030 A 
HETATM    8  C   UNK N   1      27.798  20.007   4.476  0.00  0.00     0.001 A 
HETATM    9  C   UNK N   1      27.059  20.886   5.302  0.00  0.00     0.002 A 
HETATM   10  H   UNK N   1      27.213  19.566   9.253  0.00  0.00     0.165 HD
ENDROOT
BRANCH   2  11
HETATM   11  C   UNK N   1      29.783  16.622   6.809  0.00  0.00     0.071 C 
BRANCH  11  12
HETATM   12  C   UNK N   1      31.225  17.077   6.663  0.00  0.00     0.276 C 
BRANCH  12  13
HETATM   13  N   UNK N   1      31.778  17.328   7.987  0.00  0.00     0.080 N 
HETATM   14  C   UNK N   1      31.963  16.048   8.643  0.00  0.00     0.309 C 
HETATM   15  C   UNK N   1      33.096  17.916   7.817  0.00  0.00     0.309 C 
ENDBRANCH  12  13
ENDBRANCH  11  12
ENDBRANCH   2  11
TORSDOF 3
ENDMDL
MODEL 3
REMARK VINA RESULT:      -5.1     14.590     15.788
REMARK  3 active torsions:
REMARK  status: ('A' for Active; 'I' for Inactive)
REMARK    1  A    between atoms: N_1  and  C_5 
REMARK    2  A    between atoms: C_3  and  C_4 
REMARK    3  A    between atoms: C_3  and  C_5 
ROOT
HETATM    1  N   UNK N   1      35.287  13.467  19.311  0.00  0.00    -0.365 N 
HETATM    2  C   UNK N   1      35.266  13.065  17.101  0.00  0.00    -0.029 A 
HETATM    3  C   UNK N   1      35.206  11.864  17.756  0.00  0.00    -0.002 A 
HETATM    4  C   UNK N   1      35.216  12.140  19.093  0.00  0.00     0.042 A 
HETATM    5  C   UNK N   1      35.314  14.050  18.084  0.00  0.00     0.096 A 
HETATM    6  C   UNK N   1      35.122  10.558  17.274  0.00  0.00     0.014 A 
HETATM    7  C   UNK N   1      35.134  11.135  20.053  0.00  0.00     0.030 A 
HETATM    8  C   UNK N   1      35.045   9.516  18.217  0.00  0.00     0.001 A 
HETATM    9  C   UNK N   1      35.047   9.804  19.602  0.00  0.00     0.002 A 
HETATM   10  H   UNK N   1      35.313  13.923  20.184  0.00  0.00     0.165 HD
ENDROOT
BRANCH   2  11
HETATM   11  C   UNK N   1      35.201  13.269  15.622  0.00  0.00     0.071 C 
BRANCH  11  12
HETATM   12  C   UNK N   1      36.554  13.559  14.995  0.00  0.00     0.276 C 
BRANCH  12  13
HETATM   13  N   UNK N   1      36.469  13.327  13.560  0.00  0.00     0.080 N 
HETATM   14  C   UNK N   1      35.383  12.395  13.322  0.00  0.00     0.309 C 
HETATM   15  C   UNK N   1      36.104  14.582  12.925  0.00  0.00     0.309 C 
ENDBRANCH  12  13
ENDBRANCH  11  12
ENDBRANCH   2  11
TORSDOF 3
ENDMDL
MODEL 4
REMARK VINA RESULT:      -5.0      8.788     10.233
REMARK  3 active torsions:
REMARK  status: ('A' for Active; 'I' for Inactive)
REMARK    1  A    between atoms: N_1  and  C_5 
REMARK    2  A    between atoms: C_3  and  C_4 
REMARK    3  A    between atoms: C_3  and  C_5 
ROOT
HETATM    1  N   UNK N   1      30.998  17.722   9.222  0.00  0.00    -0.365 N 
HETATM    2  C   UNK N   1      30.017  17.140   7.286  0.00  0.00    -0.029 A 
HETATM    3  C   UNK N   1      31.356  17.308   7.055  0.00  0.00    -0.002 A 
HETATM    4  C   UNK N   1      31.925  17.655   8.246  0.00  0.00     0.042 A 
HETATM    5  C   UNK N   1      29.813  17.401   8.639  0.00  0.00     0.096 A 
HETATM    6  C   UNK N   1      32.114  17.158   5.894  0.00  0.00     0.014 A 
HETATM    7  C   UNK N   1      33.294  17.873   8.374  0.00  0.00     0.030 A 
HETATM    8  C   UNK N   1      33.501  17.377   5.985  0.00  0.00     0.001 A 
HETATM    9  C   UNK N   1      34.090  17.730   7.221  0.00  0.00     0.002 A 
HETATM   10  H   UNK N   1      31.148  17.957  10.167  0.00  0.00     0.165 HD
ENDROOT
BRANCH   2  11
HETATM   11  C   UNK N   1      28.999  16.680   6.294  0.00  0.00     0.071 C 
BRANCH  11  12
HETATM   12  C   UNK N   1      27.774  17.577   6.230  0.00  0.00     0.276 C 
BRANCH  12  13
HETATM   13  N   UNK N   1      28.164  18.871   5.683  0.00  0.00     0.080 N 
HETATM   14  C   UNK N   1      27.589  18.986   4.356  0.00  0.00     0.309 C 
HETATM   15  C   UNK N   1      27.556  19.904   6.504  0.00  0.00     0.309 C 
ENDBRANCH  12  13
ENDBRANCH  11  12
ENDBRANCH   2  11
TORSDOF 3
ENDMDL
MODEL 5
REMARK VINA RESULT:      -5.0      1.561      2.300
REMARK  3 active torsions:
REMARK  status: ('A' for Active; 'I' for Inactive)
REMARK    1  A    between atoms: N_1  and  C_5 
REMARK    2  A    between atoms: C_3  and  C_4 
REMARK    3  A    between atoms: C_3  and  C_5 
ROOT
HETATM    1  N   UNK N   1      24.457  13.412   8.359  0.00  0.00    -0.365 N 
HETATM    2  C   UNK N   1      22.244  13.778   8.494  0.00  0.00    -0.029 A 
HETATM    3  C   UNK N   1      22.641  13.123   9.630  0.00  0.00    -0.002 A 
HETATM    4  C   UNK N   1      23.986  12.920   9.522  0.00  0.00     0.042 A 
HETATM    5  C   UNK N   1      23.387  13.950   7.717  0.00  0.00     0.096 A 
HETATM    6  C   UNK N   1      21.923  12.716  10.754  0.00  0.00     0.014 A 
HETATM    7  C   UNK N   1      24.721  12.300  10.529  0.00  0.00     0.030 A 
HETATM    8  C   UNK N   1      22.633  12.080  11.789  0.00  0.00     0.001 A 
HETATM    9  C   UNK N   1      24.028  11.876  11.679  0.00  0.00     0.002 A 
HETATM   10  H   UNK N   1      25.388  13.387   8.040  0.00  0.00     0.165 HD
ENDROOT
BRANCH   2  11
HETATM   11  C   UNK N   1      20.869  14.283   8.200  0.00  0.00     0.071 C 
BRANCH  11  12
HETATM   12  C   UNK N   1      20.525  15.559   8.950  0.00  0.00     0.276 C 
BRANCH  12  13
HETATM   13  N   UNK N   1      19.744  16.425   8.076  0.00  0.00     0.080 N 
HETATM   14  C   UNK N   1      19.175  17.483   8.888  0.00  0.00     0.309 C 
HETATM   15  C   UNK N   1      20.658  17.051   7.136  0.00  0.00     0.309 C 
ENDBRANCH  12  13
ENDBRANCH  11  12
ENDBRANCH   2  11
TORSDOF 3
ENDMDL
MODEL 6
REMARK VINA RESULT:      -4.9     19.224     21.493
REMARK  3 active torsions:
REMARK  status: ('A' for Active; 'I' for Inactive)
REMARK    1  A    between atoms: N_1  and  C_5 
REMARK    2  A    between atoms: C_3  and  C_4 
REMARK    3  A    between atoms: C_3  and  C_5 
ROOT
HETATM    1  N   UNK N   1      26.027  29.014  -3.500  0.00  0.00    -0.365 N 
HETATM    2  C   UNK N   1      25.870  27.483  -5.137  0.00  0.00    -0.029 A 
HETATM    3  C   UNK N   1      26.805  28.413  -5.507  0.00  0.00    -0.002 A 
HETATM    4  C   UNK N   1      26.882  29.324  -4.494  0.00  0.00     0.042 A 
HETATM    5  C   UNK N   1      25.398  27.872  -3.886  0.00  0.00     0.096 A 
HETATM    6  C   UNK N   1      27.604  28.508  -6.645  0.00  0.00     0.014 A 
HETATM    7  C   UNK N   1      27.767  30.398  -4.534  0.00  0.00     0.030 A 
HETATM    8  C   UNK N   1      28.507  29.586  -6.723  0.00  0.00     0.001 A 
HETATM    9  C   UNK N   1      28.591  30.525  -5.669  0.00  0.00     0.002 A 
HETATM   10  H   UNK N   1      25.886  29.513  -2.662  0.00  0.00     0.165 HD
ENDROOT
BRANCH   2  11
HETATM   11  C   UNK N   1      25.503  26.249  -5.895  0.00  0.00     0.071 C 
BRANCH  11  12
HETATM   12  C   UNK N   1      25.551  24.988  -5.048  0.00  0.00     0.276 C 
BRANCH  12  13
HETATM   13  N   UNK N   1      26.425  24.018  -5.696  0.00  0.00     0.080 N 
HETATM   14  C   UNK N   1      26.437  24.307  -7.117  0.00  0.00     0.309 C 
HETATM   15  C   UNK N   1      27.775  24.235  -5.204  0.00  0.00     0.309 C 
ENDBRANCH  12  13
ENDBRANCH  11  12
ENDBRANCH   2  11
TORSDOF 3
ENDMDL
MODEL 7
REMARK VINA RESULT:      -4.9     13.612     15.332
REMARK  3 active torsions:
REMARK  status: ('A' for Active; 'I' for Inactive)
REMARK    1  A    between atoms: N_1  and  C_5 
REMARK    2  A    between atoms: C_3  and  C_4 
REMARK    3  A    between atoms: C_3  and  C_5 
ROOT
HETATM    1  N   UNK N   1      36.219  10.566  15.730  0.00  0.00    -0.365 N 
HETATM    2  C   UNK N   1      36.160  12.732  15.135  0.00  0.00    -0.029 A 
HETATM    3  C   UNK N   1      35.804  12.639  16.455  0.00  0.00    -0.002 A 
HETATM    4  C   UNK N   1      35.854  11.317  16.788  0.00  0.00     0.042 A 
HETATM    5  C   UNK N   1      36.416  11.433  14.702  0.00  0.00     0.096 A 
HETATM    6  C   UNK N   1      35.465  13.621  17.386  0.00  0.00     0.014 A 
HETATM    7  C   UNK N   1      35.576  10.870  18.077  0.00  0.00     0.030 A 
HETATM    8  C   UNK N   1      35.172  13.205  18.697  0.00  0.00     0.001 A 
HETATM    9  C   UNK N   1      35.231  11.835  19.043  0.00  0.00     0.002 A 
HETATM   10  H   UNK N   1      36.323   9.587  15.706  0.00  0.00     0.165 HD
ENDROOT
BRANCH   2  11
HETATM   11  C   UNK N   1      36.324  13.993  14.351  0.00  0.00     0.071 C 
BRANCH  11  12
HETATM   12  C   UNK N   1      36.445  13.757  12.854  0.00  0.00     0.276 C 
BRANCH  12  13
HETATM   13  N   UNK N   1      35.274  14.317  12.193  0.00  0.00     0.080 N 
HETATM   14  C   UNK N   1      35.654  15.592  11.615  0.00  0.00     0.309 C 
HETATM   15  C   UNK N   1      34.919  13.438  11.091  0.00  0.00     0.309 C 
ENDBRANCH  12  13
ENDBRANCH  11  12
ENDBRANCH   2  11
TORSDOF 3
ENDMDL
MODEL 8
REMARK VINA RESULT:      -4.9      9.431     11.897
REMARK  3 active torsions:
REMARK  status: ('A' for Active; 'I' for Inactive)
REMARK    1  A    between atoms: N_1  and  C_5 
REMARK    2  A    between atoms: C_3  and  C_4 
REMARK    3  A    between atoms: C_3  and  C_5 
ROOT
HETATM    1  N   UNK N   1      30.853  16.639   6.114  0.00  0.00    -0.365 N 
HETATM    2  C   UNK N   1      32.295  17.651   7.509  0.00  0.00    -0.029 A 
HETATM    3  C   UNK N   1      31.029  17.822   8.002  0.00  0.00    -0.002 A 
HETATM    4  C   UNK N   1      30.178  17.194   7.139  0.00  0.00     0.042 A 
HETATM    5  C   UNK N   1      32.166  16.912   6.335  0.00  0.00     0.096 A 
HETATM    6  C   UNK N   1      30.570  18.461   9.153  0.00  0.00     0.014 A 
HETATM    7  C   UNK N   1      28.804  17.149   7.360  0.00  0.00     0.030 A 
HETATM    8  C   UNK N   1      29.186  18.441   9.406  0.00  0.00     0.001 A 
HETATM    9  C   UNK N   1      28.306  17.783   8.515  0.00  0.00     0.002 A 
HETATM   10  H   UNK N   1      30.473  16.136   5.357  0.00  0.00     0.165 HD
ENDROOT
BRANCH   2  11
HETATM   11  C   UNK N   1      33.564  18.097   8.158  0.00  0.00     0.071 C 
BRANCH  11  12
HETATM   12  C   UNK N   1      34.506  16.950   8.486  0.00  0.00     0.276 C 
BRANCH  12  13
HETATM   13  N   UNK N   1      34.215  16.469   9.830  0.00  0.00     0.080 N 
HETATM   14  C   UNK N   1      33.938  15.048   9.745  0.00  0.00     0.309 C 
HETATM   15  C   UNK N   1      35.418  16.623  10.630  0.00  0.00     0.309 C 
ENDBRANCH  12  13
ENDBRANCH  11  12
ENDBRANCH   2  11
TORSDOF 3
ENDMDL
MODEL 9
REMARK VINA RESULT:      -4.8     14.279     15.882
REMARK  3 active torsions:
REMARK  status: ('A' for Active; 'I' for Inactive)
REMARK    1  A    between atoms: N_1  and  C_5 
REMARK    2  A    between atoms: C_3  and  C_4 
REMARK    3  A    between atoms: C_3  and  C_5 
ROOT
HETATM    1  N   UNK N   1      37.052  14.008  14.285  0.00  0.00    -0.365 N 
HETATM    2  C   UNK N   1      35.417  12.577  14.859  0.00  0.00    -0.029 A 
HETATM    3  C   UNK N   1      35.661  13.400  15.926  0.00  0.00    -0.002 A 
HETATM    4  C   UNK N   1      36.652  14.259  15.547  0.00  0.00     0.042 A 
HETATM    5  C   UNK N   1      36.290  12.971  13.848  0.00  0.00     0.096 A 
HETATM    6  C   UNK N   1      35.069  13.469  17.187  0.00  0.00     0.014 A 
HETATM    7  C   UNK N   1      37.125  15.258  16.394  0.00  0.00     0.030 A 
HETATM    8  C   UNK N   1      35.527  14.463  18.071  0.00  0.00     0.001 A 
HETATM    9  C   UNK N   1      36.548  15.357  17.675  0.00  0.00     0.002 A 
HETATM   10  H   UNK N   1      37.754  14.481  13.782  0.00  0.00     0.165 HD
ENDROOT
BRANCH   2  11
HETATM   11  C   UNK N   1      34.359  11.526  14.777  0.00  0.00     0.071 C 
BRANCH  11  12
HETATM   12  C   UNK N   1      34.770  10.208  15.413  0.00  0.00     0.276 C 
BRANCH  12  13
HETATM   13  N   UNK N   1      35.651   9.497  14.497  0.00  0.00     0.080 N 
HETATM   14  C   UNK N   1      35.856   8.160  15.022  0.00  0.00     0.309 C 
HETATM   15  C   UNK N   1      34.957   9.356  13.228  0.00  0.00     0.309 C 
ENDBRANCH  12  13
ENDBRANCH  11  12
ENDBRANCH   2  11
TORSDOF 3
ENDMDL
