MODEL 1
REMARK VINA RESULT:      -7.8      0.000      0.000
REMARK  3 active torsions:
REMARK  status: ('A' for Active; 'I' for Inactive)
REMARK    1  A    between atoms: O_2  and  C_12 
REMARK    2  A    between atoms: O_2  and  C_24 
REMARK       I    between atoms: N_8  and  C_24 
REMARK    3  A    between atoms: C_11  and  C_14 
ROOT
HETATM    1 Cl   UNK N   1      20.287  12.640  11.029  0.00  0.00    -0.084 Cl
HETATM    2  O   UNK N   1      23.448  17.304   5.136  0.00  0.00    -0.268 OA
HETATM    3  N   UNK N   1      23.000  15.692   6.615  0.00  0.00    -0.318 N 
HETATM    4  N   UNK N   1      20.576  17.578   6.985  0.00  0.00    -0.354 N 
ATOM      5  HN  UNK N   1      20.235  18.538   7.040  1.00  0.00     0.162 HD
HETATM    6  C   UNK N   1      22.193  14.990   7.588  0.00  0.00     0.049 A 
HETATM    7  C   UNK N   1      21.018  15.512   8.255  0.00  0.00     0.020 A 
HETATM    8  C   UNK N   1      20.374  16.871   8.035  0.00  0.00     0.053 C 
HETATM    9  C   UNK N   1      21.205  17.230   5.751  0.00  0.00     0.327 C 
HETATM   10  C   UNK N   1      22.617  16.758   5.855  0.00  0.00     0.273 C 
HETATM   11  C   UNK N   1      22.687  13.733   8.015  0.00  0.00     0.032 A 
HETATM   12  C   UNK N   1      20.473  14.731   9.293  0.00  0.00     0.040 A 
HETATM   13  C   UNK N   1      24.363  15.218   6.422  0.00  0.00     0.159 C 
HETATM   14  C   UNK N   1      22.103  13.002   9.037  0.00  0.00     0.026 A 
HETATM   15  C   UNK N   1      20.996  13.508   9.685  0.00  0.00     0.035 A 
ENDROOT
BRANCH   8  16
HETATM   16  C   UNK N   1      19.331  17.448   8.971  0.00  0.00    -0.009 A 
HETATM   17  C   UNK N   1      19.675  18.578   9.744  0.00  0.00     0.014 A 
HETATM   18  C   UNK N   1      18.734  19.216  10.554  0.00  0.00     0.001 A 
HETATM   19  C   UNK N   1      17.423  18.744  10.603  0.00  0.00     0.000 A 
HETATM   20  C   UNK N   1      17.061  17.625   9.851  0.00  0.00     0.001 A 
HETATM   21  C   UNK N   1      18.006  16.986   9.043  0.00  0.00     0.014 A 
ENDBRANCH   8  16
BRANCH   9  22
HETATM   22  O   UNK N   1      21.172  18.355   4.938  0.00  0.00    -0.269 OA
BRANCH  22  23
HETATM   23  C   UNK N   1      20.612  18.401   3.695  0.00  0.00     0.364 C 
HETATM   24  O   UNK N   1      19.612  17.738   3.445  0.00  0.00    -0.238 OA
HETATM   25  N   UNK N   1      21.142  19.219   2.747  0.00  0.00    -0.337 N 
HETATM   26  C   UNK N   1      20.534  19.333   1.444  0.00  0.00     0.154 C 
HETATM   27  C   UNK N   1      22.298  20.026   3.042  0.00  0.00     0.154 C 
ENDBRANCH  22  23
ENDBRANCH   9  22
TORSDOF 3
ENDMDL
MODEL 2
REMARK VINA RESULT:      -7.3      9.460     11.974
REMARK  3 active torsions:
REMARK  status: ('A' for Active; 'I' for Inactive)
REMARK    1  A    between atoms: O_2  and  C_12 
REMARK    2  A    between atoms: O_2  and  C_24 
REMARK       I    between atoms: N_8  and  C_24 
REMARK    3  A    between atoms: C_11  and  C_14 
ROOT
HETATM    1 Cl   UNK N   1      26.868  17.303   3.524  0.00  0.00    -0.084 Cl
HETATM    2  O   UNK N   1      34.672  15.397   4.914  0.00  0.00    -0.268 OA
HETATM    3  N   UNK N   1      32.639  15.693   4.040  0.00  0.00    -0.318 N 
HETATM    4  N   UNK N   1      32.384  17.172   6.745  0.00  0.00    -0.354 N 
ATOM      5  HN  UNK N   1      32.603  17.186   7.741  1.00  0.00     0.162 HD
HETATM    6  C   UNK N   1      31.301  16.241   3.983  0.00  0.00     0.049 A 
HETATM    7  C   UNK N   1      30.598  16.886   5.071  0.00  0.00     0.020 A 
HETATM    8  C   UNK N   1      31.132  17.158   6.467  0.00  0.00     0.053 C 
HETATM    9  C   UNK N   1      33.517  17.173   5.876  0.00  0.00     0.327 C 
HETATM   10  C   UNK N   1      33.613  16.017   4.938  0.00  0.00     0.273 C 
HETATM   11  C   UNK N   1      30.581  15.996   2.787  0.00  0.00     0.032 A 
HETATM   12  C   UNK N   1      29.241  17.200   4.858  0.00  0.00     0.040 A 
HETATM   13  C   UNK N   1      32.986  14.692   3.043  0.00  0.00     0.159 C 
HETATM   14  C   UNK N   1      29.247  16.337   2.629  0.00  0.00     0.026 A 
HETATM   15  C   UNK N   1      28.572  16.934   3.672  0.00  0.00     0.035 A 
ENDROOT
BRANCH   8  16
HETATM   16  C   UNK N   1      30.243  17.571   7.623  0.00  0.00    -0.009 A 
HETATM   17  C   UNK N   1      28.928  17.061   7.674  0.00  0.00     0.014 A 
HETATM   18  C   UNK N   1      28.090  17.325   8.759  0.00  0.00     0.001 A 
HETATM   19  C   UNK N   1      28.551  18.099   9.823  0.00  0.00     0.000 A 
HETATM   20  C   UNK N   1      29.846  18.618   9.793  0.00  0.00     0.001 A 
HETATM   21  C   UNK N   1      30.683  18.355   8.704  0.00  0.00     0.014 A 
ENDBRANCH   8  16
BRANCH   9  22
HETATM   22  O   UNK N   1      34.652  17.191   6.677  0.00  0.00    -0.269 OA
BRANCH  22  23
HETATM   23  C   UNK N   1      34.655  17.441   8.018  0.00  0.00     0.364 C 
HETATM   24  O   UNK N   1      34.387  18.561   8.437  0.00  0.00    -0.238 OA
HETATM   25  N   UNK N   1      34.913  16.430   8.890  0.00  0.00    -0.337 N 
HETATM   26  C   UNK N   1      34.863  16.651  10.314  0.00  0.00     0.154 C 
HETATM   27  C   UNK N   1      35.198  15.103   8.408  0.00  0.00     0.154 C 
ENDBRANCH  22  23
ENDBRANCH   9  22
TORSDOF 3
ENDMDL
MODEL 3
REMARK VINA RESULT:      -7.1     15.436     17.428
REMARK  3 active torsions:
REMARK  status: ('A' for Active; 'I' for Inactive)
REMARK    1  A    between atoms: O_2  and  C_12 
REMARK    2  A    between atoms: O_2  and  C_24 
REMARK       I    between atoms: N_8  and  C_24 
REMARK    3  A    between atoms: C_11  and  C_14 
ROOT
HETATM    1 Cl   UNK N   1      31.364  19.031  -8.761  0.00  0.00    -0.084 Cl
HETATM    2  O   UNK N   1      25.149  24.268  -8.118  0.00  0.00    -0.268 OA
HETATM    3  N   UNK N   1      26.626  22.733  -8.788  0.00  0.00    -0.318 N 
HETATM    4  N   UNK N   1      27.526  23.243  -5.872  0.00  0.00    -0.354 N 
ATOM      5  HN  UNK N   1      27.681  23.922  -5.128  1.00  0.00     0.162 HD
HETATM    6  C   UNK N   1      27.710  21.792  -8.617  0.00  0.00     0.049 A 
HETATM    7  C   UNK N   1      28.609  21.725  -7.484  0.00  0.00     0.020 A 
HETATM    8  C   UNK N   1      28.568  22.591  -6.236  0.00  0.00     0.053 C 
HETATM    9  C   UNK N   1      26.181  23.165  -6.348  0.00  0.00     0.327 C 
HETATM   10  C   UNK N   1      25.994  23.436  -7.804  0.00  0.00     0.273 C 
HETATM   11  C   UNK N   1      27.987  20.955  -9.727  0.00  0.00     0.032 A 
HETATM   12  C   UNK N   1      29.703  20.844  -7.587  0.00  0.00     0.040 A 
HETATM   13  C   UNK N   1      26.156  22.962 -10.147  0.00  0.00     0.159 C 
HETATM   14  C   UNK N   1      29.075  20.097  -9.769  0.00  0.00     0.026 A 
HETATM   15  C   UNK N   1      29.941  20.048  -8.699  0.00  0.00     0.035 A 
ENDROOT
BRANCH   8  16
HETATM   16  C   UNK N   1      29.708  22.653  -5.239  0.00  0.00    -0.009 A 
HETATM   17  C   UNK N   1      29.733  21.711  -4.188  0.00  0.00     0.014 A 
HETATM   18  C   UNK N   1      30.801  21.652  -3.292  0.00  0.00     0.001 A 
HETATM   19  C   UNK N   1      31.875  22.530  -3.432  0.00  0.00     0.000 A 
HETATM   20  C   UNK N   1      31.871  23.474  -4.460  0.00  0.00     0.001 A 
HETATM   21  C   UNK N   1      30.798  23.533  -5.354  0.00  0.00     0.014 A 
ENDBRANCH   8  16
BRANCH   9  22
HETATM   22  O   UNK N   1      25.432  24.084  -5.625  0.00  0.00    -0.269 OA
BRANCH  22  23
HETATM   23  C   UNK N   1      25.872  24.746  -4.517  0.00  0.00     0.364 C 
HETATM   24  O   UNK N   1      26.251  24.120  -3.535  0.00  0.00    -0.238 OA
HETATM   25  N   UNK N   1      25.928  26.105  -4.523  0.00  0.00    -0.337 N 
HETATM   26  C   UNK N   1      26.445  26.829  -3.388  0.00  0.00     0.154 C 
HETATM   27  C   UNK N   1      25.513  26.848  -5.685  0.00  0.00     0.154 C 
ENDBRANCH  22  23
ENDBRANCH   9  22
TORSDOF 3
ENDMDL
MODEL 4
REMARK VINA RESULT:      -6.9      7.884     10.777
REMARK  3 active torsions:
REMARK  status: ('A' for Active; 'I' for Inactive)
REMARK    1  A    between atoms: O_2  and  C_12 
REMARK    2  A    between atoms: O_2  and  C_24 
REMARK       I    between atoms: N_8  and  C_24 
REMARK    3  A    between atoms: C_11  and  C_14 
ROOT
HETATM    1 Cl   UNK N   1      27.446  21.419   6.318  0.00  0.00    -0.084 Cl
HETATM    2  O   UNK N   1      27.702  14.324   2.311  0.00  0.00    -0.268 OA
HETATM    3  N   UNK N   1      27.156  16.327   3.134  0.00  0.00    -0.318 N 
HETATM    4  N   UNK N   1      29.982  15.905   4.322  0.00  0.00    -0.354 N 
ATOM      5  HN  UNK N   1      30.649  15.259   4.742  1.00  0.00     0.162 HD
HETATM    6  C   UNK N   1      27.397  17.566   3.840  0.00  0.00     0.049 A 
HETATM    7  C   UNK N   1      28.508  17.839   4.727  0.00  0.00     0.020 A 
HETATM    8  C   UNK N   1      29.662  16.906   5.056  0.00  0.00     0.053 C 
HETATM    9  C   UNK N   1      29.549  15.557   3.006  0.00  0.00     0.327 C 
HETATM   10  C   UNK N   1      28.079  15.366   2.839  0.00  0.00     0.273 C 
HETATM   11  C   UNK N   1      26.372  18.540   3.750  0.00  0.00     0.032 A 
HETATM   12  C   UNK N   1      28.469  19.050   5.447  0.00  0.00     0.040 A 
HETATM   13  C   UNK N   1      25.793  16.070   2.693  0.00  0.00     0.159 C 
HETATM   14  C   UNK N   1      26.390  19.721   4.476  0.00  0.00     0.026 A 
HETATM   15  C   UNK N   1      27.439  19.972   5.334  0.00  0.00     0.035 A 
ENDROOT
BRANCH   8  16
HETATM   16  C   UNK N   1      30.619  17.154   6.205  0.00  0.00    -0.009 A 
HETATM   17  C   UNK N   1      32.000  17.229   5.923  0.00  0.00     0.014 A 
HETATM   18  C   UNK N   1      32.926  17.549   6.917  0.00  0.00     0.001 A 
HETATM   19  C   UNK N   1      32.492  17.809   8.216  0.00  0.00     0.000 A 
HETATM   20  C   UNK N   1      31.131  17.736   8.519  0.00  0.00     0.001 A 
HETATM   21  C   UNK N   1      30.206  17.412   7.523  0.00  0.00     0.014 A 
ENDBRANCH   8  16
BRANCH   9  22
HETATM   22  O   UNK N   1      30.193  14.376   2.658  0.00  0.00    -0.269 OA
BRANCH  22  23
HETATM   23  C   UNK N   1      31.459  14.038   3.038  0.00  0.00     0.364 C 
HETATM   24  O   UNK N   1      32.391  14.804   2.823  0.00  0.00    -0.238 OA
HETATM   25  N   UNK N   1      31.675  12.867   3.696  0.00  0.00    -0.337 N 
HETATM   26  C   UNK N   1      32.993  12.514   4.162  0.00  0.00     0.154 C 
HETATM   27  C   UNK N   1      30.580  11.976   3.980  0.00  0.00     0.154 C 
ENDBRANCH  22  23
ENDBRANCH   9  22
TORSDOF 3
ENDMDL
MODEL 5
REMARK VINA RESULT:      -6.8     14.891     17.361
REMARK  3 active torsions:
REMARK  status: ('A' for Active; 'I' for Inactive)
REMARK    1  A    between atoms: O_2  and  C_12 
REMARK    2  A    between atoms: O_2  and  C_24 
REMARK       I    between atoms: N_8  and  C_24 
REMARK    3  A    between atoms: C_11  and  C_14 
ROOT
HETATM    1 Cl   UNK N   1      37.078   8.942  17.443  0.00  0.00    -0.084 Cl
HETATM    2  O   UNK N   1      37.482  12.333  10.040  0.00  0.00    -0.268 OA
HETATM    3  N   UNK N   1      37.529  10.951  11.793  0.00  0.00    -0.318 N 
HETATM    4  N   UNK N   1      36.368  13.528  13.051  0.00  0.00    -0.354 N 
ATOM      5  HN  UNK N   1      36.395  14.546  13.104  1.00  0.00     0.162 HD
HETATM    6  C   UNK N   1      37.259  10.550  13.156  0.00  0.00     0.049 A 
HETATM    7  C   UNK N   1      36.864  11.426  14.239  0.00  0.00     0.020 A 
HETATM    8  C   UNK N   1      36.610  12.922  14.155  0.00  0.00     0.053 C 
HETATM    9  C   UNK N   1      36.064  12.998  11.760  0.00  0.00     0.327 C 
HETATM   10  C   UNK N   1      37.093  12.088  11.177  0.00  0.00     0.273 C 
HETATM   11  C   UNK N   1      37.542   9.198  13.473  0.00  0.00     0.032 A 
HETATM   12  C   UNK N   1      36.813  10.864  15.530  0.00  0.00     0.040 A 
HETATM   13  C   UNK N   1      38.352  10.057  10.991  0.00  0.00     0.159 C 
HETATM   14  C   UNK N   1      37.465   8.696  14.762  0.00  0.00     0.026 A 
HETATM   15  C   UNK N   1      37.107   9.534  15.796  0.00  0.00     0.035 A 
ENDROOT
BRANCH   8  16
HETATM   16  C   UNK N   1      36.485  13.806  15.379  0.00  0.00    -0.009 A 
HETATM   17  C   UNK N   1      35.572  13.430  16.388  0.00  0.00     0.014 A 
HETATM   18  C   UNK N   1      35.476  14.147  17.582  0.00  0.00     0.001 A 
HETATM   19  C   UNK N   1      36.297  15.253  17.798  0.00  0.00     0.000 A 
HETATM   20  C   UNK N   1      37.204  15.647  16.813  0.00  0.00     0.001 A 
HETATM   21  C   UNK N   1      37.296  14.929  15.616  0.00  0.00     0.014 A 
ENDBRANCH   8  16
BRANCH   9  22
HETATM   22  O   UNK N   1      35.886  14.075  10.902  0.00  0.00    -0.269 OA
BRANCH  22  23
HETATM   23  C   UNK N   1      34.679  14.628  10.587  0.00  0.00     0.364 C 
HETATM   24  O   UNK N   1      33.871  14.885  11.472  0.00  0.00    -0.238 OA
HETATM   25  N   UNK N   1      34.395  14.934   9.293  0.00  0.00    -0.337 N 
HETATM   26  C   UNK N   1      33.153  15.575   8.941  0.00  0.00     0.154 C 
HETATM   27  C   UNK N   1      35.353  14.664   8.251  0.00  0.00     0.154 C 
ENDBRANCH  22  23
ENDBRANCH   9  22
TORSDOF 3
ENDMDL
MODEL 6
REMARK VINA RESULT:      -6.8      9.900     13.400
REMARK  3 active torsions:
REMARK  status: ('A' for Active; 'I' for Inactive)
REMARK    1  A    between atoms: O_2  and  C_12 
REMARK    2  A    between atoms: O_2  and  C_24 
REMARK       I    between atoms: N_8  and  C_24 
REMARK    3  A    between atoms: C_11  and  C_14 
ROOT
HETATM    1 Cl   UNK N   1      29.336  18.686   9.814  0.00  0.00    -0.084 Cl
HETATM    2  O   UNK N   1      32.431  14.263   3.705  0.00  0.00    -0.268 OA
HETATM    3  N   UNK N   1      31.146  15.507   5.042  0.00  0.00    -0.318 N 
HETATM    4  N   UNK N   1      33.810  15.438   6.614  0.00  0.00    -0.354 N 
ATOM      5  HN  UNK N   1      34.615  14.890   6.915  1.00  0.00     0.162 HD
HETATM    6  C   UNK N   1      30.871  16.356   6.180  0.00  0.00     0.049 A 
HETATM    7  C   UNK N   1      31.725  16.536   7.335  0.00  0.00     0.020 A 
HETATM    8  C   UNK N   1      33.092  15.913   7.564  0.00  0.00     0.053 C 
HETATM    9  C   UNK N   1      33.658  15.559   5.199  0.00  0.00     0.327 C 
HETATM   10  C   UNK N   1      32.369  15.053   4.642  0.00  0.00     0.273 C 
HETATM   11  C   UNK N   1      29.586  16.953   6.213  0.00  0.00     0.032 A 
HETATM   12  C   UNK N   1      31.197  17.277   8.411  0.00  0.00     0.040 A 
HETATM   13  C   UNK N   1      30.007  15.088   4.239  0.00  0.00     0.159 C 
HETATM   14  C   UNK N   1      29.122  17.682   7.296  0.00  0.00     0.026 A 
HETATM   15  C   UNK N   1      29.928  17.837   8.404  0.00  0.00     0.035 A 
ENDROOT
BRANCH   8  16
HETATM   16  C   UNK N   1      33.785  15.919   8.911  0.00  0.00    -0.009 A 
HETATM   17  C   UNK N   1      33.644  14.789   9.744  0.00  0.00     0.014 A 
HETATM   18  C   UNK N   1      34.332  14.691  10.955  0.00  0.00     0.001 A 
HETATM   19  C   UNK N   1      35.184  15.718  11.357  0.00  0.00     0.000 A 
HETATM   20  C   UNK N   1      35.336  16.848  10.552  0.00  0.00     0.001 A 
HETATM   21  C   UNK N   1      34.643  16.946   9.342  0.00  0.00     0.014 A 
ENDBRANCH   8  16
BRANCH   9  22
HETATM   22  O   UNK N   1      34.702  14.858   4.609  0.00  0.00    -0.269 OA
BRANCH  22  23
HETATM   23  C   UNK N   1      35.765  14.332   5.282  0.00  0.00     0.364 C 
HETATM   24  O   UNK N   1      36.552  15.070   5.864  0.00  0.00    -0.238 OA
HETATM   25  N   UNK N   1      35.923  12.982   5.342  0.00  0.00    -0.337 N 
HETATM   26  C   UNK N   1      37.003  12.397   6.098  0.00  0.00     0.154 C 
HETATM   27  C   UNK N   1      34.986  12.107   4.687  0.00  0.00     0.154 C 
ENDBRANCH  22  23
ENDBRANCH   9  22
TORSDOF 3
ENDMDL
MODEL 7
REMARK VINA RESULT:      -6.6     13.005     15.615
REMARK  3 active torsions:
REMARK  status: ('A' for Active; 'I' for Inactive)
REMARK    1  A    between atoms: O_2  and  C_12 
REMARK    2  A    between atoms: O_2  and  C_24 
REMARK       I    between atoms: N_8  and  C_24 
REMARK    3  A    between atoms: C_11  and  C_14 
ROOT
HETATM    1 Cl   UNK N   1      34.586  13.155   4.452  0.00  0.00    -0.084 Cl
HETATM    2  O   UNK N   1      34.357  10.940  12.294  0.00  0.00    -0.268 OA
HETATM    3  N   UNK N   1      34.513  11.008  10.068  0.00  0.00    -0.318 N 
HETATM    4  N   UNK N   1      34.283  14.011  10.776  0.00  0.00    -0.354 N 
ATOM      5  HN  UNK N   1      33.844  14.725  11.356  1.00  0.00     0.162 HD
HETATM    6  C   UNK N   1      34.641  11.653   8.780  0.00  0.00     0.049 A 
HETATM    7  C   UNK N   1      34.433  13.059   8.507  0.00  0.00     0.020 A 
HETATM    8  C   UNK N   1      34.085  14.142   9.515  0.00  0.00     0.053 C 
HETATM    9  C   UNK N   1      35.022  13.020  11.491  0.00  0.00     0.327 C 
HETATM   10  C   UNK N   1      34.576  11.610  11.290  0.00  0.00     0.273 C 
HETATM   11  C   UNK N   1      34.860  10.793   7.675  0.00  0.00     0.032 A 
HETATM   12  C   UNK N   1      34.444  13.457   7.155  0.00  0.00     0.040 A 
HETATM   13  C   UNK N   1      34.289   9.570  10.068  0.00  0.00     0.159 C 
HETATM   14  C   UNK N   1      34.871  11.242   6.363  0.00  0.00     0.026 A 
HETATM   15  C   UNK N   1      34.654  12.578   6.102  0.00  0.00     0.035 A 
ENDROOT
BRANCH   8  16
HETATM   16  C   UNK N   1      33.603  15.520   9.111  0.00  0.00    -0.009 A 
HETATM   17  C   UNK N   1      34.561  16.541   8.935  0.00  0.00     0.014 A 
HETATM   18  C   UNK N   1      34.196  17.807   8.472  0.00  0.00     0.001 A 
HETATM   19  C   UNK N   1      32.863  18.077   8.166  0.00  0.00     0.000 A 
HETATM   20  C   UNK N   1      31.897  17.084   8.336  0.00  0.00     0.001 A 
HETATM   21  C   UNK N   1      32.265  15.819   8.804  0.00  0.00     0.014 A 
ENDBRANCH   8  16
BRANCH   9  22
HETATM   22  O   UNK N   1      34.926  13.328  12.842  0.00  0.00    -0.269 OA
BRANCH  22  23
HETATM   23  C   UNK N   1      35.807  14.115  13.526  0.00  0.00     0.364 C 
HETATM   24  O   UNK N   1      36.215  15.158  13.028  0.00  0.00    -0.238 OA
HETATM   25  N   UNK N   1      36.195  13.759  14.780  0.00  0.00    -0.337 N 
HETATM   26  C   UNK N   1      37.077  14.603  15.548  0.00  0.00     0.154 C 
HETATM   27  C   UNK N   1      35.695  12.551  15.384  0.00  0.00     0.154 C 
ENDBRANCH  22  23
ENDBRANCH   9  22
TORSDOF 3
ENDMDL
MODEL 8
REMARK VINA RESULT:      -6.4      6.693      9.792
REMARK  3 active torsions:
REMARK  status: ('A' for Active; 'I' for Inactive)
REMARK    1  A    between atoms: O_2  and  C_12 
REMARK    2  A    between atoms: O_2  and  C_24 
REMARK       I    between atoms: N_8  and  C_24 
REMARK    3  A    between atoms: C_11  and  C_14 
ROOT
HETATM    1 Cl   UNK N   1      34.108  14.952   5.654  0.00  0.00    -0.084 Cl
HETATM    2  O   UNK N   1      27.684  19.175   8.368  0.00  0.00    -0.268 OA
HETATM    3  N   UNK N   1      29.692  18.246   8.063  0.00  0.00    -0.318 N 
HETATM    4  N   UNK N   1      28.184  17.341   5.518  0.00  0.00    -0.354 N 
ATOM      5  HN  UNK N   1      27.312  17.004   5.110  1.00  0.00     0.162 HD
HETATM    6  C   UNK N   1      30.708  17.528   7.325  0.00  0.00     0.049 A 
HETATM    7  C   UNK N   1      30.496  16.742   6.128  0.00  0.00     0.020 A 
HETATM    8  C   UNK N   1      29.184  16.550   5.385  0.00  0.00     0.053 C 
HETATM    9  C   UNK N   1      28.102  18.620   6.148  0.00  0.00     0.327 C 
HETATM   10  C   UNK N   1      28.478  18.654   7.591  0.00  0.00     0.273 C 
HETATM   11  C   UNK N   1      31.995  17.493   7.916  0.00  0.00     0.032 A 
HETATM   12  C   UNK N   1      31.588  15.985   5.659  0.00  0.00     0.040 A 
HETATM   13  C   UNK N   1      29.985  18.565   9.453  0.00  0.00     0.159 C 
HETATM   14  C   UNK N   1      33.038  16.738   7.403  0.00  0.00     0.026 A 
HETATM   15  C   UNK N   1      32.831  15.974   6.275  0.00  0.00     0.035 A 
ENDROOT
BRANCH   8  16
HETATM   16  C   UNK N   1      28.989  15.489   4.320  0.00  0.00    -0.009 A 
HETATM   17  C   UNK N   1      28.618  14.190   4.727  0.00  0.00     0.014 A 
HETATM   18  C   UNK N   1      28.330  13.192   3.794  0.00  0.00     0.001 A 
HETATM   19  C   UNK N   1      28.400  13.474   2.431  0.00  0.00     0.000 A 
HETATM   20  C   UNK N   1      28.769  14.750   2.004  0.00  0.00     0.001 A 
HETATM   21  C   UNK N   1      29.060  15.746   2.940  0.00  0.00     0.014 A 
ENDBRANCH   8  16
BRANCH   9  22
HETATM   22  O   UNK N   1      26.792  19.061   6.019  0.00  0.00    -0.269 OA
BRANCH  22  23
HETATM   23  C   UNK N   1      26.337  19.868   5.018  0.00  0.00     0.364 C 
HETATM   24  O   UNK N   1      26.968  20.869   4.699  0.00  0.00    -0.238 OA
HETATM   25  N   UNK N   1      25.203  19.533   4.346  0.00  0.00    -0.337 N 
HETATM   26  C   UNK N   1      24.733  20.335   3.244  0.00  0.00     0.154 C 
HETATM   27  C   UNK N   1      24.472  18.342   4.694  0.00  0.00     0.154 C 
ENDBRANCH  22  23
ENDBRANCH   9  22
TORSDOF 3
ENDMDL
MODEL 9
REMARK VINA RESULT:      -6.3      4.463      6.449
REMARK  3 active torsions:
REMARK  status: ('A' for Active; 'I' for Inactive)
REMARK    1  A    between atoms: O_2  and  C_12 
REMARK    2  A    between atoms: O_2  and  C_24 
REMARK       I    between atoms: N_8  and  C_24 
REMARK    3  A    between atoms: C_11  and  C_14 
ROOT
HETATM    1 Cl   UNK N   1      22.068  12.941   2.029  0.00  0.00    -0.084 Cl
HETATM    2  O   UNK N   1      28.789  17.224   3.749  0.00  0.00    -0.268 OA
HETATM    3  N   UNK N   1      27.285  15.795   2.922  0.00  0.00    -0.318 N 
HETATM    4  N   UNK N   1      25.532  17.565   4.756  0.00  0.00    -0.354 N 
ATOM      5  HN  UNK N   1      25.445  18.063   5.642  1.00  0.00     0.162 HD
HETATM    6  C   UNK N   1      25.955  15.273   2.698  0.00  0.00     0.049 A 
HETATM    7  C   UNK N   1      24.764  15.628   3.441  0.00  0.00     0.020 A 
HETATM    8  C   UNK N   1      24.661  16.644   4.566  0.00  0.00     0.053 C 
HETATM    9  C   UNK N   1      26.603  18.003   3.920  0.00  0.00     0.327 C 
HETATM   10  C   UNK N   1      27.606  16.960   3.555  0.00  0.00     0.273 C 
HETATM   11  C   UNK N   1      25.852  14.224   1.751  0.00  0.00     0.032 A 
HETATM   12  C   UNK N   1      23.599  14.881   3.175  0.00  0.00     0.040 A 
HETATM   13  C   UNK N   1      28.400  15.001   2.428  0.00  0.00     0.159 C 
HETATM   14  C   UNK N   1      24.674  13.530   1.523  0.00  0.00     0.026 A 
HETATM   15  C   UNK N   1      23.545  13.854   2.244  0.00  0.00     0.035 A 
ENDROOT
BRANCH   8  16
HETATM   16  C   UNK N   1      23.454  16.744   5.477  0.00  0.00    -0.009 A 
HETATM   17  C   UNK N   1      22.625  17.882   5.370  0.00  0.00     0.014 A 
HETATM   18  C   UNK N   1      21.447  17.992   6.111  0.00  0.00     0.001 A 
HETATM   19  C   UNK N   1      21.067  16.963   6.971  0.00  0.00     0.000 A 
HETATM   20  C   UNK N   1      21.872  15.830   7.097  0.00  0.00     0.001 A 
HETATM   21  C   UNK N   1      23.053  15.723   6.356  0.00  0.00     0.014 A 
ENDBRANCH   8  16
BRANCH   9  22
HETATM   22  O   UNK N   1      27.255  19.033   4.586  0.00  0.00    -0.269 OA
BRANCH  22  23
HETATM   23  C   UNK N   1      26.631  20.052   5.244  0.00  0.00     0.364 C 
HETATM   24  O   UNK N   1      25.758  20.704   4.682  0.00  0.00    -0.238 OA
HETATM   25  N   UNK N   1      26.951  20.315   6.539  0.00  0.00    -0.337 N 
HETATM   26  C   UNK N   1      26.264  21.346   7.276  0.00  0.00     0.154 C 
HETATM   27  C   UNK N   1      27.954  19.534   7.216  0.00  0.00     0.154 C 
ENDBRANCH  22  23
ENDBRANCH   9  22
TORSDOF 3
ENDMDL
