MODEL 1
REMARK VINA RESULT:      -5.5      0.000      0.000
REMARK  2 active torsions:
REMARK  status: ('A' for Active; 'I' for Inactive)
REMARK    1  A    between atoms: N_4  and  C_10 
REMARK    2  A    between atoms: C_5  and  C_7 
ROOT
HETATM    1  O   UNK N   1      34.926  13.102  14.197  0.00  0.00    -0.311 OA
HETATM    2  N   UNK N   1      36.315  14.530  13.278  0.00  0.00    -0.354 N 
ATOM      3  HN  UNK N   1      36.737  15.107  12.551  1.00  0.00     0.163 HD
HETATM    4  C   UNK N   1      35.768  13.462  15.213  0.00  0.00     0.182 A 
HETATM    5  C   UNK N   1      36.776  14.466  14.645  0.00  0.00     0.160 A 
HETATM    6  C   UNK N   1      35.307  13.763  13.104  0.00  0.00     0.213 A 
ENDROOT
BRANCH   4   7
HETATM    7  C   UNK N   1      35.598  12.884  16.579  0.00  0.00    -0.027 A 
HETATM    8  C   UNK N   1      35.268  13.696  17.671  0.00  0.00     0.010 A 
HETATM    9  C   UNK N   1      35.114  13.128  18.942  0.00  0.00     0.001 A 
HETATM   10  C   UNK N   1      35.290  11.752  19.120  0.00  0.00     0.000 A 
HETATM   11  C   UNK N   1      35.619  10.942  18.031  0.00  0.00     0.001 A 
HETATM   12  C   UNK N   1      35.772  11.508  16.765  0.00  0.00     0.010 A 
ENDBRANCH   4   7
BRANCH   6  13
HETATM   13  N   UNK N   1      34.654  13.630  11.862  0.00  0.00    -0.365 N 
HETATM   14  H   UNK N   1      33.744  13.985  11.744  0.00  0.00     0.159 HD
HETATM   15  H   UNK N   1      35.109  13.183  11.112  0.00  0.00     0.159 HD
ENDBRANCH   6  13
TORSDOF 2
ENDMDL
MODEL 2
REMARK VINA RESULT:      -5.5     17.401     19.292
REMARK  2 active torsions:
REMARK  status: ('A' for Active; 'I' for Inactive)
REMARK    1  A    between atoms: N_4  and  C_10 
REMARK    2  A    between atoms: C_5  and  C_7 
ROOT
HETATM    1  O   UNK N   1      22.246  20.634   1.782  0.00  0.00    -0.311 OA
HETATM    2  N   UNK N   1      20.300  20.069   2.623  0.00  0.00    -0.354 N 
ATOM      3  HN  UNK N   1      19.287  19.975   2.687  1.00  0.00     0.163 HD
HETATM    4  C   UNK N   1      22.551  20.020   2.966  0.00  0.00     0.182 A 
HETATM    5  C   UNK N   1      21.232  19.592   3.618  0.00  0.00     0.160 A 
HETATM    6  C   UNK N   1      20.919  20.625   1.653  0.00  0.00     0.213 A 
ENDROOT
BRANCH   4   7
HETATM    7  C   UNK N   1      23.971  19.873   3.399  0.00  0.00    -0.027 A 
HETATM    8  C   UNK N   1      24.325  18.997   4.434  0.00  0.00     0.010 A 
HETATM    9  C   UNK N   1      25.665  18.879   4.821  0.00  0.00     0.001 A 
HETATM   10  C   UNK N   1      26.650  19.633   4.175  0.00  0.00     0.000 A 
HETATM   11  C   UNK N   1      26.299  20.506   3.143  0.00  0.00     0.001 A 
HETATM   12  C   UNK N   1      24.962  20.624   2.758  0.00  0.00     0.010 A 
ENDBRANCH   4   7
BRANCH   6  13
HETATM   13  N   UNK N   1      20.254  21.180   0.540  0.00  0.00    -0.365 N 
HETATM   14  H   UNK N   1      20.022  20.611  -0.228  0.00  0.00     0.159 HD
HETATM   15  H   UNK N   1      20.023  22.137   0.533  0.00  0.00     0.159 HD
ENDBRANCH   6  13
TORSDOF 2
ENDMDL
MODEL 3
REMARK VINA RESULT:      -5.4      0.939      1.971
REMARK  2 active torsions:
REMARK  status: ('A' for Active; 'I' for Inactive)
REMARK    1  A    between atoms: N_4  and  C_10 
REMARK    2  A    between atoms: C_5  and  C_7 
ROOT
HETATM    1  O   UNK N   1      36.032  13.945  14.808  0.00  0.00    -0.311 OA
HETATM    2  N   UNK N   1      35.145  13.062  13.006  0.00  0.00    -0.354 N 
ATOM      3  HN  UNK N   1      34.908  12.959  12.020  1.00  0.00     0.163 HD
HETATM    4  C   UNK N   1      35.381  12.830  15.258  0.00  0.00     0.182 A 
HETATM    5  C   UNK N   1      34.730  12.152  14.048  0.00  0.00     0.160 A 
HETATM    6  C   UNK N   1      35.849  14.013  13.489  0.00  0.00     0.213 A 
ENDROOT
BRANCH   4   7
HETATM    7  C   UNK N   1      35.400  12.475  16.708  0.00  0.00    -0.027 A 
HETATM    8  C   UNK N   1      35.663  11.166  17.130  0.00  0.00     0.010 A 
HETATM    9  C   UNK N   1      35.674  10.861  18.496  0.00  0.00     0.001 A 
HETATM   10  C   UNK N   1      35.423  11.863  19.440  0.00  0.00     0.000 A 
HETATM   11  C   UNK N   1      35.160  13.169  19.020  0.00  0.00     0.001 A 
HETATM   12  C   UNK N   1      35.149  13.472  17.658  0.00  0.00     0.010 A 
ENDBRANCH   4   7
BRANCH   6  13
HETATM   13  N   UNK N   1      36.386  15.046  12.694  0.00  0.00    -0.365 N 
HETATM   14  H   UNK N   1      35.835  15.828  12.464  0.00  0.00     0.159 HD
HETATM   15  H   UNK N   1      37.313  14.985  12.369  0.00  0.00     0.159 HD
ENDBRANCH   6  13
TORSDOF 2
ENDMDL
MODEL 4
REMARK VINA RESULT:      -5.0     25.413     26.420
REMARK  2 active torsions:
REMARK  status: ('A' for Active; 'I' for Inactive)
REMARK    1  A    between atoms: N_4  and  C_10 
REMARK    2  A    between atoms: C_5  and  C_7 
ROOT
HETATM    1  O   UNK N   1      25.138  23.438  -6.445  0.00  0.00    -0.311 OA
HETATM    2  N   UNK N   1      26.886  22.267  -7.067  0.00  0.00    -0.354 N 
ATOM      3  HN  UNK N   1      27.414  21.510  -7.499  1.00  0.00     0.163 HD
HETATM    4  C   UNK N   1      26.208  24.140  -5.964  0.00  0.00     0.182 A 
HETATM    5  C   UNK N   1      27.478  23.379  -6.361  0.00  0.00     0.160 A 
HETATM    6  C   UNK N   1      25.612  22.363  -7.074  0.00  0.00     0.213 A 
ENDROOT
BRANCH   4   7
HETATM    7  C   UNK N   1      26.003  25.408  -5.204  0.00  0.00    -0.027 A 
HETATM    8  C   UNK N   1      26.549  25.583  -3.926  0.00  0.00     0.010 A 
HETATM    9  C   UNK N   1      26.340  26.783  -3.236  0.00  0.00     0.001 A 
HETATM   10  C   UNK N   1      25.588  27.807  -3.821  0.00  0.00     0.000 A 
HETATM   11  C   UNK N   1      25.044  27.634  -5.095  0.00  0.00     0.001 A 
HETATM   12  C   UNK N   1      25.251  26.437  -5.783  0.00  0.00     0.010 A 
ENDBRANCH   4   7
BRANCH   6  13
HETATM   13  N   UNK N   1      24.778  21.410  -7.696  0.00  0.00    -0.365 N 
HETATM   14  H   UNK N   1      24.162  21.687  -8.410  0.00  0.00     0.159 HD
HETATM   15  H   UNK N   1      24.814  20.467  -7.414  0.00  0.00     0.159 HD
ENDBRANCH   6  13
TORSDOF 2
ENDMDL
MODEL 5
REMARK VINA RESULT:      -4.9      7.615     10.889
REMARK  2 active torsions:
REMARK  status: ('A' for Active; 'I' for Inactive)
REMARK    1  A    between atoms: N_4  and  C_10 
REMARK    2  A    between atoms: C_5  and  C_7 
ROOT
HETATM    1  O   UNK N   1      33.374  16.286   8.677  0.00  0.00    -0.311 OA
HETATM    2  N   UNK N   1      34.920  17.589   9.528  0.00  0.00    -0.354 N 
ATOM      3  HN  UNK N   1      35.612  17.925  10.197  1.00  0.00     0.163 HD
HETATM    4  C   UNK N   1      33.529  17.282   7.752  0.00  0.00     0.182 A 
HETATM    5  C   UNK N   1      34.602  18.240   8.280  0.00  0.00     0.160 A 
HETATM    6  C   UNK N   1      34.216  16.533   9.680  0.00  0.00     0.213 A 
ENDROOT
BRANCH   4   7
HETATM    7  C   UNK N   1      32.716  17.287   6.500  0.00  0.00    -0.027 A 
HETATM    8  C   UNK N   1      31.330  17.089   6.537  0.00  0.00     0.010 A 
HETATM    9  C   UNK N   1      30.592  17.098   5.347  0.00  0.00     0.001 A 
HETATM   10  C   UNK N   1      31.237  17.305   4.123  0.00  0.00     0.000 A 
HETATM   11  C   UNK N   1      32.619  17.503   4.086  0.00  0.00     0.001 A 
HETATM   12  C   UNK N   1      33.355  17.493   5.273  0.00  0.00     0.010 A 
ENDBRANCH   4   7
BRANCH   6  13
HETATM   13  N   UNK N   1      34.322  15.700  10.813  0.00  0.00    -0.365 N 
HETATM   14  H   UNK N   1      34.252  14.724  10.715  0.00  0.00     0.159 HD
HETATM   15  H   UNK N   1      34.465  16.097  11.703  0.00  0.00     0.159 HD
ENDBRANCH   6  13
TORSDOF 2
ENDMDL
MODEL 6
REMARK VINA RESULT:      -4.9     10.440     13.291
REMARK  2 active torsions:
REMARK  status: ('A' for Active; 'I' for Inactive)
REMARK    1  A    between atoms: N_4  and  C_10 
REMARK    2  A    between atoms: C_5  and  C_7 
ROOT
HETATM    1  O   UNK N   1      30.092  17.825   7.680  0.00  0.00    -0.311 OA
HETATM    2  N   UNK N   1      29.558  17.448   9.774  0.00  0.00    -0.354 N 
ATOM      3  HN  UNK N   1      29.656  17.108  10.730  1.00  0.00     0.163 HD
HETATM    4  C   UNK N   1      28.855  18.390   7.824  0.00  0.00     0.182 A 
HETATM    5  C   UNK N   1      28.410  18.166   9.273  0.00  0.00     0.160 A 
HETATM    6  C   UNK N   1      30.434  17.297   8.855  0.00  0.00     0.213 A 
ENDROOT
BRANCH   4   7
HETATM    7  C   UNK N   1      28.193  19.068   6.671  0.00  0.00    -0.027 A 
HETATM    8  C   UNK N   1      28.309  18.562   5.370  0.00  0.00     0.010 A 
HETATM    9  C   UNK N   1      27.677  19.218   4.307  0.00  0.00     0.001 A 
HETATM   10  C   UNK N   1      26.931  20.378   4.542  0.00  0.00     0.000 A 
HETATM   11  C   UNK N   1      26.815  20.883   5.839  0.00  0.00     0.001 A 
HETATM   12  C   UNK N   1      27.445  20.228   6.899  0.00  0.00     0.010 A 
ENDBRANCH   4   7
BRANCH   6  13
HETATM   13  N   UNK N   1      31.657  16.629   9.068  0.00  0.00    -0.365 N 
HETATM   14  H   UNK N   1      32.397  16.743   8.430  0.00  0.00     0.159 HD
HETATM   15  H   UNK N   1      31.770  16.050   9.856  0.00  0.00     0.159 HD
ENDBRANCH   6  13
TORSDOF 2
ENDMDL
MODEL 7
REMARK VINA RESULT:      -4.8      1.679      2.251
REMARK  2 active torsions:
REMARK  status: ('A' for Active; 'I' for Inactive)
REMARK    1  A    between atoms: N_4  and  C_10 
REMARK    2  A    between atoms: C_5  and  C_7 
ROOT
HETATM    1  O   UNK N   1      34.676  13.675  12.547  0.00  0.00    -0.311 OA
HETATM    2  N   UNK N   1      36.092  15.345  12.416  0.00  0.00    -0.354 N 
ATOM      3  HN  UNK N   1      36.546  16.175  12.035  1.00  0.00     0.163 HD
HETATM    4  C   UNK N   1      35.452  13.554  13.667  0.00  0.00     0.182 A 
HETATM    5  C   UNK N   1      36.474  14.695  13.647  0.00  0.00     0.160 A 
HETATM    6  C   UNK N   1      35.109  14.738  11.870  0.00  0.00     0.213 A 
ENDROOT
BRANCH   4   7
HETATM    7  C   UNK N   1      35.212  12.446  14.638  0.00  0.00    -0.027 A 
HETATM    8  C   UNK N   1      35.904  12.390  15.855  0.00  0.00     0.010 A 
HETATM    9  C   UNK N   1      35.659  11.339  16.748  0.00  0.00     0.001 A 
HETATM   10  C   UNK N   1      34.727  10.347  16.426  0.00  0.00     0.000 A 
HETATM   11  C   UNK N   1      34.038  10.403  15.213  0.00  0.00     0.001 A 
HETATM   12  C   UNK N   1      34.281  11.451  14.323  0.00  0.00     0.010 A 
ENDBRANCH   4   7
BRANCH   6  13
HETATM   13  N   UNK N   1      34.531  15.160  10.654  0.00  0.00    -0.365 N 
HETATM   14  H   UNK N   1      34.927  14.879   9.798  0.00  0.00     0.159 HD
HETATM   15  H   UNK N   1      33.732  15.735  10.663  0.00  0.00     0.159 HD
ENDBRANCH   6  13
TORSDOF 2
ENDMDL
MODEL 8
REMARK VINA RESULT:      -4.8     10.233     11.298
REMARK  2 active torsions:
REMARK  status: ('A' for Active; 'I' for Inactive)
REMARK    1  A    between atoms: N_4  and  C_10 
REMARK    2  A    between atoms: C_5  and  C_7 
ROOT
HETATM    1  O   UNK N   1      28.949  16.807   7.146  0.00  0.00    -0.311 OA
HETATM    2  N   UNK N   1      27.742  17.726   8.731  0.00  0.00    -0.354 N 
ATOM      3  HN  UNK N   1      26.911  17.959   9.274  1.00  0.00     0.163 HD
HETATM    4  C   UNK N   1      29.847  17.522   7.889  0.00  0.00     0.182 A 
HETATM    5  C   UNK N   1      29.074  18.199   9.025  0.00  0.00     0.160 A 
HETATM    6  C   UNK N   1      27.747  16.974   7.697  0.00  0.00     0.213 A 
ENDROOT
BRANCH   4   7
HETATM    7  C   UNK N   1      31.294  17.536   7.521  0.00  0.00    -0.027 A 
HETATM    8  C   UNK N   1      31.724  17.097   6.262  0.00  0.00     0.010 A 
HETATM    9  C   UNK N   1      33.087  17.121   5.943  0.00  0.00     0.001 A 
HETATM   10  C   UNK N   1      34.019  17.582   6.880  0.00  0.00     0.000 A 
HETATM   11  C   UNK N   1      33.590  18.020   8.135  0.00  0.00     0.001 A 
HETATM   12  C   UNK N   1      32.231  17.996   8.453  0.00  0.00     0.010 A 
ENDBRANCH   4   7
BRANCH   6  13
HETATM   13  N   UNK N   1      26.579  16.373   7.184  0.00  0.00    -0.365 N 
HETATM   14  H   UNK N   1      25.922  16.916   6.692  0.00  0.00     0.159 HD
HETATM   15  H   UNK N   1      26.420  15.411   7.319  0.00  0.00     0.159 HD
ENDBRANCH   6  13
TORSDOF 2
ENDMDL
MODEL 9
REMARK VINA RESULT:      -4.7      9.795     12.139
REMARK  2 active torsions:
REMARK  status: ('A' for Active; 'I' for Inactive)
REMARK    1  A    between atoms: N_4  and  C_10 
REMARK    2  A    between atoms: C_5  and  C_7 
ROOT
HETATM    1  O   UNK N   1      29.333  17.815   7.447  0.00  0.00    -0.311 OA
HETATM    2  N   UNK N   1      29.900  17.299   9.503  0.00  0.00    -0.354 N 
ATOM      3  HN  UNK N   1      29.811  17.202  10.513  1.00  0.00     0.163 HD
HETATM    4  C   UNK N   1      30.593  17.294   7.334  0.00  0.00     0.182 A 
HETATM    5  C   UNK N   1      31.061  16.906   8.740  0.00  0.00     0.160 A 
HETATM    6  C   UNK N   1      28.999  17.785   8.736  0.00  0.00     0.213 A 
ENDROOT
BRANCH   4   7
HETATM    7  C   UNK N   1      31.253  17.191   5.999  0.00  0.00    -0.027 A 
HETATM    8  C   UNK N   1      32.638  17.352   5.863  0.00  0.00     0.010 A 
HETATM    9  C   UNK N   1      33.232  17.251   4.600  0.00  0.00     0.001 A 
HETATM   10  C   UNK N   1      32.444  16.989   3.474  0.00  0.00     0.000 A 
HETATM   11  C   UNK N   1      31.063  16.828   3.609  0.00  0.00     0.001 A 
HETATM   12  C   UNK N   1      30.472  16.929   4.869  0.00  0.00     0.010 A 
ENDBRANCH   4   7
BRANCH   6  13
HETATM   13  N   UNK N   1      27.757  18.249   9.217  0.00  0.00    -0.365 N 
HETATM   14  H   UNK N   1      26.931  18.042   8.725  0.00  0.00     0.159 HD
HETATM   15  H   UNK N   1      27.717  18.780  10.045  0.00  0.00     0.159 HD
ENDBRANCH   6  13
TORSDOF 2
ENDMDL
