MODEL 1
REMARK VINA RESULT:      -6.9      0.000      0.000
REMARK  7 active torsions:
REMARK  status: ('A' for Active; 'I' for Inactive)
REMARK    1  A    between atoms: N_2  and  C_3 
REMARK    2  A    between atoms: C_3  and  C_4 
REMARK    3  A    between atoms: C_4  and  C_5 
REMARK    4  A    between atoms: C_5  and  C_12 
REMARK    5  A    between atoms: C_5  and  C_13 
REMARK    6  A    between atoms: C_5  and  C_14 
REMARK    7  A    between atoms: C_14  and  C_15 
ROOT
HETATM    1  C   UNK N   1      36.283  11.980  15.384  0.00  0.00     0.076 C 
ENDROOT
BRANCH   1   2
HETATM    2  C   UNK N   1      37.200  12.249  14.150  0.00  0.00     0.062 C 
BRANCH   2   3
HETATM    3  C   UNK N   1      36.635  12.349  12.712  0.00  0.00     0.220 C 
HETATM    4  C   UNK N   1      37.164  11.160  11.914  0.00  0.00     0.043 C 
BRANCH   3   5
HETATM    5  N   UNK N   1      36.859  13.639  12.031  0.00  0.00     0.092 N 
HETATM    6  C   UNK N   1      36.922  13.427  10.569  0.00  0.00     0.273 C 
HETATM    7  C   UNK N   1      36.689  14.719   9.791  0.00  0.00     0.030 C 
HETATM    8  C   UNK N   1      35.285  15.266  10.061  0.00  0.00     0.003 C 
HETATM    9  C   UNK N   1      34.695  14.759  11.378  0.00  0.00     0.030 C 
HETATM   10  C   UNK N   1      35.799  14.593  12.421  0.00  0.00     0.273 C 
ENDBRANCH   3   5
ENDBRANCH   2   3
ENDBRANCH   1   2
BRANCH   1  11
HETATM   11  C   UNK N   1      36.273  13.271  16.227  0.00  0.00    -0.037 A 
HETATM   12  C   UNK N   1      37.098  14.342  15.825  0.00  0.00     0.009 A 
HETATM   13  C   UNK N   1      37.130  15.537  16.546  0.00  0.00     0.001 A 
HETATM   14  C   UNK N   1      36.330  15.687  17.679  0.00  0.00     0.000 A 
HETATM   15  C   UNK N   1      35.499  14.643  18.089  0.00  0.00     0.001 A 
HETATM   16  C   UNK N   1      35.471  13.445  17.367  0.00  0.00     0.009 A 
ENDBRANCH   1  11
BRANCH   1  17
HETATM   17  C   UNK N   1      36.693  10.657  16.057  0.00  0.00    -0.037 A 
HETATM   18  C   UNK N   1      36.255  10.284  17.339  0.00  0.00     0.009 A 
HETATM   19  C   UNK N   1      36.653   9.074  17.913  0.00  0.00     0.001 A 
HETATM   20  C   UNK N   1      37.498   8.213  17.212  0.00  0.00     0.000 A 
HETATM   21  C   UNK N   1      37.943   8.563  15.937  0.00  0.00     0.001 A 
HETATM   22  C   UNK N   1      37.544   9.772  15.364  0.00  0.00     0.009 A 
ENDBRANCH   1  17
BRANCH   1  23
HETATM   23  C   UNK N   1      34.841  11.800  14.915  0.00  0.00     0.144 C 
HETATM   24  O   UNK N   1      34.114  12.765  14.732  0.00  0.00    -0.296 OA
BRANCH  23  25
HETATM   25  C   UNK N   1      34.305  10.419  14.668  0.00  0.00     0.075 C 
HETATM   26  C   UNK N   1      33.811  10.287  13.241  0.00  0.00     0.013 C 
ENDBRANCH  23  25
ENDBRANCH   1  23
TORSDOF 7
ENDMDL
MODEL 2
REMARK VINA RESULT:      -6.3     21.324     25.480
REMARK  7 active torsions:
REMARK  status: ('A' for Active; 'I' for Inactive)
REMARK    1  A    between atoms: N_2  and  C_3 
REMARK    2  A    between atoms: C_3  and  C_4 
REMARK    3  A    between atoms: C_4  and  C_5 
REMARK    4  A    between atoms: C_5  and  C_12 
REMARK    5  A    between atoms: C_5  and  C_13 
REMARK    6  A    between atoms: C_5  and  C_14 
REMARK    7  A    between atoms: C_14  and  C_15 
ROOT
HETATM    1  C   UNK N   1      27.689  24.580  -5.075  0.00  0.00     0.076 C 
ENDROOT
BRANCH   1   2
HETATM    2  C   UNK N   1      29.097  24.972  -5.623  0.00  0.00     0.062 C 
BRANCH   2   3
HETATM    3  C   UNK N   1      29.360  26.333  -6.315  0.00  0.00     0.220 C 
HETATM    4  C   UNK N   1      29.517  26.079  -7.811  0.00  0.00     0.043 C 
BRANCH   3   5
HETATM    5  N   UNK N   1      30.470  27.126  -5.750  0.00  0.00     0.092 N 
HETATM    6  C   UNK N   1      29.937  28.366  -5.144  0.00  0.00     0.273 C 
HETATM    7  C   UNK N   1      30.922  28.992  -4.160  0.00  0.00     0.030 C 
HETATM    8  C   UNK N   1      31.187  28.047  -2.986  0.00  0.00     0.003 C 
HETATM    9  C   UNK N   1      30.886  26.586  -3.323  0.00  0.00     0.030 C 
HETATM   10  C   UNK N   1      31.224  26.301  -4.784  0.00  0.00     0.273 C 
ENDBRANCH   3   5
ENDBRANCH   2   3
ENDBRANCH   1   2
BRANCH   1  11
HETATM   11  C   UNK N   1      27.121  23.506  -6.023  0.00  0.00    -0.037 A 
HETATM   12  C   UNK N   1      28.011  22.826  -6.880  0.00  0.00     0.009 A 
HETATM   13  C   UNK N   1      27.555  21.842  -7.759  0.00  0.00     0.001 A 
HETATM   14  C   UNK N   1      26.201  21.511  -7.791  0.00  0.00     0.000 A 
HETATM   15  C   UNK N   1      25.304  22.165  -6.945  0.00  0.00     0.001 A 
HETATM   16  C   UNK N   1      25.761  23.154  -6.068  0.00  0.00     0.009 A 
ENDBRANCH   1  11
BRANCH   1  17
HETATM   17  C   UNK N   1      26.863  25.854  -4.814  0.00  0.00    -0.037 A 
HETATM   18  C   UNK N   1      27.074  26.686  -3.701  0.00  0.00     0.009 A 
HETATM   19  C   UNK N   1      26.299  27.831  -3.501  0.00  0.00     0.001 A 
HETATM   20  C   UNK N   1      25.300  28.166  -4.415  0.00  0.00     0.000 A 
HETATM   21  C   UNK N   1      25.075  27.356  -5.527  0.00  0.00     0.001 A 
HETATM   22  C   UNK N   1      25.850  26.211  -5.727  0.00  0.00     0.009 A 
ENDBRANCH   1  17
BRANCH   1  23
HETATM   23  C   UNK N   1      27.845  23.880  -3.728  0.00  0.00     0.144 C 
HETATM   24  O   UNK N   1      26.903  23.789  -2.954  0.00  0.00    -0.296 OA
BRANCH  23  25
HETATM   25  C   UNK N   1      29.170  23.287  -3.345  0.00  0.00     0.075 C 
HETATM   26  C   UNK N   1      29.223  23.019  -1.854  0.00  0.00     0.013 C 
ENDBRANCH  23  25
ENDBRANCH   1  23
TORSDOF 7
ENDMDL
MODEL 3
REMARK VINA RESULT:      -6.3     13.980     16.679
REMARK  7 active torsions:
REMARK  status: ('A' for Active; 'I' for Inactive)
REMARK    1  A    between atoms: N_2  and  C_3 
REMARK    2  A    between atoms: C_3  and  C_4 
REMARK    3  A    between atoms: C_4  and  C_5 
REMARK    4  A    between atoms: C_5  and  C_12 
REMARK    5  A    between atoms: C_5  and  C_13 
REMARK    6  A    between atoms: C_5  and  C_14 
REMARK    7  A    between atoms: C_14  and  C_15 
ROOT
HETATM    1  C   UNK N   1      21.726  13.959   8.026  0.00  0.00     0.076 C 
ENDROOT
BRANCH   1   2
HETATM    2  C   UNK N   1      22.714  14.977   7.375  0.00  0.00     0.062 C 
BRANCH   2   3
HETATM    3  C   UNK N   1      23.221  14.814   5.920  0.00  0.00     0.220 C 
HETATM    4  C   UNK N   1      24.677  14.361   5.976  0.00  0.00     0.043 C 
BRANCH   3   5
HETATM    5  N   UNK N   1      23.020  15.986   5.045  0.00  0.00     0.092 N 
HETATM    6  C   UNK N   1      22.388  15.558   3.777  0.00  0.00     0.273 C 
HETATM    7  C   UNK N   1      21.739  16.725   3.037  0.00  0.00     0.030 C 
HETATM    8  C   UNK N   1      20.607  17.330   3.871  0.00  0.00     0.003 C 
HETATM    9  C   UNK N   1      20.748  17.033   5.365  0.00  0.00     0.030 C 
HETATM   10  C   UNK N   1      22.223  17.004   5.760  0.00  0.00     0.273 C 
ENDBRANCH   3   5
ENDBRANCH   2   3
ENDBRANCH   1   2
BRANCH   1  11
HETATM   11  C   UNK N   1      22.485  13.266   9.173  0.00  0.00    -0.037 A 
HETATM   12  C   UNK N   1      23.892  13.191   9.100  0.00  0.00     0.009 A 
HETATM   13  C   UNK N   1      24.635  12.577  10.110  0.00  0.00     0.001 A 
HETATM   14  C   UNK N   1      23.986  12.034  11.219  0.00  0.00     0.000 A 
HETATM   15  C   UNK N   1      22.595  12.106  11.316  0.00  0.00     0.001 A 
HETATM   16  C   UNK N   1      21.852  12.718  10.302  0.00  0.00     0.009 A 
ENDBRANCH   1  11
BRANCH   1  17
HETATM   17  C   UNK N   1      21.081  13.090   6.929  0.00  0.00    -0.037 A 
HETATM   18  C   UNK N   1      20.173  13.601   5.985  0.00  0.00     0.009 A 
HETATM   19  C   UNK N   1      19.611  12.776   5.008  0.00  0.00     0.001 A 
HETATM   20  C   UNK N   1      19.949  11.423   4.956  0.00  0.00     0.000 A 
HETATM   21  C   UNK N   1      20.849  10.897   5.882  0.00  0.00     0.001 A 
HETATM   22  C   UNK N   1      21.412  11.722   6.859  0.00  0.00     0.009 A 
ENDBRANCH   1  17
BRANCH   1  23
HETATM   23  C   UNK N   1      20.587  14.717   8.703  0.00  0.00     0.144 C 
HETATM   24  O   UNK N   1      19.626  14.124   9.170  0.00  0.00    -0.296 OA
BRANCH  23  25
HETATM   25  C   UNK N   1      20.647  16.214   8.805  0.00  0.00     0.075 C 
HETATM   26  C   UNK N   1      19.251  16.807   8.773  0.00  0.00     0.013 C 
ENDBRANCH  23  25
ENDBRANCH   1  23
TORSDOF 7
ENDMDL
MODEL 4
REMARK VINA RESULT:      -6.2     21.638     26.264
REMARK  7 active torsions:
REMARK  status: ('A' for Active; 'I' for Inactive)
REMARK    1  A    between atoms: N_2  and  C_3 
REMARK    2  A    between atoms: C_3  and  C_4 
REMARK    3  A    between atoms: C_4  and  C_5 
REMARK    4  A    between atoms: C_5  and  C_12 
REMARK    5  A    between atoms: C_5  and  C_13 
REMARK    6  A    between atoms: C_5  and  C_14 
REMARK    7  A    between atoms: C_14  and  C_15 
ROOT
HETATM    1  C   UNK N   1      27.043  25.681  -6.124  0.00  0.00     0.076 C 
ENDROOT
BRANCH   1   2
HETATM    2  C   UNK N   1      28.440  25.064  -5.803  0.00  0.00     0.062 C 
BRANCH   2   3
HETATM    3  C   UNK N   1      29.437  25.746  -4.832  0.00  0.00     0.220 C 
HETATM    4  C   UNK N   1      30.602  26.286  -5.656  0.00  0.00     0.043 C 
BRANCH   3   5
HETATM    5  N   UNK N   1      29.877  24.918  -3.692  0.00  0.00     0.092 N 
HETATM    6  C   UNK N   1      28.798  23.981  -3.311  0.00  0.00     0.273 C 
HETATM    7  C   UNK N   1      29.321  22.812  -2.480  0.00  0.00     0.030 C 
HETATM    8  C   UNK N   1      30.316  21.977  -3.290  0.00  0.00     0.003 C 
HETATM    9  C   UNK N   1      30.947  22.761  -4.441  0.00  0.00     0.030 C 
HETATM   10  C   UNK N   1      31.134  24.224  -4.044  0.00  0.00     0.273 C 
ENDBRANCH   3   5
ENDBRANCH   2   3
ENDBRANCH   1   2
BRANCH   1  11
HETATM   11  C   UNK N   1      26.990  25.907  -7.647  0.00  0.00    -0.037 A 
HETATM   12  C   UNK N   1      28.207  26.020  -8.353  0.00  0.00     0.009 A 
HETATM   13  C   UNK N   1      28.223  26.222  -9.734  0.00  0.00     0.001 A 
HETATM   14  C   UNK N   1      27.022  26.307 -10.439  0.00  0.00     0.000 A 
HETATM   15  C   UNK N   1      25.807  26.188  -9.762  0.00  0.00     0.001 A 
HETATM   16  C   UNK N   1      25.792  25.989  -8.378  0.00  0.00     0.009 A 
ENDBRANCH   1  11
BRANCH   1  17
HETATM   17  C   UNK N   1      26.777  26.875  -5.186  0.00  0.00    -0.037 A 
HETATM   18  C   UNK N   1      26.331  26.720  -3.862  0.00  0.00     0.009 A 
HETATM   19  C   UNK N   1      26.100  27.830  -3.046  0.00  0.00     0.001 A 
HETATM   20  C   UNK N   1      26.313  29.117  -3.541  0.00  0.00     0.000 A 
HETATM   21  C   UNK N   1      26.758  29.293  -4.851  0.00  0.00     0.001 A 
HETATM   22  C   UNK N   1      26.989  28.182  -5.666  0.00  0.00     0.009 A 
ENDBRANCH   1  17
BRANCH   1  23
HETATM   23  C   UNK N   1      25.954  24.652  -5.836  0.00  0.00     0.144 C 
HETATM   24  O   UNK N   1      24.815  25.001  -5.563  0.00  0.00    -0.296 OA
BRANCH  23  25
HETATM   25  C   UNK N   1      26.279  23.187  -5.895  0.00  0.00     0.075 C 
HETATM   26  C   UNK N   1      25.561  22.528  -7.056  0.00  0.00     0.013 C 
ENDBRANCH  23  25
ENDBRANCH   1  23
TORSDOF 7
ENDMDL
MODEL 5
REMARK VINA RESULT:      -6.2     11.008     14.129
REMARK  7 active torsions:
REMARK  status: ('A' for Active; 'I' for Inactive)
REMARK    1  A    between atoms: N_2  and  C_3 
REMARK    2  A    between atoms: C_3  and  C_4 
REMARK    3  A    between atoms: C_4  and  C_5 
REMARK    4  A    between atoms: C_5  and  C_12 
REMARK    5  A    between atoms: C_5  and  C_13 
REMARK    6  A    between atoms: C_5  and  C_14 
REMARK    7  A    between atoms: C_14  and  C_15 
ROOT
HETATM    1  C   UNK N   1      28.986  17.360   4.882  0.00  0.00     0.076 C 
ENDROOT
BRANCH   1   2
HETATM    2  C   UNK N   1      28.645  16.975   3.408  0.00  0.00     0.062 C 
BRANCH   2   3
HETATM    3  C   UNK N   1      28.037  15.600   3.037  0.00  0.00     0.220 C 
HETATM    4  C   UNK N   1      29.145  14.741   2.434  0.00  0.00     0.043 C 
BRANCH   3   5
HETATM    5  N   UNK N   1      26.828  15.649   2.192  0.00  0.00     0.092 N 
HETATM    6  C   UNK N   1      26.300  14.281   1.997  0.00  0.00     0.273 C 
HETATM    7  C   UNK N   1      24.842  14.287   1.545  0.00  0.00     0.030 C 
HETATM    8  C   UNK N   1      23.948  14.918   2.616  0.00  0.00     0.003 C 
HETATM    9  C   UNK N   1      24.718  15.843   3.560  0.00  0.00     0.030 C 
HETATM   10  C   UNK N   1      25.835  16.558   2.803  0.00  0.00     0.273 C 
ENDBRANCH   3   5
ENDBRANCH   2   3
ENDBRANCH   1   2
BRANCH   1  11
HETATM   11  C   UNK N   1      28.210  18.653   5.200  0.00  0.00    -0.037 A 
HETATM   12  C   UNK N   1      27.521  19.299   4.152  0.00  0.00     0.009 A 
HETATM   13  C   UNK N   1      26.799  20.472   4.379  0.00  0.00     0.001 A 
HETATM   14  C   UNK N   1      26.743  21.017   5.662  0.00  0.00     0.000 A 
HETATM   15  C   UNK N   1      27.410  20.389   6.716  0.00  0.00     0.001 A 
HETATM   16  C   UNK N   1      28.136  19.216   6.486  0.00  0.00     0.009 A 
ENDBRANCH   1  11
BRANCH   1  17
HETATM   17  C   UNK N   1      30.513  17.342   5.081  0.00  0.00    -0.037 A 
HETATM   18  C   UNK N   1      31.117  17.285   6.350  0.00  0.00     0.009 A 
HETATM   19  C   UNK N   1      32.507  17.273   6.486  0.00  0.00     0.001 A 
HETATM   20  C   UNK N   1      33.320  17.315   5.353  0.00  0.00     0.000 A 
HETATM   21  C   UNK N   1      32.742  17.369   4.085  0.00  0.00     0.001 A 
HETATM   22  C   UNK N   1      31.352  17.381   3.950  0.00  0.00     0.009 A 
ENDBRANCH   1  17
BRANCH   1  23
HETATM   23  C   UNK N   1      28.412  16.308   5.827  0.00  0.00     0.144 C 
HETATM   24  O   UNK N   1      29.041  15.296   6.098  0.00  0.00    -0.296 OA
BRANCH  23  25
HETATM   25  C   UNK N   1      27.058  16.519   6.442  0.00  0.00     0.075 C 
HETATM   26  C   UNK N   1      26.368  15.190   6.679  0.00  0.00     0.013 C 
ENDBRANCH  23  25
ENDBRANCH   1  23
TORSDOF 7
ENDMDL
MODEL 6
REMARK VINA RESULT:      -6.1     13.396     15.892
REMARK  7 active torsions:
REMARK  status: ('A' for Active; 'I' for Inactive)
REMARK    1  A    between atoms: N_2  and  C_3 
REMARK    2  A    between atoms: C_3  and  C_4 
REMARK    3  A    between atoms: C_4  and  C_5 
REMARK    4  A    between atoms: C_5  and  C_12 
REMARK    5  A    between atoms: C_5  and  C_13 
REMARK    6  A    between atoms: C_5  and  C_14 
REMARK    7  A    between atoms: C_14  and  C_15 
ROOT
HETATM    1  C   UNK N   1      22.124  13.909   7.967  0.00  0.00     0.076 C 
ENDROOT
BRANCH   1   2
HETATM    2  C   UNK N   1      23.324  14.381   7.087  0.00  0.00     0.062 C 
BRANCH   2   3
HETATM    3  C   UNK N   1      23.717  13.654   5.777  0.00  0.00     0.220 C 
HETATM    4  C   UNK N   1      25.065  12.975   6.001  0.00  0.00     0.043 C 
BRANCH   3   5
HETATM    5  N   UNK N   1      23.692  14.486   4.558  0.00  0.00     0.092 N 
HETATM    6  C   UNK N   1      22.323  15.003   4.336  0.00  0.00     0.273 C 
HETATM    7  C   UNK N   1      22.310  16.208   3.400  0.00  0.00     0.030 C 
HETATM    8  C   UNK N   1      23.090  17.375   4.011  0.00  0.00     0.003 C 
HETATM    9  C   UNK N   1      24.105  16.923   5.062  0.00  0.00     0.030 C 
HETATM   10  C   UNK N   1      24.693  15.567   4.679  0.00  0.00     0.273 C 
ENDBRANCH   3   5
ENDBRANCH   2   3
ENDBRANCH   1   2
BRANCH   1  11
HETATM   11  C   UNK N   1      21.185  15.120   8.133  0.00  0.00    -0.037 A 
HETATM   12  C   UNK N   1      21.400  16.254   7.323  0.00  0.00     0.009 A 
HETATM   13  C   UNK N   1      20.581  17.380   7.426  0.00  0.00     0.001 A 
HETATM   14  C   UNK N   1      19.523  17.389   8.335  0.00  0.00     0.000 A 
HETATM   15  C   UNK N   1      19.286  16.273   9.140  0.00  0.00     0.001 A 
HETATM   16  C   UNK N   1      20.110  15.148   9.038  0.00  0.00     0.009 A 
ENDBRANCH   1  11
BRANCH   1  17
HETATM   17  C   UNK N   1      22.655  13.202   9.229  0.00  0.00    -0.037 A 
HETATM   18  C   UNK N   1      21.810  12.695  10.232  0.00  0.00     0.009 A 
HETATM   19  C   UNK N   1      22.334  12.062  11.362  0.00  0.00     0.001 A 
HETATM   20  C   UNK N   1      23.715  11.923  11.507  0.00  0.00     0.000 A 
HETATM   21  C   UNK N   1      24.570  12.416  10.522  0.00  0.00     0.001 A 
HETATM   22  C   UNK N   1      24.046  13.049   9.393  0.00  0.00     0.009 A 
ENDBRANCH   1  17
BRANCH   1  23
HETATM   23  C   UNK N   1      21.307  12.873   7.200  0.00  0.00     0.144 C 
HETATM   24  O   UNK N   1      20.243  13.172   6.679  0.00  0.00    -0.296 OA
BRANCH  23  25
HETATM   25  C   UNK N   1      21.816  11.466   7.075  0.00  0.00     0.075 C 
HETATM   26  C   UNK N   1      21.273  10.813   5.820  0.00  0.00     0.013 C 
ENDBRANCH  23  25
ENDBRANCH   1  23
TORSDOF 7
ENDMDL
MODEL 7
REMARK VINA RESULT:      -6.0     23.432     26.746
REMARK  7 active torsions:
REMARK  status: ('A' for Active; 'I' for Inactive)
REMARK    1  A    between atoms: N_2  and  C_3 
REMARK    2  A    between atoms: C_3  and  C_4 
REMARK    3  A    between atoms: C_4  and  C_5 
REMARK    4  A    between atoms: C_5  and  C_12 
REMARK    5  A    between atoms: C_5  and  C_13 
REMARK    6  A    between atoms: C_5  and  C_14 
REMARK    7  A    between atoms: C_14  and  C_15 
ROOT
HETATM    1  C   UNK N   1      26.871  24.923  -6.919  0.00  0.00     0.076 C 
ENDROOT
BRANCH   1   2
HETATM    2  C   UNK N   1      28.314  24.416  -6.608  0.00  0.00     0.062 C 
BRANCH   2   3
HETATM    3  C   UNK N   1      28.581  23.006  -6.022  0.00  0.00     0.220 C 
HETATM    4  C   UNK N   1      28.991  23.172  -4.562  0.00  0.00     0.043 C 
BRANCH   3   5
HETATM    5  N   UNK N   1      29.525  22.170  -6.789  0.00  0.00     0.092 N 
HETATM    6  C   UNK N   1      30.001  21.053  -5.944  0.00  0.00     0.273 C 
HETATM    7  C   UNK N   1      30.592  19.917  -6.774  0.00  0.00     0.030 C 
HETATM    8  C   UNK N   1      29.528  19.307  -7.691  0.00  0.00     0.003 C 
HETATM    9  C   UNK N   1      28.367  20.265  -7.968  0.00  0.00     0.030 C 
HETATM   10  C   UNK N   1      28.874  21.704  -8.032  0.00  0.00     0.273 C 
ENDBRANCH   3   5
ENDBRANCH   2   3
ENDBRANCH   1   2
BRANCH   1  11
HETATM   11  C   UNK N   1      26.840  25.298  -8.414  0.00  0.00    -0.037 A 
HETATM   12  C   UNK N   1      28.007  25.102  -9.181  0.00  0.00     0.009 A 
HETATM   13  C   UNK N   1      28.038  25.420 -10.540  0.00  0.00     0.001 A 
HETATM   14  C   UNK N   1      26.899  25.933 -11.161  0.00  0.00     0.000 A 
HETATM   15  C   UNK N   1      25.730  26.127 -10.422  0.00  0.00     0.001 A 
HETATM   16  C   UNK N   1      25.701  25.810  -9.060  0.00  0.00     0.009 A 
ENDBRANCH   1  11
BRANCH   1  17
HETATM   17  C   UNK N   1      26.459  25.981  -5.878  0.00  0.00    -0.037 A 
HETATM   18  C   UNK N   1      25.269  26.724  -5.975  0.00  0.00     0.009 A 
HETATM   19  C   UNK N   1      24.934  27.676  -5.009  0.00  0.00     0.001 A 
HETATM   20  C   UNK N   1      25.785  27.901  -3.926  0.00  0.00     0.000 A 
HETATM   21  C   UNK N   1      26.969  27.174  -3.810  0.00  0.00     0.001 A 
HETATM   22  C   UNK N   1      27.303  26.222  -4.776  0.00  0.00     0.009 A 
ENDBRANCH   1  17
BRANCH   1  23
HETATM   23  C   UNK N   1      25.884  23.767  -6.778  0.00  0.00     0.144 C 
HETATM   24  O   UNK N   1      25.317  23.551  -5.717  0.00  0.00    -0.296 OA
BRANCH  23  25
HETATM   25  C   UNK N   1      25.598  22.884  -7.958  0.00  0.00     0.075 C 
HETATM   26  C   UNK N   1      24.905  21.610  -7.514  0.00  0.00     0.013 C 
ENDBRANCH  23  25
ENDBRANCH   1  23
TORSDOF 7
ENDMDL
MODEL 8
REMARK VINA RESULT:      -6.0     10.165     13.186
REMARK  7 active torsions:
REMARK  status: ('A' for Active; 'I' for Inactive)
REMARK    1  A    between atoms: N_2  and  C_3 
REMARK    2  A    between atoms: C_3  and  C_4 
REMARK    3  A    between atoms: C_4  and  C_5 
REMARK    4  A    between atoms: C_5  and  C_12 
REMARK    5  A    between atoms: C_5  and  C_13 
REMARK    6  A    between atoms: C_5  and  C_14 
REMARK    7  A    between atoms: C_14  and  C_15 
ROOT
HETATM    1  C   UNK N   1      28.292  16.726   5.751  0.00  0.00     0.076 C 
ENDROOT
BRANCH   1   2
HETATM    2  C   UNK N   1      29.217  15.917   4.790  0.00  0.00     0.062 C 
BRANCH   2   3
HETATM    3  C   UNK N   1      29.611  16.448   3.388  0.00  0.00     0.220 C 
HETATM    4  C   UNK N   1      29.012  15.510   2.344  0.00  0.00     0.043 C 
BRANCH   3   5
HETATM    5  N   UNK N   1      31.053  16.685   3.183  0.00  0.00     0.092 N 
HETATM    6  C   UNK N   1      31.545  17.656   4.185  0.00  0.00     0.273 C 
HETATM    7  C   UNK N   1      33.063  17.603   4.338  0.00  0.00     0.030 C 
HETATM    8  C   UNK N   1      33.506  16.230   4.852  0.00  0.00     0.003 C 
HETATM    9  C   UNK N   1      32.478  15.133   4.568  0.00  0.00     0.030 C 
HETATM   10  C   UNK N   1      31.777  15.398   3.238  0.00  0.00     0.273 C 
ENDBRANCH   3   5
ENDBRANCH   2   3
ENDBRANCH   1   2
BRANCH   1  11
HETATM   11  C   UNK N   1      27.518  17.738   4.885  0.00  0.00    -0.037 A 
HETATM   12  C   UNK N   1      26.298  17.333   4.305  0.00  0.00     0.009 A 
HETATM   13  C   UNK N   1      25.550  18.206   3.513  0.00  0.00     0.001 A 
HETATM   14  C   UNK N   1      26.004  19.506   3.292  0.00  0.00     0.000 A 
HETATM   15  C   UNK N   1      27.205  19.931   3.864  0.00  0.00     0.001 A 
HETATM   16  C   UNK N   1      27.954  19.054   4.655  0.00  0.00     0.009 A 
ENDBRANCH   1  11
BRANCH   1  17
HETATM   17  C   UNK N   1      29.114  17.246   6.946  0.00  0.00    -0.037 A 
HETATM   18  C   UNK N   1      28.671  18.284   7.783  0.00  0.00     0.009 A 
HETATM   19  C   UNK N   1      29.451  18.727   8.855  0.00  0.00     0.001 A 
HETATM   20  C   UNK N   1      30.689  18.136   9.109  0.00  0.00     0.000 A 
HETATM   21  C   UNK N   1      31.146  17.102   8.292  0.00  0.00     0.001 A 
HETATM   22  C   UNK N   1      30.366  16.660   7.221  0.00  0.00     0.009 A 
ENDBRANCH   1  17
BRANCH   1  23
HETATM   23  C   UNK N   1      27.225  15.799   6.330  0.00  0.00     0.144 C 
HETATM   24  O   UNK N   1      26.564  16.131   7.302  0.00  0.00    -0.296 OA
BRANCH  23  25
HETATM   25  C   UNK N   1      26.976  14.462   5.693  0.00  0.00     0.075 C 
HETATM   26  C   UNK N   1      25.599  13.946   6.061  0.00  0.00     0.013 C 
ENDBRANCH  23  25
ENDBRANCH   1  23
TORSDOF 7
ENDMDL
MODEL 9
REMARK VINA RESULT:      -6.0     21.551     25.332
REMARK  7 active torsions:
REMARK  status: ('A' for Active; 'I' for Inactive)
REMARK    1  A    between atoms: N_2  and  C_3 
REMARK    2  A    between atoms: C_3  and  C_4 
REMARK    3  A    between atoms: C_4  and  C_5 
REMARK    4  A    between atoms: C_5  and  C_12 
REMARK    5  A    between atoms: C_5  and  C_13 
REMARK    6  A    between atoms: C_5  and  C_14 
REMARK    7  A    between atoms: C_14  and  C_15 
ROOT
HETATM    1  C   UNK N   1      28.654  22.945  -6.196  0.00  0.00     0.076 C 
ENDROOT
BRANCH   1   2
HETATM    2  C   UNK N   1      28.033  23.855  -5.090  0.00  0.00     0.062 C 
BRANCH   2   3
HETATM    3  C   UNK N   1      28.157  25.399  -5.132  0.00  0.00     0.220 C 
HETATM    4  C   UNK N   1      29.183  25.818  -4.082  0.00  0.00     0.043 C 
BRANCH   3   5
HETATM    5  N   UNK N   1      26.885  26.139  -5.015  0.00  0.00     0.092 N 
HETATM    6  C   UNK N   1      26.734  26.654  -3.637  0.00  0.00     0.273 C 
HETATM    7  C   UNK N   1      25.714  27.788  -3.557  0.00  0.00     0.030 C 
HETATM    8  C   UNK N   1      26.173  28.987  -4.390  0.00  0.00     0.003 C 
HETATM    9  C   UNK N   1      27.173  28.601  -5.482  0.00  0.00     0.030 C 
HETATM   10  C   UNK N   1      26.846  27.214  -6.030  0.00  0.00     0.273 C 
ENDBRANCH   3   5
ENDBRANCH   2   3
ENDBRANCH   1   2
BRANCH   1  11
HETATM   11  C   UNK N   1      27.481  22.343  -6.993  0.00  0.00    -0.037 A 
HETATM   12  C   UNK N   1      26.170  22.757  -6.676  0.00  0.00     0.009 A 
HETATM   13  C   UNK N   1      25.067  22.248  -7.366  0.00  0.00     0.001 A 
HETATM   14  C   UNK N   1      25.254  21.323  -8.392  0.00  0.00     0.000 A 
HETATM   15  C   UNK N   1      26.544  20.907  -8.728  0.00  0.00     0.001 A 
HETATM   16  C   UNK N   1      27.647  21.414  -8.035  0.00  0.00     0.009 A 
ENDBRANCH   1  11
BRANCH   1  17
HETATM   17  C   UNK N   1      29.688  21.994  -5.564  0.00  0.00    -0.037 A 
HETATM   18  C   UNK N   1      30.340  20.983  -6.291  0.00  0.00     0.009 A 
HETATM   19  C   UNK N   1      31.271  20.141  -5.678  0.00  0.00     0.001 A 
HETATM   20  C   UNK N   1      31.568  20.297  -4.323  0.00  0.00     0.000 A 
HETATM   21  C   UNK N   1      30.934  21.295  -3.584  0.00  0.00     0.001 A 
HETATM   22  C   UNK N   1      30.004  22.137  -4.198  0.00  0.00     0.009 A 
ENDBRANCH   1  17
BRANCH   1  23
HETATM   23  C   UNK N   1      29.414  23.809  -7.198  0.00  0.00     0.144 C 
HETATM   24  O   UNK N   1      30.596  24.074  -7.031  0.00  0.00    -0.296 OA
BRANCH  23  25
HETATM   25  C   UNK N   1      28.707  24.339  -8.413  0.00  0.00     0.075 C 
HETATM   26  C   UNK N   1      29.137  25.764  -8.700  0.00  0.00     0.013 C 
ENDBRANCH  23  25
ENDBRANCH   1  23
TORSDOF 7
ENDMDL
