REMARK  7 active torsions:
REMARK  status: ('A' for Active; 'I' for Inactive)
REMARK    1  A    between atoms: N_2  and  C_3 
REMARK    2  A    between atoms: C_3  and  C_4 
REMARK    3  A    between atoms: C_4  and  C_5 
REMARK    4  A    between atoms: C_5  and  C_12 
REMARK    5  A    between atoms: C_5  and  C_13 
REMARK    6  A    between atoms: C_5  and  C_14 
REMARK    7  A    between atoms: C_14  and  C_15 
ROOT
HETATM    1  C   UNK N   1       5.672  -0.067  -0.506  0.00  0.00     0.076 C 
ENDROOT
BRANCH   1   2
HETATM    2  C   UNK N   1       4.705  -0.247  -1.718  0.00  0.00     0.062 C 
BRANCH   2   3
HETATM    3  C   UNK N   1       3.212   0.160  -1.645  0.00  0.00     0.220 C 
HETATM    4  C   UNK N   1       3.067   1.537  -2.287  0.00  0.00     0.043 C 
BRANCH   3   5
HETATM    5  N   UNK N   1       2.601   0.088  -0.303  0.00  0.00     0.092 N 
HETATM    6  C   UNK N   1       1.232   0.647  -0.349  0.00  0.00     0.273 C 
HETATM    7  C   UNK N   1       0.389   0.198   0.842  0.00  0.00     0.030 C 
HETATM    8  C   UNK N   1       0.207  -1.322   0.832  0.00  0.00     0.003 C 
HETATM    9  C   UNK N   1       1.295  -2.043   0.034  0.00  0.00     0.030 C 
HETATM   10  C   UNK N   1       2.627  -1.310   0.176  0.00  0.00     0.273 C 
ENDBRANCH   3   5
ENDBRANCH   2   3
ENDBRANCH   1   2
BRANCH   1  11
HETATM   11  C   UNK N   1       5.610  -1.369   0.316  0.00  0.00    -0.037 A 
HETATM   12  C   UNK N   1       5.843  -2.593  -0.345  0.00  0.00     0.009 A 
HETATM   13  C   UNK N   1       5.803  -3.805   0.347  0.00  0.00     0.001 A 
HETATM   14  C   UNK N   1       5.538  -3.816   1.716  0.00  0.00     0.000 A 
HETATM   15  C   UNK N   1       5.314  -2.615   2.392  0.00  0.00     0.001 A 
HETATM   16  C   UNK N   1       5.351  -1.402   1.697  0.00  0.00     0.009 A 
ENDBRANCH   1  11
BRANCH   1  17
HETATM   17  C   UNK N   1       5.376   1.271   0.198  0.00  0.00    -0.037 A 
HETATM   18  C   UNK N   1       4.985   1.354   1.546  0.00  0.00     0.009 A 
HETATM   19  C   UNK N   1       4.724   2.589   2.145  0.00  0.00     0.001 A 
HETATM   20  C   UNK N   1       4.852   3.765   1.405  0.00  0.00     0.000 A 
HETATM   21  C   UNK N   1       5.241   3.705   0.067  0.00  0.00     0.001 A 
HETATM   22  C   UNK N   1       5.502   2.470  -0.531  0.00  0.00     0.009 A 
ENDBRANCH   1  17
BRANCH   1  23
HETATM   23  C   UNK N   1       7.110   0.017  -1.011  0.00  0.00     0.144 C 
HETATM   24  O   UNK N   1       7.361  -0.035  -2.206  0.00  0.00    -0.296 OA
BRANCH  23  25
HETATM   25  C   UNK N   1       8.236   0.173  -0.030  0.00  0.00     0.075 C 
HETATM   26  C   UNK N   1       9.145  -1.040  -0.065  0.00  0.00     0.013 C 
ENDBRANCH  23  25
ENDBRANCH   1  23
TORSDOF 7
