MODEL 1
REMARK VINA RESULT:      -3.8      0.000      0.000
REMARK  5 active torsions:
REMARK  status: ('A' for Active; 'I' for Inactive)
REMARK    1  A    between atoms: O_6  and  C_14 
REMARK    2  A    between atoms: O_7  and  C_14 
REMARK    3  A    between atoms: N_8  and  C_9 
REMARK    4  A    between atoms: C_9  and  C_13 
REMARK    5  A    between atoms: C_14  and  C_15 
ROOT
HETATM    1  N   UNK N   1      34.449  16.141   9.427  0.00  0.00    -0.069 N 
HETATM    2  C   UNK N   1      35.229  15.470   8.398  0.00  0.00     0.272 C 
HETATM    3  C   UNK N   1      33.470  15.190   9.918  0.00  0.00     0.272 C 
HETATM    4  C   UNK N   1      35.307  16.519  10.539  0.00  0.00     0.272 C 
ENDROOT
BRANCH   1   5
HETATM    5  C   UNK N   1      33.715  17.300   8.898  0.00  0.00     0.348 C 
BRANCH   5   6
HETATM    6  C   UNK N   1      34.507  18.244   8.017  0.00  0.00     0.199 C 
HETATM    7  O   UNK N   1      34.425  18.106   6.678  0.00  0.00    -0.647 OA
HETATM    8  O   UNK N   1      35.220  19.109   8.488  0.00  0.00    -0.647 OA
ENDBRANCH   5   6
ENDBRANCH   1   5
TORSDOF 5
ENDMDL
MODEL 2
REMARK VINA RESULT:      -3.4      2.083      2.833
REMARK  5 active torsions:
REMARK  status: ('A' for Active; 'I' for Inactive)
REMARK    1  A    between atoms: O_6  and  C_14 
REMARK    2  A    between atoms: O_7  and  C_14 
REMARK    3  A    between atoms: N_8  and  C_9 
REMARK    4  A    between atoms: C_9  and  C_13 
REMARK    5  A    between atoms: C_14  and  C_15 
ROOT
HETATM    1  N   UNK N   1      31.914  17.011   8.061  0.00  0.00    -0.069 N 
HETATM    2  C   UNK N   1      31.602  16.811   6.655  0.00  0.00     0.272 C 
HETATM    3  C   UNK N   1      30.656  17.157   8.769  0.00  0.00     0.272 C 
HETATM    4  C   UNK N   1      32.596  15.842   8.594  0.00  0.00     0.272 C 
ENDROOT
BRANCH   1   5
HETATM    5  C   UNK N   1      32.695  18.237   8.287  0.00  0.00     0.348 C 
BRANCH   5   6
HETATM    6  C   UNK N   1      34.177  18.147   7.984  0.00  0.00     0.199 C 
HETATM    7  O   UNK N   1      35.054  18.205   9.006  0.00  0.00    -0.647 OA
HETATM    8  O   UNK N   1      34.589  18.038   6.845  0.00  0.00    -0.647 OA
ENDBRANCH   5   6
ENDBRANCH   1   5
TORSDOF 5
ENDMDL
MODEL 3
REMARK VINA RESULT:      -3.4      2.067      2.892
REMARK  5 active torsions:
REMARK  status: ('A' for Active; 'I' for Inactive)
REMARK    1  A    between atoms: O_6  and  C_14 
REMARK    2  A    between atoms: O_7  and  C_14 
REMARK    3  A    between atoms: N_8  and  C_9 
REMARK    4  A    between atoms: C_9  and  C_13 
REMARK    5  A    between atoms: C_14  and  C_15 
ROOT
HETATM    1  N   UNK N   1      32.546  17.056   7.489  0.00  0.00    -0.069 N 
HETATM    2  C   UNK N   1      32.426  15.686   7.963  0.00  0.00     0.272 C 
HETATM    3  C   UNK N   1      31.869  17.133   6.208  0.00  0.00     0.272 C 
HETATM    4  C   UNK N   1      31.876  17.963   8.407  0.00  0.00     0.272 C 
ENDROOT
BRANCH   1   5
HETATM    5  C   UNK N   1      33.946  17.448   7.274  0.00  0.00     0.348 C 
BRANCH   5   6
HETATM    6  C   UNK N   1      34.641  18.107   8.449  0.00  0.00     0.199 C 
HETATM    7  O   UNK N   1      34.777  17.411   9.596  0.00  0.00    -0.647 OA
HETATM    8  O   UNK N   1      35.062  19.245   8.384  0.00  0.00    -0.647 OA
ENDBRANCH   5   6
ENDBRANCH   1   5
TORSDOF 5
ENDMDL
MODEL 4
REMARK VINA RESULT:      -3.3     14.726     15.355
REMARK  5 active torsions:
REMARK  status: ('A' for Active; 'I' for Inactive)
REMARK    1  A    between atoms: O_6  and  C_14 
REMARK    2  A    between atoms: O_7  and  C_14 
REMARK    3  A    between atoms: N_8  and  C_9 
REMARK    4  A    between atoms: C_9  and  C_13 
REMARK    5  A    between atoms: C_14  and  C_15 
ROOT
HETATM    1  N   UNK N   1      20.441  18.209   2.631  0.00  0.00    -0.069 N 
HETATM    2  C   UNK N   1      20.274  17.531   1.354  0.00  0.00     0.272 C 
HETATM    3  C   UNK N   1      19.529  17.590   3.574  0.00  0.00     0.272 C 
HETATM    4  C   UNK N   1      21.796  18.021   3.124  0.00  0.00     0.272 C 
ENDROOT
BRANCH   1   5
HETATM    5  C   UNK N   1      20.092  19.636   2.550  0.00  0.00     0.348 C 
BRANCH   5   6
HETATM    6  C   UNK N   1      21.158  20.549   1.979  0.00  0.00     0.199 C 
HETATM    7  O   UNK N   1      21.335  20.585   0.643  0.00  0.00    -0.647 OA
HETATM    8  O   UNK N   1      21.860  21.236   2.695  0.00  0.00    -0.647 OA
ENDBRANCH   5   6
ENDBRANCH   1   5
TORSDOF 5
ENDMDL
MODEL 5
REMARK VINA RESULT:      -3.1      1.843      2.586
REMARK  5 active torsions:
REMARK  status: ('A' for Active; 'I' for Inactive)
REMARK    1  A    between atoms: O_6  and  C_14 
REMARK    2  A    between atoms: O_7  and  C_14 
REMARK    3  A    between atoms: N_8  and  C_9 
REMARK    4  A    between atoms: C_9  and  C_13 
REMARK    5  A    between atoms: C_14  and  C_15 
ROOT
HETATM    1  N   UNK N   1      32.856  16.409   8.440  0.00  0.00    -0.069 N 
HETATM    2  C   UNK N   1      34.097  16.738   9.124  0.00  0.00     0.272 C 
HETATM    3  C   UNK N   1      32.230  15.325   9.173  0.00  0.00     0.272 C 
HETATM    4  C   UNK N   1      31.953  17.550   8.465  0.00  0.00     0.272 C 
ENDROOT
BRANCH   1   5
HETATM    5  C   UNK N   1      33.088  15.939   7.066  0.00  0.00     0.348 C 
BRANCH   5   6
HETATM    6  C   UNK N   1      34.244  16.585   6.328  0.00  0.00     0.199 C 
HETATM    7  O   UNK N   1      34.137  17.877   5.958  0.00  0.00    -0.647 OA
HETATM    8  O   UNK N   1      35.251  15.963   6.053  0.00  0.00    -0.647 OA
ENDBRANCH   5   6
ENDBRANCH   1   5
TORSDOF 5
ENDMDL
MODEL 6
REMARK VINA RESULT:      -3.1     14.311     14.981
REMARK  5 active torsions:
REMARK  status: ('A' for Active; 'I' for Inactive)
REMARK    1  A    between atoms: O_6  and  C_14 
REMARK    2  A    between atoms: O_7  and  C_14 
REMARK    3  A    between atoms: N_8  and  C_9 
REMARK    4  A    between atoms: C_9  and  C_13 
REMARK    5  A    between atoms: C_14  and  C_15 
ROOT
HETATM    1  N   UNK N   1      20.808  17.514   2.995  0.00  0.00    -0.069 N 
HETATM    2  C   UNK N   1      19.757  17.183   3.944  0.00  0.00     0.272 C 
HETATM    3  C   UNK N   1      21.615  16.323   2.807  0.00  0.00     0.272 C 
HETATM    4  C   UNK N   1      20.228  17.871   1.710  0.00  0.00     0.272 C 
ENDROOT
BRANCH   1   5
HETATM    5  C   UNK N   1      21.695  18.575   3.496  0.00  0.00     0.348 C 
BRANCH   5   6
HETATM    6  C   UNK N   1      21.267  19.997   3.196  0.00  0.00     0.199 C 
HETATM    7  O   UNK N   1      21.912  20.678   2.227  0.00  0.00    -0.647 OA
HETATM    8  O   UNK N   1      20.370  20.537   3.813  0.00  0.00    -0.647 OA
ENDBRANCH   5   6
ENDBRANCH   1   5
TORSDOF 5
ENDMDL
MODEL 7
REMARK VINA RESULT:      -3.1     13.428     14.723
REMARK  5 active torsions:
REMARK  status: ('A' for Active; 'I' for Inactive)
REMARK    1  A    between atoms: O_6  and  C_14 
REMARK    2  A    between atoms: O_7  and  C_14 
REMARK    3  A    between atoms: N_8  and  C_9 
REMARK    4  A    between atoms: C_9  and  C_13 
REMARK    5  A    between atoms: C_14  and  C_15 
ROOT
HETATM    1  N   UNK N   1      30.333  22.752  -4.887  0.00  0.00    -0.069 N 
HETATM    2  C   UNK N   1      30.231  21.303  -4.800  0.00  0.00     0.272 C 
HETATM    3  C   UNK N   1      30.853  23.072  -6.204  0.00  0.00     0.272 C 
HETATM    4  C   UNK N   1      29.016  23.355  -4.765  0.00  0.00     0.272 C 
ENDROOT
BRANCH   1   5
HETATM    5  C   UNK N   1      31.270  23.303  -3.896  0.00  0.00     0.348 C 
BRANCH   5   6
HETATM    6  C   UNK N   1      31.249  22.651  -2.528  0.00  0.00     0.199 C 
HETATM    7  O   UNK N   1      32.150  21.684  -2.256  0.00  0.00    -0.647 OA
HETATM    8  O   UNK N   1      30.437  22.969  -1.682  0.00  0.00    -0.647 OA
ENDBRANCH   5   6
ENDBRANCH   1   5
TORSDOF 5
ENDMDL
MODEL 8
REMARK VINA RESULT:      -2.9     10.691     11.696
REMARK  5 active torsions:
REMARK  status: ('A' for Active; 'I' for Inactive)
REMARK    1  A    between atoms: O_6  and  C_14 
REMARK    2  A    between atoms: O_7  and  C_14 
REMARK    3  A    between atoms: N_8  and  C_9 
REMARK    4  A    between atoms: C_9  and  C_13 
REMARK    5  A    between atoms: C_14  and  C_15 
ROOT
HETATM    1  N   UNK N   1      42.435  21.669   2.512  0.00  0.00    -0.069 N 
HETATM    2  C   UNK N   1      42.195  20.561   3.423  0.00  0.00     0.272 C 
HETATM    3  C   UNK N   1      43.152  21.143   1.365  0.00  0.00     0.272 C 
HETATM    4  C   UNK N   1      41.171  22.212   2.040  0.00  0.00     0.272 C 
ENDROOT
BRANCH   1   5
HETATM    5  C   UNK N   1      43.275  22.713   3.118  0.00  0.00     0.348 C 
BRANCH   5   6
HETATM    6  C   UNK N   1      44.152  22.275   4.273  0.00  0.00     0.199 C 
HETATM    7  O   UNK N   1      43.808  22.641   5.524  0.00  0.00    -0.647 OA
HETATM    8  O   UNK N   1      45.158  21.616   4.096  0.00  0.00    -0.647 OA
ENDBRANCH   5   6
ENDBRANCH   1   5
TORSDOF 5
ENDMDL
MODEL 9
REMARK VINA RESULT:      -2.9     16.644     17.903
REMARK  5 active torsions:
REMARK  status: ('A' for Active; 'I' for Inactive)
REMARK    1  A    between atoms: O_6  and  C_14 
REMARK    2  A    between atoms: O_7  and  C_14 
REMARK    3  A    between atoms: N_8  and  C_9 
REMARK    4  A    between atoms: C_9  and  C_13 
REMARK    5  A    between atoms: C_14  and  C_15 
ROOT
HETATM    1  N   UNK N   1      26.148  26.672  -4.633  0.00  0.00    -0.069 N 
HETATM    2  C   UNK N   1      26.088  27.213  -3.284  0.00  0.00     0.272 C 
HETATM    3  C   UNK N   1      25.005  27.190  -5.361  0.00  0.00     0.272 C 
HETATM    4  C   UNK N   1      27.354  27.131  -5.304  0.00  0.00     0.272 C 
ENDROOT
BRANCH   1   5
HETATM    5  C   UNK N   1      26.053  25.204  -4.646  0.00  0.00     0.348 C 
BRANCH   5   6
HETATM    6  C   UNK N   1      27.032  24.466  -3.756  0.00  0.00     0.199 C 
HETATM    7  O   UNK N   1      28.283  24.245  -4.209  0.00  0.00    -0.647 OA
HETATM    8  O   UNK N   1      26.713  24.061  -2.655  0.00  0.00    -0.647 OA
ENDBRANCH   5   6
ENDBRANCH   1   5
TORSDOF 5
ENDMDL
