MODEL 1
REMARK VINA RESULT:      -3.7      0.000      0.000
REMARK  7 active torsions:
REMARK  status: ('A' for Active; 'I' for Inactive)
REMARK    1  A    between atoms: O_8  and  C_25 
REMARK    2  A    between atoms: O_9  and  C_25 
REMARK    3  A    between atoms: O_10  and  C_26 
REMARK    4  A    between atoms: O_11  and  C_26 
REMARK    5  A    between atoms: N_13  and  C_15 
REMARK    6  A    between atoms: C_25  and  C_27 
REMARK    7  A    between atoms: C_26  and  C_28 
ROOT
HETATM    1  C   UNK N   1      20.728  20.954   0.964  0.00  0.00     0.163 C 
ENDROOT
BRANCH   1   2
HETATM    2  O   UNK N   1      20.568  22.292   0.996  0.00  0.00    -0.775 OA
HETATM    3  H   UNK N   1      20.083  23.052   1.249  0.00  0.00     0.167 HD
ENDBRANCH   1   2
BRANCH   1   4
HETATM    4  O   UNK N   1      20.589  20.300  -0.206  0.00  0.00    -0.775 OA
HETATM    5  H   UNK N   1      21.127  19.916  -0.869  0.00  0.00     0.167 HD
ENDBRANCH   1   4
BRANCH   1   6
HETATM    6  C   UNK N   1      21.071  20.189   2.212  0.00  0.00     0.270 C 
HETATM    7 Cl   UNK N   1      20.085  20.785   3.570  0.00  0.00    -0.072 Cl
HETATM    8 Cl   UNK N   1      20.727  18.462   1.958  0.00  0.00    -0.072 Cl
HETATM    9 Cl   UNK N   1      22.795  20.355   2.643  0.00  0.00    -0.072 Cl
ENDBRANCH   1   6
TORSDOF 7
ENDMDL
MODEL 2
REMARK VINA RESULT:      -3.6     12.229     12.656
REMARK  7 active torsions:
REMARK  status: ('A' for Active; 'I' for Inactive)
REMARK    1  A    between atoms: O_8  and  C_25 
REMARK    2  A    between atoms: O_9  and  C_25 
REMARK    3  A    between atoms: O_10  and  C_26 
REMARK    4  A    between atoms: O_11  and  C_26 
REMARK    5  A    between atoms: N_13  and  C_15 
REMARK    6  A    between atoms: C_25  and  C_27 
REMARK    7  A    between atoms: C_26  and  C_28 
ROOT
HETATM    1  C   UNK N   1      23.737  12.024  11.392  0.00  0.00     0.163 C 
ENDROOT
BRANCH   1   2
HETATM    2  O   UNK N   1      22.714  11.446  12.052  0.00  0.00    -0.775 OA
HETATM    3  H   UNK N   1      22.315  11.150  12.847  0.00  0.00     0.167 HD
ENDBRANCH   1   2
BRANCH   1   4
HETATM    4  O   UNK N   1      24.930  12.151  12.004  0.00  0.00    -0.775 OA
HETATM    5  H   UNK N   1      25.486  11.661  12.577  0.00  0.00     0.167 HD
ENDBRANCH   1   4
BRANCH   1   6
HETATM    6  C   UNK N   1      23.564  12.515   9.981  0.00  0.00     0.270 C 
HETATM    7 Cl   UNK N   1      22.165  13.614   9.897  0.00  0.00    -0.072 Cl
HETATM    8 Cl   UNK N   1      25.026  13.396   9.480  0.00  0.00    -0.072 Cl
HETATM    9 Cl   UNK N   1      23.304  11.171   8.836  0.00  0.00    -0.072 Cl
ENDBRANCH   1   6
TORSDOF 7
ENDMDL
MODEL 3
REMARK VINA RESULT:      -3.6     12.225     12.652
REMARK  7 active torsions:
REMARK  status: ('A' for Active; 'I' for Inactive)
REMARK    1  A    between atoms: O_8  and  C_25 
REMARK    2  A    between atoms: O_9  and  C_25 
REMARK    3  A    between atoms: O_10  and  C_26 
REMARK    4  A    between atoms: O_11  and  C_26 
REMARK    5  A    between atoms: N_13  and  C_15 
REMARK    6  A    between atoms: C_25  and  C_27 
REMARK    7  A    between atoms: C_26  and  C_28 
ROOT
HETATM    1  C   UNK N   1      23.740  12.030  11.392  0.00  0.00     0.163 C 
ENDROOT
BRANCH   1   2
HETATM    2  O   UNK N   1      22.725  11.437  12.051  0.00  0.00    -0.775 OA
HETATM    3  H   UNK N   1      22.320  11.156  12.847  0.00  0.00     0.167 HD
ENDBRANCH   1   2
BRANCH   1   4
HETATM    4  O   UNK N   1      24.937  12.154  11.998  0.00  0.00    -0.775 OA
HETATM    5  H   UNK N   1      25.360  11.886  12.789  0.00  0.00     0.167 HD
ENDBRANCH   1   4
BRANCH   1   6
HETATM    6  C   UNK N   1      23.555  12.539   9.989  0.00  0.00     0.270 C 
HETATM    7 Cl   UNK N   1      25.020  13.408   9.470  0.00  0.00    -0.072 Cl
HETATM    8 Cl   UNK N   1      23.275  11.164   8.895  0.00  0.00    -0.072 Cl
HETATM    9 Cl   UNK N   1      22.160  13.645   9.862  0.00  0.00    -0.072 Cl
ENDBRANCH   1   6
TORSDOF 7
ENDMDL
MODEL 4
REMARK VINA RESULT:      -3.6     12.222     12.649
REMARK  7 active torsions:
REMARK  status: ('A' for Active; 'I' for Inactive)
REMARK    1  A    between atoms: O_8  and  C_25 
REMARK    2  A    between atoms: O_9  and  C_25 
REMARK    3  A    between atoms: O_10  and  C_26 
REMARK    4  A    between atoms: O_11  and  C_26 
REMARK    5  A    between atoms: N_13  and  C_15 
REMARK    6  A    between atoms: C_25  and  C_27 
REMARK    7  A    between atoms: C_26  and  C_28 
ROOT
HETATM    1  C   UNK N   1      23.740  12.027  11.383  0.00  0.00     0.163 C 
ENDROOT
BRANCH   1   2
HETATM    2  O   UNK N   1      22.715  11.442  12.033  0.00  0.00    -0.775 OA
HETATM    3  H   UNK N   1      22.031  11.466  12.673  0.00  0.00     0.167 HD
ENDBRANCH   1   2
BRANCH   1   4
HETATM    4  O   UNK N   1      24.928  12.156  12.005  0.00  0.00    -0.775 OA
HETATM    5  H   UNK N   1      25.842  12.116  11.801  0.00  0.00     0.167 HD
ENDBRANCH   1   4
BRANCH   1   6
HETATM    6  C   UNK N   1      23.577  12.522   9.973  0.00  0.00     0.270 C 
HETATM    7 Cl   UNK N   1      23.299  11.142   8.882  0.00  0.00    -0.072 Cl
HETATM    8 Cl   UNK N   1      22.178  13.619   9.892  0.00  0.00    -0.072 Cl
HETATM    9 Cl   UNK N   1      25.017  13.414   9.410  0.00  0.00    -0.072 Cl
ENDBRANCH   1   6
TORSDOF 7
ENDMDL
MODEL 5
REMARK VINA RESULT:      -3.4     14.512     15.208
REMARK  7 active torsions:
REMARK  status: ('A' for Active; 'I' for Inactive)
REMARK    1  A    between atoms: O_8  and  C_25 
REMARK    2  A    between atoms: O_9  and  C_25 
REMARK    3  A    between atoms: O_10  and  C_26 
REMARK    4  A    between atoms: O_11  and  C_26 
REMARK    5  A    between atoms: N_13  and  C_15 
REMARK    6  A    between atoms: C_25  and  C_27 
REMARK    7  A    between atoms: C_26  and  C_28 
ROOT
HETATM    1  C   UNK N   1      34.754  17.995   8.757  0.00  0.00     0.163 C 
ENDROOT
BRANCH   1   2
HETATM    2  O   UNK N   1      35.239  19.191   8.368  0.00  0.00    -0.775 OA
HETATM    3  H   UNK N   1      35.950  19.794   8.271  0.00  0.00     0.167 HD
ENDBRANCH   1   2
BRANCH   1   4
HETATM    4  O   UNK N   1      35.251  17.409   9.863  0.00  0.00    -0.775 OA
HETATM    5  H   UNK N   1      36.031  17.427  10.383  0.00  0.00     0.167 HD
ENDBRANCH   1   4
BRANCH   1   6
HETATM    6  C   UNK N   1      33.660  17.318   7.979  0.00  0.00     0.270 C 
HETATM    7 Cl   UNK N   1      33.686  15.568   8.308  0.00  0.00    -0.072 Cl
HETATM    8 Cl   UNK N   1      32.086  17.981   8.477  0.00  0.00    -0.072 Cl
HETATM    9 Cl   UNK N   1      33.839  17.571   6.221  0.00  0.00    -0.072 Cl
ENDBRANCH   1   6
TORSDOF 7
ENDMDL
MODEL 6
REMARK VINA RESULT:      -3.4     11.743     12.211
REMARK  7 active torsions:
REMARK  status: ('A' for Active; 'I' for Inactive)
REMARK    1  A    between atoms: O_8  and  C_25 
REMARK    2  A    between atoms: O_9  and  C_25 
REMARK    3  A    between atoms: O_10  and  C_26 
REMARK    4  A    between atoms: O_11  and  C_26 
REMARK    5  A    between atoms: N_13  and  C_15 
REMARK    6  A    between atoms: C_25  and  C_27 
REMARK    7  A    between atoms: C_26  and  C_28 
ROOT
HETATM    1  C   UNK N   1      24.790  13.017  10.134  0.00  0.00     0.163 C 
ENDROOT
BRANCH   1   2
HETATM    2  O   UNK N   1      25.229  13.562   8.982  0.00  0.00    -0.775 OA
HETATM    3  H   UNK N   1      25.698  13.500   8.174  0.00  0.00     0.167 HD
ENDBRANCH   1   2
BRANCH   1   4
HETATM    4  O   UNK N   1      25.603  12.998  11.208  0.00  0.00    -0.775 OA
HETATM    5  H   UNK N   1      25.540  13.008  12.143  0.00  0.00     0.167 HD
ENDBRANCH   1   4
BRANCH   1   6
HETATM    6  C   UNK N   1      23.403  12.445  10.236  0.00  0.00     0.270 C 
HETATM    7 Cl   UNK N   1      23.224  11.102   9.079  0.00  0.00    -0.072 Cl
HETATM    8 Cl   UNK N   1      23.138  11.832  11.885  0.00  0.00    -0.072 Cl
HETATM    9 Cl   UNK N   1      22.151  13.668   9.889  0.00  0.00    -0.072 Cl
ENDBRANCH   1   6
TORSDOF 7
ENDMDL
MODEL 7
REMARK VINA RESULT:      -3.4     20.314     20.960
REMARK  7 active torsions:
REMARK  status: ('A' for Active; 'I' for Inactive)
REMARK    1  A    between atoms: O_8  and  C_25 
REMARK    2  A    between atoms: O_9  and  C_25 
REMARK    3  A    between atoms: O_10  and  C_26 
REMARK    4  A    between atoms: O_11  and  C_26 
REMARK    5  A    between atoms: N_13  and  C_15 
REMARK    6  A    between atoms: C_25  and  C_27 
REMARK    7  A    between atoms: C_26  and  C_28 
ROOT
HETATM    1  C   UNK N   1      35.757  13.980  13.530  0.00  0.00     0.163 C 
ENDROOT
BRANCH   1   2
HETATM    2  O   UNK N   1      36.457  14.878  12.809  0.00  0.00    -0.775 OA
HETATM    3  H   UNK N   1      37.074  15.084  12.134  0.00  0.00     0.167 HD
ENDBRANCH   1   2
BRANCH   1   4
HETATM    4  O   UNK N   1      34.613  13.477  13.027  0.00  0.00    -0.775 OA
HETATM    5  H   UNK N   1      33.808  13.107  13.333  0.00  0.00     0.167 HD
ENDBRANCH   1   4
BRANCH   1   6
HETATM    6  C   UNK N   1      36.244  13.526  14.878  0.00  0.00     0.270 C 
HETATM    7 Cl   UNK N   1      37.280  12.090  14.688  0.00  0.00    -0.072 Cl
HETATM    8 Cl   UNK N   1      37.190  14.831  15.632  0.00  0.00    -0.072 Cl
HETATM    9 Cl   UNK N   1      34.893  13.116  15.970  0.00  0.00    -0.072 Cl
ENDBRANCH   1   6
TORSDOF 7
ENDMDL
MODEL 8
REMARK VINA RESULT:      -3.4     20.286     20.879
REMARK  7 active torsions:
REMARK  status: ('A' for Active; 'I' for Inactive)
REMARK    1  A    between atoms: O_8  and  C_25 
REMARK    2  A    between atoms: O_9  and  C_25 
REMARK    3  A    between atoms: O_10  and  C_26 
REMARK    4  A    between atoms: O_11  and  C_26 
REMARK    5  A    between atoms: N_13  and  C_15 
REMARK    6  A    between atoms: C_25  and  C_27 
REMARK    7  A    between atoms: C_26  and  C_28 
ROOT
HETATM    1  C   UNK N   1      35.744  13.974  13.500  0.00  0.00     0.163 C 
ENDROOT
BRANCH   1   2
HETATM    2  O   UNK N   1      34.603  13.491  12.971  0.00  0.00    -0.775 OA
HETATM    3  H   UNK N   1      33.935  12.835  12.924  0.00  0.00     0.167 HD
ENDBRANCH   1   2
BRANCH   1   4
HETATM    4  O   UNK N   1      36.450  14.897  12.818  0.00  0.00    -0.775 OA
HETATM    5  H   UNK N   1      37.009  14.947  12.068  0.00  0.00     0.167 HD
ENDBRANCH   1   4
BRANCH   1   6
HETATM    6  C   UNK N   1      36.229  13.503  14.843  0.00  0.00     0.270 C 
HETATM    7 Cl   UNK N   1      37.174  14.795  15.625  0.00  0.00    -0.072 Cl
HETATM    8 Cl   UNK N   1      34.831  13.102  15.868  0.00  0.00    -0.072 Cl
HETATM    9 Cl   UNK N   1      37.255  12.048  14.708  0.00  0.00    -0.072 Cl
ENDBRANCH   1   6
TORSDOF 7
ENDMDL
MODEL 9
REMARK VINA RESULT:      -3.4     10.465     11.198
REMARK  7 active torsions:
REMARK  status: ('A' for Active; 'I' for Inactive)
REMARK    1  A    between atoms: O_8  and  C_25 
REMARK    2  A    between atoms: O_9  and  C_25 
REMARK    3  A    between atoms: O_10  and  C_26 
REMARK    4  A    between atoms: O_11  and  C_26 
REMARK    5  A    between atoms: N_13  and  C_15 
REMARK    6  A    between atoms: C_25  and  C_27 
REMARK    7  A    between atoms: C_26  and  C_28 
ROOT
HETATM    1  C   UNK N   1      25.937  28.282  -3.704  0.00  0.00     0.163 C 
ENDROOT
BRANCH   1   2
HETATM    2  O   UNK N   1      25.889  29.628  -3.700  0.00  0.00    -0.775 OA
HETATM    3  H   UNK N   1      25.418  30.431  -3.814  0.00  0.00     0.167 HD
ENDBRANCH   1   2
BRANCH   1   4
HETATM    4  O   UNK N   1      25.777  27.612  -2.546  0.00  0.00    -0.775 OA
HETATM    5  H   UNK N   1      26.141  27.594  -1.683  0.00  0.00     0.167 HD
ENDBRANCH   1   4
BRANCH   1   6
HETATM    6  C   UNK N   1      26.155  27.523  -4.984  0.00  0.00     0.270 C 
HETATM    7 Cl   UNK N   1      26.978  25.983  -4.634  0.00  0.00    -0.072 Cl
HETATM    8 Cl   UNK N   1      24.582  27.183  -5.742  0.00  0.00    -0.072 Cl
HETATM    9 Cl   UNK N   1      27.145  28.447  -6.146  0.00  0.00    -0.072 Cl
ENDBRANCH   1   6
TORSDOF 7
ENDMDL
