MODEL 1
REMARK VINA RESULT:      -7.6      0.000      0.000
REMARK  4 active torsions:
REMARK  status: ('A' for Active; 'I' for Inactive)
REMARK    1  A    between atoms: C_10  and  C_11 
REMARK    2  A    between atoms: C_11  and  C_12 
REMARK    3  A    between atoms: C_15  and  C_17 
REMARK    4  A    between atoms: C_19  and  C_23 
ROOT
HETATM    1  O   UNK N   1      35.991  11.579  14.719  0.00  0.00    -0.314 OA
HETATM    2  C   UNK N   1      35.427  11.560  13.531  0.00  0.00     0.055 A 
HETATM    3  C   UNK N   1      35.158  11.055  15.587  0.00  0.00     0.086 A 
HETATM    4  C   UNK N   1      34.172  10.998  13.608  0.00  0.00     0.035 A 
HETATM    5  C   UNK N   1      33.993  10.672  14.939  0.00  0.00     0.040 A 
ENDROOT
BRANCH   2   6
HETATM    6  C   UNK N   1      35.986  12.180  12.285  0.00  0.00     0.088 C 
BRANCH   6   7
HETATM    7  C   UNK N   1      34.952  12.972  11.493  0.00  0.00     0.176 C 
HETATM    8  C   UNK N   1      35.000  14.467  11.669  0.00  0.00     0.237 C 
HETATM    9  O   UNK N   1      35.755  14.988  12.473  0.00  0.00    -0.272 OA
HETATM   10  N   UNK N   1      34.154  15.229  10.931  0.00  0.00    -0.303 N 
HETATM   11  C   UNK N   1      33.434  14.632   9.856  0.00  0.00     0.180 C 
HETATM   12  H   UNK N   1      34.038  16.184  11.136  0.00  0.00     0.171 HD
HETATM   13  S   UNK N   1      32.444  15.390   9.150  0.00  0.00    -0.040 SA
HETATM   14  N   UNK N   1      33.919  13.409   9.303  0.00  0.00    -0.303 N 
HETATM   15  C   UNK N   1      34.772  12.648  10.033  0.00  0.00     0.237 C 
HETATM   16  H   UNK N   1      33.639  13.122   8.404  0.00  0.00     0.171 HD
HETATM   17  O   UNK N   1      35.370  11.722   9.506  0.00  0.00    -0.272 OA
ENDBRANCH   6   7
ENDBRANCH   2   6
BRANCH   3  18
HETATM   18  C   UNK N   1      35.349  11.008  17.063  0.00  0.00     0.013 A 
HETATM   19  C   UNK N   1      35.271  12.142  17.927  0.00  0.00     0.060 A 
HETATM   20  C   UNK N   1      35.416  11.951  19.312  0.00  0.00     0.017 A 
HETATM   21  C   UNK N   1      35.629  10.683  19.849  0.00  0.00     0.001 A 
HETATM   22  C   UNK N   1      35.726   9.582  19.007  0.00  0.00     0.001 A 
HETATM   23  C   UNK N   1      35.591   9.744  17.630  0.00  0.00     0.015 A 
BRANCH  19  24
HETATM   24  C   UNK N   1      35.078  13.554  17.428  0.00  0.00     0.418 C 
HETATM   25  F   UNK N   1      33.940  13.618  16.643  0.00  0.00    -0.166 F 
HETATM   26  F   UNK N   1      34.969  14.426  18.486  0.00  0.00    -0.166 F 
HETATM   27  F   UNK N   1      36.156  13.961  16.657  0.00  0.00    -0.166 F 
ENDBRANCH  19  24
ENDBRANCH   3  18
TORSDOF 4
ENDMDL
MODEL 2
REMARK VINA RESULT:      -7.6      5.947      9.842
REMARK  4 active torsions:
REMARK  status: ('A' for Active; 'I' for Inactive)
REMARK    1  A    between atoms: C_10  and  C_11 
REMARK    2  A    between atoms: C_11  and  C_12 
REMARK    3  A    between atoms: C_15  and  C_17 
REMARK    4  A    between atoms: C_19  and  C_23 
ROOT
HETATM    1  O   UNK N   1      32.802  16.112   8.293  0.00  0.00    -0.314 OA
HETATM    2  C   UNK N   1      34.109  16.227   8.389  0.00  0.00     0.055 A 
HETATM    3  C   UNK N   1      32.285  17.309   8.146  0.00  0.00     0.086 A 
HETATM    4  C   UNK N   1      34.478  17.551   8.297  0.00  0.00     0.035 A 
HETATM    5  C   UNK N   1      33.299  18.255   8.143  0.00  0.00     0.040 A 
ENDROOT
BRANCH   2   6
HETATM    6  C   UNK N   1      35.067  15.116   8.695  0.00  0.00     0.088 C 
BRANCH   6   7
HETATM    7  C   UNK N   1      35.100  14.740  10.171  0.00  0.00     0.176 C 
HETATM    8  C   UNK N   1      35.148  13.264  10.468  0.00  0.00     0.237 C 
HETATM    9  O   UNK N   1      35.062  12.434   9.578  0.00  0.00    -0.272 OA
HETATM   10  N   UNK N   1      35.254  12.872  11.762  0.00  0.00    -0.303 N 
HETATM   11  C   UNK N   1      35.562  13.839  12.763  0.00  0.00     0.180 C 
HETATM   12  H   UNK N   1      35.120  11.928  12.008  0.00  0.00     0.171 HD
HETATM   13  S   UNK N   1      35.552  13.465  14.146  0.00  0.00    -0.040 SA
HETATM   14  N   UNK N   1      36.169  15.067  12.363  0.00  0.00    -0.303 N 
HETATM   15  C   UNK N   1      36.072  15.460  11.068  0.00  0.00     0.237 C 
HETATM   16  H   UNK N   1      36.652  15.621  13.018  0.00  0.00     0.171 HD
HETATM   17  O   UNK N   1      36.762  16.380  10.655  0.00  0.00    -0.272 OA
ENDBRANCH   6   7
ENDBRANCH   2   6
BRANCH   3  18
HETATM   18  C   UNK N   1      30.833  17.638   8.137  0.00  0.00     0.013 A 
HETATM   19  C   UNK N   1      29.952  17.390   7.042  0.00  0.00     0.060 A 
HETATM   20  C   UNK N   1      28.588  17.698   7.183  0.00  0.00     0.017 A 
HETATM   21  C   UNK N   1      28.087  18.233   8.368  0.00  0.00     0.001 A 
HETATM   22  C   UNK N   1      28.947  18.494   9.428  0.00  0.00     0.001 A 
HETATM   23  C   UNK N   1      30.304  18.203   9.311  0.00  0.00     0.015 A 
BRANCH  19  24
HETATM   24  C   UNK N   1      30.415  16.846   5.711  0.00  0.00     0.418 C 
HETATM   25  F   UNK N   1      29.355  16.829   4.822  0.00  0.00    -0.166 F 
HETATM   26  F   UNK N   1      31.439  17.615   5.209  0.00  0.00    -0.166 F 
HETATM   27  F   UNK N   1      30.887  15.549   5.841  0.00  0.00    -0.166 F 
ENDBRANCH  19  24
ENDBRANCH   3  18
TORSDOF 4
ENDMDL
MODEL 3
REMARK VINA RESULT:      -7.5      2.497      3.785
REMARK  4 active torsions:
REMARK  status: ('A' for Active; 'I' for Inactive)
REMARK    1  A    between atoms: C_10  and  C_11 
REMARK    2  A    between atoms: C_11  and  C_12 
REMARK    3  A    between atoms: C_15  and  C_17 
REMARK    4  A    between atoms: C_19  and  C_23 
ROOT
HETATM    1  O   UNK N   1      35.912  13.692  11.454  0.00  0.00    -0.314 OA
HETATM    2  C   UNK N   1      36.863  13.896  10.568  0.00  0.00     0.055 A 
HETATM    3  C   UNK N   1      36.286  12.722  12.255  0.00  0.00     0.086 A 
HETATM    4  C   UNK N   1      37.913  13.034  10.791  0.00  0.00     0.035 A 
HETATM    5  C   UNK N   1      37.542  12.269  11.880  0.00  0.00     0.040 A 
ENDROOT
BRANCH   2   6
HETATM    6  C   UNK N   1      36.783  14.825   9.395  0.00  0.00     0.088 C 
BRANCH   6   7
HETATM    7  C   UNK N   1      35.379  15.366   9.152  0.00  0.00     0.176 C 
HETATM    8  C   UNK N   1      35.075  16.699   9.786  0.00  0.00     0.237 C 
HETATM    9  O   UNK N   1      35.874  17.247  10.526  0.00  0.00    -0.272 OA
HETATM   10  N   UNK N   1      33.867  17.266   9.542  0.00  0.00    -0.303 N 
HETATM   11  C   UNK N   1      33.034  16.724   8.521  0.00  0.00     0.180 C 
HETATM   12  H   UNK N   1      33.568  18.044  10.066  0.00  0.00     0.171 HD
HETATM   13  S   UNK N   1      31.706  17.230   8.338  0.00  0.00    -0.040 SA
HETATM   14  N   UNK N   1      33.631  15.914   7.509  0.00  0.00    -0.303 N 
HETATM   15  C   UNK N   1      34.843  15.351   7.745  0.00  0.00     0.237 C 
HETATM   16  H   UNK N   1      33.170  15.765   6.652  0.00  0.00     0.171 HD
HETATM   17  O   UNK N   1      35.471  14.844   6.828  0.00  0.00    -0.272 OA
ENDBRANCH   6   7
ENDBRANCH   2   6
BRANCH   3  18
HETATM   18  C   UNK N   1      35.447  12.088  13.309  0.00  0.00     0.013 A 
HETATM   19  C   UNK N   1      35.457  12.461  14.688  0.00  0.00     0.060 A 
HETATM   20  C   UNK N   1      34.573  11.819  15.572  0.00  0.00     0.017 A 
HETATM   21  C   UNK N   1      33.694  10.834  15.126  0.00  0.00     0.001 A 
HETATM   22  C   UNK N   1      33.698  10.455  13.789  0.00  0.00     0.001 A 
HETATM   23  C   UNK N   1      34.567  11.073  12.893  0.00  0.00     0.015 A 
BRANCH  19  24
HETATM   24  C   UNK N   1      36.400  13.492  15.261  0.00  0.00     0.418 C 
HETATM   25  F   UNK N   1      36.039  13.775  16.567  0.00  0.00    -0.166 F 
HETATM   26  F   UNK N   1      37.695  13.031  15.221  0.00  0.00    -0.166 F 
HETATM   27  F   UNK N   1      36.350  14.671  14.535  0.00  0.00    -0.166 F 
ENDBRANCH  19  24
ENDBRANCH   3  18
TORSDOF 4
ENDMDL
MODEL 4
REMARK VINA RESULT:      -7.5      8.557     12.767
REMARK  4 active torsions:
REMARK  status: ('A' for Active; 'I' for Inactive)
REMARK    1  A    between atoms: C_10  and  C_11 
REMARK    2  A    between atoms: C_11  and  C_12 
REMARK    3  A    between atoms: C_15  and  C_17 
REMARK    4  A    between atoms: C_19  and  C_23 
ROOT
HETATM    1  O   UNK N   1      29.508  17.844   5.373  0.00  0.00    -0.314 OA
HETATM    2  C   UNK N   1      30.255  17.262   6.285  0.00  0.00     0.055 A 
HETATM    3  C   UNK N   1      28.332  18.101   5.895  0.00  0.00     0.086 A 
HETATM    4  C   UNK N   1      29.553  17.129   7.462  0.00  0.00     0.035 A 
HETATM    5  C   UNK N   1      28.305  17.668   7.213  0.00  0.00     0.040 A 
ENDROOT
BRANCH   2   6
HETATM    6  C   UNK N   1      31.623  16.689   6.063  0.00  0.00     0.088 C 
BRANCH   6   7
HETATM    7  C   UNK N   1      32.502  16.735   7.308  0.00  0.00     0.176 C 
HETATM    8  C   UNK N   1      32.669  15.427   8.037  0.00  0.00     0.237 C 
HETATM    9  O   UNK N   1      32.052  14.430   7.701  0.00  0.00    -0.272 OA
HETATM   10  N   UNK N   1      33.500  15.390   9.108  0.00  0.00    -0.303 N 
HETATM   11  C   UNK N   1      34.364  16.494   9.361  0.00  0.00     0.180 C 
HETATM   12  H   UNK N   1      33.506  14.608   9.706  0.00  0.00     0.171 HD
HETATM   13  S   UNK N   1      35.154  16.525  10.555  0.00  0.00    -0.040 SA
HETATM   14  N   UNK N   1      34.661  17.390   8.290  0.00  0.00    -0.303 N 
HETATM   15  C   UNK N   1      33.837  17.425   7.212  0.00  0.00     0.237 C 
HETATM   16  H   UNK N   1      35.452  17.973   8.331  0.00  0.00     0.171 HD
HETATM   17  O   UNK N   1      34.183  18.009   6.197  0.00  0.00    -0.272 OA
ENDBRANCH   6   7
ENDBRANCH   2   6
BRANCH   3  18
HETATM   18  C   UNK N   1      27.148  18.630   5.164  0.00  0.00     0.013 A 
HETATM   19  C   UNK N   1      26.602  19.937   5.343  0.00  0.00     0.060 A 
HETATM   20  C   UNK N   1      25.513  20.334   4.547  0.00  0.00     0.017 A 
HETATM   21  C   UNK N   1      24.968  19.479   3.591  0.00  0.00     0.001 A 
HETATM   22  C   UNK N   1      25.486  18.199   3.430  0.00  0.00     0.001 A 
HETATM   23  C   UNK N   1      26.560  17.780   4.210  0.00  0.00     0.015 A 
BRANCH  19  24
HETATM   24  C   UNK N   1      27.108  20.914   6.377  0.00  0.00     0.418 C 
HETATM   25  F   UNK N   1      28.439  21.203   6.131  0.00  0.00    -0.166 F 
HETATM   26  F   UNK N   1      26.363  22.069   6.352  0.00  0.00    -0.166 F 
HETATM   27  F   UNK N   1      27.013  20.380   7.653  0.00  0.00    -0.166 F 
ENDBRANCH  19  24
ENDBRANCH   3  18
TORSDOF 4
ENDMDL
MODEL 5
REMARK VINA RESULT:      -7.3      2.686      3.696
REMARK  4 active torsions:
REMARK  status: ('A' for Active; 'I' for Inactive)
REMARK    1  A    between atoms: C_10  and  C_11 
REMARK    2  A    between atoms: C_11  and  C_12 
REMARK    3  A    between atoms: C_15  and  C_17 
REMARK    4  A    between atoms: C_19  and  C_23 
ROOT
HETATM    1  O   UNK N   1      36.362  14.184  12.312  0.00  0.00    -0.314 OA
HETATM    2  C   UNK N   1      36.956  13.925  11.168  0.00  0.00     0.055 A 
HETATM    3  C   UNK N   1      36.607  13.201  13.146  0.00  0.00     0.086 A 
HETATM    4  C   UNK N   1      37.629  12.726  11.243  0.00  0.00     0.035 A 
HETATM    5  C   UNK N   1      37.403  12.252  12.521  0.00  0.00     0.040 A 
ENDROOT
BRANCH   2   6
HETATM    6  C   UNK N   1      36.823  14.728   9.909  0.00  0.00     0.088 C 
BRANCH   6   7
HETATM    7  C   UNK N   1      35.380  15.089   9.578  0.00  0.00     0.176 C 
HETATM    8  C   UNK N   1      34.977  16.509   9.879  0.00  0.00     0.237 C 
HETATM    9  O   UNK N   1      35.737  17.278  10.446  0.00  0.00    -0.272 OA
HETATM   10  N   UNK N   1      33.728  16.910   9.536  0.00  0.00    -0.303 N 
HETATM   11  C   UNK N   1      32.933  16.077   8.697  0.00  0.00     0.180 C 
HETATM   12  H   UNK N   1      33.373  17.767   9.864  0.00  0.00     0.171 HD
HETATM   13  S   UNK N   1      31.569  16.425   8.430  0.00  0.00    -0.040 SA
HETATM   14  N   UNK N   1      33.584  15.092   7.895  0.00  0.00    -0.303 N 
HETATM   15  C   UNK N   1      34.838  14.694   8.229  0.00  0.00     0.237 C 
HETATM   16  H   UNK N   1      33.132  14.707   7.111  0.00  0.00     0.171 HD
HETATM   17  O   UNK N   1      35.497  14.028   7.446  0.00  0.00    -0.272 OA
ENDBRANCH   6   7
ENDBRANCH   2   6
BRANCH   3  18
HETATM   18  C   UNK N   1      36.012  13.034  14.500  0.00  0.00     0.013 A 
HETATM   19  C   UNK N   1      35.033  12.052  14.841  0.00  0.00     0.060 A 
HETATM   20  C   UNK N   1      34.593  11.964  16.173  0.00  0.00     0.017 A 
HETATM   21  C   UNK N   1      35.098  12.812  17.157  0.00  0.00     0.001 A 
HETATM   22  C   UNK N   1      36.036  13.781  16.823  0.00  0.00     0.001 A 
HETATM   23  C   UNK N   1      36.484  13.892  15.509  0.00  0.00     0.015 A 
BRANCH  19  24
HETATM   24  C   UNK N   1      34.408  11.118  13.831  0.00  0.00     0.418 C 
HETATM   25  F   UNK N   1      35.274  10.070  13.570  0.00  0.00    -0.166 F 
HETATM   26  F   UNK N   1      33.211  10.633  14.304  0.00  0.00    -0.166 F 
HETATM   27  F   UNK N   1      34.155  11.774  12.637  0.00  0.00    -0.166 F 
ENDBRANCH  19  24
ENDBRANCH   3  18
TORSDOF 4
ENDMDL
MODEL 6
REMARK VINA RESULT:      -7.3     22.136     24.313
REMARK  4 active torsions:
REMARK  status: ('A' for Active; 'I' for Inactive)
REMARK    1  A    between atoms: C_10  and  C_11 
REMARK    2  A    between atoms: C_11  and  C_12 
REMARK    3  A    between atoms: C_15  and  C_17 
REMARK    4  A    between atoms: C_19  and  C_23 
ROOT
HETATM    1  O   UNK N   1      27.852  25.238  -5.690  0.00  0.00    -0.314 OA
HETATM    2  C   UNK N   1      26.675  25.825  -5.718  0.00  0.00     0.055 A 
HETATM    3  C   UNK N   1      27.673  23.941  -5.608  0.00  0.00     0.086 A 
HETATM    4  C   UNK N   1      25.672  24.882  -5.659  0.00  0.00     0.035 A 
HETATM    5  C   UNK N   1      26.314  23.661  -5.584  0.00  0.00     0.040 A 
ENDROOT
BRANCH   2   6
HETATM    6  C   UNK N   1      26.431  27.303  -5.679  0.00  0.00     0.088 C 
BRANCH   6   7
HETATM    7  C   UNK N   1      27.235  28.016  -4.598  0.00  0.00     0.176 C 
HETATM    8  C   UNK N   1      27.969  29.255  -5.041  0.00  0.00     0.237 C 
HETATM    9  O   UNK N   1      27.992  29.594  -6.212  0.00  0.00    -0.272 OA
HETATM   10  N   UNK N   1      28.640  29.973  -4.106  0.00  0.00    -0.303 N 
HETATM   11  C   UNK N   1      28.435  29.687  -2.725  0.00  0.00     0.180 C 
HETATM   12  H   UNK N   1      29.263  30.684  -4.379  0.00  0.00     0.171 HD
HETATM   13  S   UNK N   1      29.229  30.348  -1.733  0.00  0.00    -0.040 SA
HETATM   14  N   UNK N   1      27.250  28.992  -2.339  0.00  0.00    -0.303 N 
HETATM   15  C   UNK N   1      26.570  28.279  -3.272  0.00  0.00     0.237 C 
HETATM   16  H   UNK N   1      26.930  29.029  -1.409  0.00  0.00     0.171 HD
HETATM   17  O   UNK N   1      25.449  27.863  -3.027  0.00  0.00    -0.272 OA
ENDBRANCH   6   7
ENDBRANCH   2   6
BRANCH   3  18
HETATM   18  C   UNK N   1      28.741  22.922  -5.415  0.00  0.00     0.013 A 
HETATM   19  C   UNK N   1      29.448  22.709  -4.193  0.00  0.00     0.060 A 
HETATM   20  C   UNK N   1      30.397  21.674  -4.128  0.00  0.00     0.017 A 
HETATM   21  C   UNK N   1      30.651  20.858  -5.229  0.00  0.00     0.001 A 
HETATM   22  C   UNK N   1      29.978  21.077  -6.425  0.00  0.00     0.001 A 
HETATM   23  C   UNK N   1      29.038  22.099  -6.517  0.00  0.00     0.015 A 
BRANCH  19  24
HETATM   24  C   UNK N   1      29.260  23.567  -2.965  0.00  0.00     0.418 C 
HETATM   25  F   UNK N   1      29.969  23.027  -1.907  0.00  0.00    -0.166 F 
HETATM   26  F   UNK N   1      29.684  24.852  -3.208  0.00  0.00    -0.166 F 
HETATM   27  F   UNK N   1      27.924  23.628  -2.600  0.00  0.00    -0.166 F 
ENDBRANCH  19  24
ENDBRANCH   3  18
TORSDOF 4
ENDMDL
MODEL 7
REMARK VINA RESULT:      -7.3      2.722      3.638
REMARK  4 active torsions:
REMARK  status: ('A' for Active; 'I' for Inactive)
REMARK    1  A    between atoms: C_10  and  C_11 
REMARK    2  A    between atoms: C_11  and  C_12 
REMARK    3  A    between atoms: C_15  and  C_17 
REMARK    4  A    between atoms: C_19  and  C_23 
ROOT
HETATM    1  O   UNK N   1      34.920  13.180  14.534  0.00  0.00    -0.314 OA
HETATM    2  C   UNK N   1      35.471  13.845  13.542  0.00  0.00     0.055 A 
HETATM    3  C   UNK N   1      35.671  13.318  15.602  0.00  0.00     0.086 A 
HETATM    4  C   UNK N   1      36.631  14.456  13.965  0.00  0.00     0.035 A 
HETATM    5  C   UNK N   1      36.766  14.114  15.297  0.00  0.00     0.040 A 
ENDROOT
BRANCH   2   6
HETATM    6  C   UNK N   1      35.003  13.842  12.118  0.00  0.00     0.088 C 
BRANCH   6   7
HETATM    7  C   UNK N   1      36.100  13.470  11.127  0.00  0.00     0.176 C 
HETATM    8  C   UNK N   1      35.768  12.351  10.175  0.00  0.00     0.237 C 
HETATM    9  O   UNK N   1      34.725  11.725  10.271  0.00  0.00    -0.272 OA
HETATM   10  N   UNK N   1      36.676  12.027   9.221  0.00  0.00    -0.303 N 
HETATM   11  C   UNK N   1      37.784  12.892   8.989  0.00  0.00     0.180 C 
HETATM   12  H   UNK N   1      36.571  11.202   8.695  0.00  0.00     0.171 HD
HETATM   13  S   UNK N   1      38.817  12.502   8.077  0.00  0.00    -0.040 SA
HETATM   14  N   UNK N   1      37.696  14.249   9.423  0.00  0.00    -0.303 N 
HETATM   15  C   UNK N   1      36.783  14.580  10.371  0.00  0.00     0.237 C 
HETATM   16  H   UNK N   1      38.288  14.936   9.041  0.00  0.00     0.171 HD
HETATM   17  O   UNK N   1      36.535  15.754  10.598  0.00  0.00    -0.272 OA
ENDBRANCH   6   7
ENDBRANCH   2   6
BRANCH   3  18
HETATM   18  C   UNK N   1      35.481  12.617  16.901  0.00  0.00     0.013 A 
HETATM   19  C   UNK N   1      35.560  11.203  17.079  0.00  0.00     0.060 A 
HETATM   20  C   UNK N   1      35.416  10.672  18.372  0.00  0.00     0.017 A 
HETATM   21  C   UNK N   1      35.203  11.499  19.473  0.00  0.00     0.001 A 
HETATM   22  C   UNK N   1      35.105  12.874  19.298  0.00  0.00     0.001 A 
HETATM   23  C   UNK N   1      35.239  13.425  18.026  0.00  0.00     0.015 A 
BRANCH  19  24
HETATM   24  C   UNK N   1      35.754  10.232  15.938  0.00  0.00     0.418 C 
HETATM   25  F   UNK N   1      34.617  10.211  15.149  0.00  0.00    -0.166 F 
HETATM   26  F   UNK N   1      36.844  10.593  15.182  0.00  0.00    -0.166 F 
HETATM   27  F   UNK N   1      35.974   8.948  16.410  0.00  0.00    -0.166 F 
ENDBRANCH  19  24
ENDBRANCH   3  18
TORSDOF 4
ENDMDL
MODEL 8
REMARK VINA RESULT:      -7.2      6.441      9.708
REMARK  4 active torsions:
REMARK  status: ('A' for Active; 'I' for Inactive)
REMARK    1  A    between atoms: C_10  and  C_11 
REMARK    2  A    between atoms: C_11  and  C_12 
REMARK    3  A    between atoms: C_15  and  C_17 
REMARK    4  A    between atoms: C_19  and  C_23 
ROOT
HETATM    1  O   UNK N   1      32.288  15.978   8.577  0.00  0.00    -0.314 OA
HETATM    2  C   UNK N   1      33.447  16.137   9.177  0.00  0.00     0.055 A 
HETATM    3  C   UNK N   1      32.061  17.023   7.816  0.00  0.00     0.086 A 
HETATM    4  C   UNK N   1      34.019  17.331   8.797  0.00  0.00     0.035 A 
HETATM    5  C   UNK N   1      33.123  17.910   7.919  0.00  0.00     0.040 A 
ENDROOT
BRANCH   2   6
HETATM    6  C   UNK N   1      34.021  15.237  10.229  0.00  0.00     0.088 C 
BRANCH   6   7
HETATM    7  C   UNK N   1      35.329  14.578   9.807  0.00  0.00     0.176 C 
HETATM    8  C   UNK N   1      36.583  15.210  10.352  0.00  0.00     0.237 C 
HETATM    9  O   UNK N   1      36.544  16.241  11.002  0.00  0.00    -0.272 OA
HETATM   10  N   UNK N   1      37.773  14.622  10.072  0.00  0.00    -0.303 N 
HETATM   11  C   UNK N   1      37.791  13.319   9.496  0.00  0.00     0.180 C 
HETATM   12  H   UNK N   1      38.617  15.091  10.265  0.00  0.00     0.171 HD
HETATM   13  S   UNK N   1      39.032  12.739   9.078  0.00  0.00    -0.040 SA
HETATM   14  N   UNK N   1      36.631  12.497   9.627  0.00  0.00    -0.303 N 
HETATM   15  C   UNK N   1      35.440  13.080   9.915  0.00  0.00     0.237 C 
HETATM   16  H   UNK N   1      36.694  11.522   9.510  0.00  0.00     0.171 HD
HETATM   17  O   UNK N   1      34.488  12.392  10.249  0.00  0.00    -0.272 OA
ENDBRANCH   6   7
ENDBRANCH   2   6
BRANCH   3  18
HETATM   18  C   UNK N   1      30.804  17.306   7.072  0.00  0.00     0.013 A 
HETATM   19  C   UNK N   1      29.604  17.806   7.664  0.00  0.00     0.060 A 
HETATM   20  C   UNK N   1      28.502  18.083   6.838  0.00  0.00     0.017 A 
HETATM   21  C   UNK N   1      28.564  17.884   5.460  0.00  0.00     0.001 A 
HETATM   22  C   UNK N   1      29.724  17.378   4.884  0.00  0.00     0.001 A 
HETATM   23  C   UNK N   1      30.828  17.090   5.682  0.00  0.00     0.015 A 
BRANCH  19  24
HETATM   24  C   UNK N   1      29.440  18.018   9.150  0.00  0.00     0.418 C 
HETATM   25  F   UNK N   1      28.162  18.479   9.415  0.00  0.00    -0.166 F 
HETATM   26  F   UNK N   1      29.666  16.844   9.830  0.00  0.00    -0.166 F 
HETATM   27  F   UNK N   1      30.343  18.958   9.622  0.00  0.00    -0.166 F 
ENDBRANCH  19  24
ENDBRANCH   3  18
TORSDOF 4
ENDMDL
MODEL 9
REMARK VINA RESULT:      -7.2      7.590     10.970
REMARK  4 active torsions:
REMARK  status: ('A' for Active; 'I' for Inactive)
REMARK    1  A    between atoms: C_10  and  C_11 
REMARK    2  A    between atoms: C_11  and  C_12 
REMARK    3  A    between atoms: C_15  and  C_17 
REMARK    4  A    between atoms: C_19  and  C_23 
ROOT
HETATM    1  O   UNK N   1      31.475  16.609   6.173  0.00  0.00    -0.314 OA
HETATM    2  C   UNK N   1      32.434  17.238   5.528  0.00  0.00     0.055 A 
HETATM    3  C   UNK N   1      30.394  16.615   5.430  0.00  0.00     0.086 A 
HETATM    4  C   UNK N   1      31.976  17.675   4.305  0.00  0.00     0.035 A 
HETATM    5  C   UNK N   1      30.654  17.277   4.239  0.00  0.00     0.040 A 
ENDROOT
BRANCH   2   6
HETATM    6  C   UNK N   1      33.790  17.567   6.075  0.00  0.00     0.088 C 
BRANCH   6   7
HETATM    7  C   UNK N   1      34.021  17.016   7.477  0.00  0.00     0.176 C 
HETATM    8  C   UNK N   1      34.685  15.666   7.547  0.00  0.00     0.237 C 
HETATM    9  O   UNK N   1      34.924  15.024   6.538  0.00  0.00    -0.272 OA
HETATM   10  N   UNK N   1      34.985  15.159   8.768  0.00  0.00    -0.303 N 
HETATM   11  C   UNK N   1      34.895  16.000   9.915  0.00  0.00     0.180 C 
HETATM   12  H   UNK N   1      35.262  14.219   8.862  0.00  0.00     0.171 HD
HETATM   13  S   UNK N   1      35.084  15.447  11.223  0.00  0.00    -0.040 SA
HETATM   14  N   UNK N   1      34.926  17.415   9.731  0.00  0.00    -0.303 N 
HETATM   15  C   UNK N   1      34.635  17.927   8.508  0.00  0.00     0.237 C 
HETATM   16  H   UNK N   1      35.155  18.011  10.479  0.00  0.00     0.171 HD
HETATM   17  O   UNK N   1      34.867  19.101   8.266  0.00  0.00    -0.272 OA
ENDBRANCH   6   7
ENDBRANCH   2   6
BRANCH   3  18
HETATM   18  C   UNK N   1      29.048  16.130   5.841  0.00  0.00     0.013 A 
HETATM   19  C   UNK N   1      28.208  16.780   6.796  0.00  0.00     0.060 A 
HETATM   20  C   UNK N   1      26.934  16.247   7.054  0.00  0.00     0.017 A 
HETATM   21  C   UNK N   1      26.480  15.107   6.395  0.00  0.00     0.001 A 
HETATM   22  C   UNK N   1      27.305  14.461   5.481  0.00  0.00     0.001 A 
HETATM   23  C   UNK N   1      28.574  14.966   5.211  0.00  0.00     0.015 A 
BRANCH  19  24
HETATM   24  C   UNK N   1      28.633  17.999   7.580  0.00  0.00     0.418 C 
HETATM   25  F   UNK N   1      29.826  17.740   8.231  0.00  0.00    -0.166 F 
HETATM   26  F   UNK N   1      28.778  19.081   6.744  0.00  0.00    -0.166 F 
HETATM   27  F   UNK N   1      27.685  18.331   8.536  0.00  0.00    -0.166 F 
ENDBRANCH  19  24
ENDBRANCH   3  18
TORSDOF 4
ENDMDL
