REMARK  4 active torsions:
REMARK  status: ('A' for Active; 'I' for Inactive)
REMARK    1  A    between atoms: C_10  and  C_11 
REMARK    2  A    between atoms: C_11  and  C_12 
REMARK    3  A    between atoms: C_15  and  C_17 
REMARK    4  A    between atoms: C_19  and  C_23 
ROOT
HETATM    1  O   UNK N   1       2.535   0.623  -0.109  0.00  0.00    -0.314 OA
HETATM    2  C   UNK N   1       1.501  -0.188  -0.169  0.00  0.00     0.055 A 
HETATM    3  C   UNK N   1       2.098   1.849   0.060  0.00  0.00     0.086 A 
HETATM    4  C   UNK N   1       0.330   0.523  -0.029  0.00  0.00     0.035 A 
HETATM    5  C   UNK N   1       0.712   1.843   0.116  0.00  0.00     0.040 A 
ENDROOT
BRANCH   2   6
HETATM    6  C   UNK N   1       1.553  -1.653  -0.483  0.00  0.00     0.088 C 
BRANCH   6   7
HETATM    7  C   UNK N   1       2.890  -2.295  -0.132  0.00  0.00     0.176 C 
HETATM    8  C   UNK N   1       2.863  -3.787   0.075  0.00  0.00     0.237 C 
HETATM    9  O   UNK N   1       1.815  -4.411   0.060  0.00  0.00    -0.272 OA
HETATM   10  N   UNK N   1       4.036  -4.424   0.315  0.00  0.00    -0.303 N 
HETATM   11  C   UNK N   1       5.263  -3.725   0.124  0.00  0.00     0.180 C 
HETATM   12  H   UNK N   1       4.040  -5.360   0.619  0.00  0.00     0.171 HD
HETATM   13  S   UNK N   1       6.502  -4.341   0.494  0.00  0.00    -0.040 SA
HETATM   14  N   UNK N   1       5.267  -2.565  -0.708  0.00  0.00    -0.303 N 
HETATM   15  C   UNK N   1       4.095  -1.929  -0.958  0.00  0.00     0.237 C 
HETATM   16  H   UNK N   1       6.108  -2.231  -1.095  0.00  0.00     0.171 HD
HETATM   17  O   UNK N   1       4.035  -1.079  -1.833  0.00  0.00    -0.272 OA
ENDBRANCH   6   7
ENDBRANCH   2   6
BRANCH   3  18
HETATM   18  C   UNK N   1       2.930   3.083   0.043  0.00  0.00     0.013 A 
HETATM   19  C   UNK N   1       4.351   3.106   0.182  0.00  0.00     0.060 A 
HETATM   20  C   UNK N   1       5.023   4.337   0.092  0.00  0.00     0.017 A 
HETATM   21  C   UNK N   1       4.329   5.524  -0.133  0.00  0.00     0.001 A 
HETATM   22  C   UNK N   1       2.944   5.506  -0.248  0.00  0.00     0.001 A 
HETATM   23  C   UNK N   1       2.254   4.300  -0.157  0.00  0.00     0.015 A 
BRANCH  19  24
HETATM   24  C   UNK N   1       5.177   1.873   0.462  0.00  0.00     0.418 C 
HETATM   25  F   UNK N   1       4.740   1.277   1.632  0.00  0.00    -0.166 F 
HETATM   26  F   UNK N   1       5.081   0.984  -0.583  0.00  0.00    -0.166 F 
HETATM   27  F   UNK N   1       6.516   2.196   0.618  0.00  0.00    -0.166 F 
ENDBRANCH  19  24
ENDBRANCH   3  18
TORSDOF 4
