MODEL 1
REMARK VINA RESULT:      -5.9      0.000      0.000
REMARK  8 active torsions:
REMARK  status: ('A' for Active; 'I' for Inactive)
REMARK    1  A    between atoms: C_5  and  O_1 
REMARK    2  A    between atoms: C_6  and  N_2 
REMARK    3  A    between atoms: C_3  and  C_4 
REMARK    4  A    between atoms: C_3  and  C_5 
REMARK    5  A    between atoms: C_3  and  C_7 
REMARK    6  A    between atoms: C_3  and  C_8 
REMARK    7  A    between atoms: C_4  and  C_6 
REMARK    8  A    between atoms: C_5  and  C_9 
ROOT
HETATM    1  C   UNK N   1      36.394  12.744  14.250  0.00  0.00     0.042 C 
ENDROOT
BRANCH   1   2
HETATM    2  C   UNK N   1      37.572  11.751  14.414  0.00  0.00     0.057 C 
BRANCH   2   3
HETATM    3  C   UNK N   1      37.129  10.293  14.631  0.00  0.00     0.219 C 
HETATM    4  C   UNK N   1      37.160   9.921  16.111  0.00  0.00     0.043 C 
BRANCH   3   5
HETATM    5  N   UNK N   1      37.846   9.344  13.765  0.00  0.00     0.084 N 
HETATM    6  C   UNK N   1      36.966   8.237  13.428  0.00  0.00     0.309 C 
HETATM    7  C   UNK N   1      39.041   8.808  14.406  0.00  0.00     0.309 C 
ENDBRANCH   3   5
ENDBRANCH   2   3
ENDBRANCH   1   2
BRANCH   1   8
HETATM    8  C   UNK N   1      35.041  11.980  14.294  0.00  0.00     0.135 C 
BRANCH   8   9
HETATM    9  O   UNK N   1      34.058  12.772  14.897  0.00  0.00    -0.394 OA
HETATM   10  H   UNK N   1      33.776  13.316  15.649  0.00  0.00     0.210 HD
ENDBRANCH   8   9
BRANCH   8  11
HETATM   11  C   UNK N   1      34.538  11.456  12.948  0.00  0.00     0.028 C 
HETATM   12  C   UNK N   1      33.752  10.170  13.127  0.00  0.00     0.007 C 
ENDBRANCH   8  11
ENDBRANCH   1   8
BRANCH   1  13
HETATM   13  C   UNK N   1      36.390  13.637  15.509  0.00  0.00    -0.042 A 
HETATM   14  C   UNK N   1      35.633  13.356  16.658  0.00  0.00     0.008 A 
HETATM   15  C   UNK N   1      35.661  14.210  17.765  0.00  0.00     0.001 A 
HETATM   16  C   UNK N   1      36.448  15.362  17.739  0.00  0.00     0.000 A 
HETATM   17  C   UNK N   1      37.210  15.660  16.611  0.00  0.00     0.001 A 
HETATM   18  C   UNK N   1      37.183  14.806  15.505  0.00  0.00     0.008 A 
ENDBRANCH   1  13
BRANCH   1  19
HETATM   19  C   UNK N   1      36.553  13.427  12.865  0.00  0.00    -0.042 A 
HETATM   20  C   UNK N   1      37.425  12.852  11.916  0.00  0.00     0.008 A 
HETATM   21  C   UNK N   1      37.630  13.448  10.670  0.00  0.00     0.001 A 
HETATM   22  C   UNK N   1      36.972  14.633  10.350  0.00  0.00     0.000 A 
HETATM   23  C   UNK N   1      36.108  15.221  11.275  0.00  0.00     0.001 A 
HETATM   24  C   UNK N   1      35.904  14.622  12.522  0.00  0.00     0.008 A 
ENDBRANCH   1  19
TORSDOF 8
ENDMDL
MODEL 2
REMARK VINA RESULT:      -5.9      9.692     12.413
REMARK  8 active torsions:
REMARK  status: ('A' for Active; 'I' for Inactive)
REMARK    1  A    between atoms: C_5  and  O_1 
REMARK    2  A    between atoms: C_6  and  N_2 
REMARK    3  A    between atoms: C_3  and  C_4 
REMARK    4  A    between atoms: C_3  and  C_5 
REMARK    5  A    between atoms: C_3  and  C_7 
REMARK    6  A    between atoms: C_3  and  C_8 
REMARK    7  A    between atoms: C_4  and  C_6 
REMARK    8  A    between atoms: C_5  and  C_9 
ROOT
HETATM    1  C   UNK N   1      28.958  17.461   6.099  0.00  0.00     0.042 C 
ENDROOT
BRANCH   1   2
HETATM    2  C   UNK N   1      29.670  17.983   7.373  0.00  0.00     0.057 C 
BRANCH   2   3
HETATM    3  C   UNK N   1      30.230  16.866   8.272  0.00  0.00     0.219 C 
HETATM    4  C   UNK N   1      29.830  17.080   9.730  0.00  0.00     0.043 C 
BRANCH   3   5
HETATM    5  N   UNK N   1      31.672  16.647   8.078  0.00  0.00     0.084 N 
HETATM    6  C   UNK N   1      32.136  15.637   9.015  0.00  0.00     0.309 C 
HETATM    7  C   UNK N   1      32.447  17.864   8.286  0.00  0.00     0.309 C 
ENDBRANCH   3   5
ENDBRANCH   2   3
ENDBRANCH   1   2
BRANCH   1   8
HETATM    8  C   UNK N   1      27.916  16.372   6.478  0.00  0.00     0.135 C 
BRANCH   8   9
HETATM    9  O   UNK N   1      27.142  16.799   7.563  0.00  0.00    -0.394 OA
HETATM   10  H   UNK N   1      26.651  17.510   8.004  0.00  0.00     0.210 HD
ENDBRANCH   8   9
BRANCH   8  11
HETATM   11  C   UNK N   1      27.008  15.907   5.339  0.00  0.00     0.028 C 
HETATM   12  C   UNK N   1      25.547  15.999   5.740  0.00  0.00     0.007 C 
ENDBRANCH   8  11
ENDBRANCH   1   8
BRANCH   1  13
HETATM   13  C   UNK N   1      28.123  18.637   5.546  0.00  0.00    -0.042 A 
HETATM   14  C   UNK N   1      27.731  18.746   4.203  0.00  0.00     0.008 A 
HETATM   15  C   UNK N   1      26.983  19.842   3.759  0.00  0.00     0.001 A 
HETATM   16  C   UNK N   1      26.616  20.847   4.654  0.00  0.00     0.000 A 
HETATM   17  C   UNK N   1      26.992  20.757   5.993  0.00  0.00     0.001 A 
HETATM   18  C   UNK N   1      27.738  19.663   6.437  0.00  0.00     0.008 A 
ENDBRANCH   1  13
BRANCH   1  19
HETATM   19  C   UNK N   1      30.044  16.837   5.183  0.00  0.00    -0.042 A 
HETATM   20  C   UNK N   1      31.026  17.678   4.618  0.00  0.00     0.008 A 
HETATM   21  C   UNK N   1      32.003  17.170   3.758  0.00  0.00     0.001 A 
HETATM   22  C   UNK N   1      32.013  15.813   3.442  0.00  0.00     0.000 A 
HETATM   23  C   UNK N   1      31.048  14.965   3.985  0.00  0.00     0.001 A 
HETATM   24  C   UNK N   1      30.072  15.476   4.847  0.00  0.00     0.008 A 
ENDBRANCH   1  19
TORSDOF 8
ENDMDL
MODEL 3
REMARK VINA RESULT:      -5.9      2.014      5.452
REMARK  8 active torsions:
REMARK  status: ('A' for Active; 'I' for Inactive)
REMARK    1  A    between atoms: C_5  and  O_1 
REMARK    2  A    between atoms: C_6  and  N_2 
REMARK    3  A    between atoms: C_3  and  C_4 
REMARK    4  A    between atoms: C_3  and  C_5 
REMARK    5  A    between atoms: C_3  and  C_7 
REMARK    6  A    between atoms: C_3  and  C_8 
REMARK    7  A    between atoms: C_4  and  C_6 
REMARK    8  A    between atoms: C_5  and  C_9 
ROOT
HETATM    1  C   UNK N   1      36.878  10.735  15.043  0.00  0.00     0.042 C 
ENDROOT
BRANCH   1   2
HETATM    2  C   UNK N   1      37.580  11.803  14.166  0.00  0.00     0.057 C 
BRANCH   2   3
HETATM    3  C   UNK N   1      36.942  11.983  12.777  0.00  0.00     0.219 C 
HETATM    4  C   UNK N   1      37.777  11.302  11.695  0.00  0.00     0.043 C 
BRANCH   3   5
HETATM    5  N   UNK N   1      36.612  13.385  12.478  0.00  0.00     0.084 N 
HETATM    6  C   UNK N   1      35.176  13.579  12.603  0.00  0.00     0.309 C 
HETATM    7  C   UNK N   1      37.017  13.772  11.133  0.00  0.00     0.309 C 
ENDBRANCH   3   5
ENDBRANCH   2   3
ENDBRANCH   1   2
BRANCH   1   8
HETATM    8  C   UNK N   1      35.767  10.019  14.225  0.00  0.00     0.135 C 
BRANCH   8   9
HETATM    9  O   UNK N   1      36.229   8.783  13.758  0.00  0.00    -0.394 OA
HETATM   10  H   UNK N   1      36.106   8.017  13.176  0.00  0.00     0.210 HD
ENDBRANCH   8   9
BRANCH   8  11
HETATM   11  C   UNK N   1      34.432   9.838  14.949  0.00  0.00     0.028 C 
HETATM   12  C   UNK N   1      33.395  10.815  14.424  0.00  0.00     0.007 C 
ENDBRANCH   8  11
ENDBRANCH   1   8
BRANCH   1  13
HETATM   13  C   UNK N   1      37.929   9.640  15.331  0.00  0.00    -0.042 A 
HETATM   14  C   UNK N   1      37.711   8.568  16.210  0.00  0.00     0.008 A 
HETATM   15  C   UNK N   1      38.706   7.612  16.440  0.00  0.00     0.001 A 
HETATM   16  C   UNK N   1      39.937   7.716  15.793  0.00  0.00     0.000 A 
HETATM   17  C   UNK N   1      40.175   8.771  14.914  0.00  0.00     0.001 A 
HETATM   18  C   UNK N   1      39.181   9.725  14.683  0.00  0.00     0.008 A 
ENDBRANCH   1  13
BRANCH   1  19
HETATM   19  C   UNK N   1      36.235  11.472  16.247  0.00  0.00    -0.042 A 
HETATM   20  C   UNK N   1      35.916  12.841  16.119  0.00  0.00     0.008 A 
HETATM   21  C   UNK N   1      35.369  13.557  17.185  0.00  0.00     0.001 A 
HETATM   22  C   UNK N   1      35.138  12.922  18.403  0.00  0.00     0.000 A 
HETATM   23  C   UNK N   1      35.450  11.571  18.554  0.00  0.00     0.001 A 
HETATM   24  C   UNK N   1      35.997  10.855  17.484  0.00  0.00     0.008 A 
ENDBRANCH   1  19
TORSDOF 8
ENDMDL
MODEL 4
REMARK VINA RESULT:      -5.8     21.710     25.068
REMARK  8 active torsions:
REMARK  status: ('A' for Active; 'I' for Inactive)
REMARK    1  A    between atoms: C_5  and  O_1 
REMARK    2  A    between atoms: C_6  and  N_2 
REMARK    3  A    between atoms: C_3  and  C_4 
REMARK    4  A    between atoms: C_3  and  C_5 
REMARK    5  A    between atoms: C_3  and  C_7 
REMARK    6  A    between atoms: C_3  and  C_8 
REMARK    7  A    between atoms: C_4  and  C_6 
REMARK    8  A    between atoms: C_5  and  C_9 
ROOT
HETATM    1  C   UNK N   1      27.734  25.445  -5.251  0.00  0.00     0.042 C 
ENDROOT
BRANCH   1   2
HETATM    2  C   UNK N   1      27.879  24.712  -6.609  0.00  0.00     0.057 C 
BRANCH   2   3
HETATM    3  C   UNK N   1      27.453  23.234  -6.564  0.00  0.00     0.219 C 
HETATM    4  C   UNK N   1      28.660  22.308  -6.689  0.00  0.00     0.043 C 
BRANCH   3   5
HETATM    5  N   UNK N   1      26.368  22.925  -7.508  0.00  0.00     0.084 N 
HETATM    6  C   UNK N   1      26.518  21.560  -7.986  0.00  0.00     0.309 C 
HETATM    7  C   UNK N   1      26.365  23.821  -8.658  0.00  0.00     0.309 C 
ENDBRANCH   3   5
ENDBRANCH   2   3
ENDBRANCH   1   2
BRANCH   1   8
HETATM    8  C   UNK N   1      26.281  25.299  -4.717  0.00  0.00     0.135 C 
BRANCH   8   9
HETATM    9  O   UNK N   1      26.140  25.983  -3.505  0.00  0.00    -0.394 OA
HETATM   10  H   UNK N   1      25.616  26.161  -2.708  0.00  0.00     0.210 HD
ENDBRANCH   8   9
BRANCH   8  11
HETATM   11  C   UNK N   1      25.179  25.723  -5.689  0.00  0.00     0.028 C 
HETATM   12  C   UNK N   1      24.709  27.136  -5.390  0.00  0.00     0.007 C 
ENDBRANCH   8  11
ENDBRANCH   1   8
BRANCH   1  13
HETATM   13  C   UNK N   1      28.611  24.677  -4.238  0.00  0.00    -0.042 A 
HETATM   14  C   UNK N   1      28.090  23.848  -3.233  0.00  0.00     0.008 A 
HETATM   15  C   UNK N   1      28.935  23.186  -2.336  0.00  0.00     0.001 A 
HETATM   16  C   UNK N   1      30.317  23.346  -2.431  0.00  0.00     0.000 A 
HETATM   17  C   UNK N   1      30.857  24.162  -3.424  0.00  0.00     0.001 A 
HETATM   18  C   UNK N   1      30.013  24.822  -4.320  0.00  0.00     0.008 A 
ENDBRANCH   1  13
BRANCH   1  19
HETATM   19  C   UNK N   1      28.041  26.946  -5.499  0.00  0.00    -0.042 A 
HETATM   20  C   UNK N   1      28.053  27.431  -6.824  0.00  0.00     0.008 A 
HETATM   21  C   UNK N   1      28.359  28.765  -7.102  0.00  0.00     0.001 A 
HETATM   22  C   UNK N   1      28.665  29.639  -6.061  0.00  0.00     0.000 A 
HETATM   23  C   UNK N   1      28.663  29.180  -4.744  0.00  0.00     0.001 A 
HETATM   24  C   UNK N   1      28.356  27.844  -4.468  0.00  0.00     0.008 A 
ENDBRANCH   1  19
TORSDOF 8
ENDMDL
MODEL 5
REMARK VINA RESULT:      -5.8     21.458     24.962
REMARK  8 active torsions:
REMARK  status: ('A' for Active; 'I' for Inactive)
REMARK    1  A    between atoms: C_5  and  O_1 
REMARK    2  A    between atoms: C_6  and  N_2 
REMARK    3  A    between atoms: C_3  and  C_4 
REMARK    4  A    between atoms: C_3  and  C_5 
REMARK    5  A    between atoms: C_3  and  C_7 
REMARK    6  A    between atoms: C_3  and  C_8 
REMARK    7  A    between atoms: C_4  and  C_6 
REMARK    8  A    between atoms: C_5  and  C_9 
ROOT
HETATM    1  C   UNK N   1      27.855  24.714  -4.746  0.00  0.00     0.042 C 
ENDROOT
BRANCH   1   2
HETATM    2  C   UNK N   1      29.266  25.174  -5.191  0.00  0.00     0.057 C 
BRANCH   2   3
HETATM    3  C   UNK N   1      29.269  26.507  -5.961  0.00  0.00     0.219 C 
HETATM    4  C   UNK N   1      29.438  26.276  -7.461  0.00  0.00     0.043 C 
BRANCH   3   5
HETATM    5  N   UNK N   1      30.213  27.487  -5.402  0.00  0.00     0.084 N 
HETATM    6  C   UNK N   1      30.719  26.997  -4.130  0.00  0.00     0.309 C 
HETATM    7  C   UNK N   1      29.593  28.788  -5.185  0.00  0.00     0.309 C 
ENDBRANCH   3   5
ENDBRANCH   2   3
ENDBRANCH   1   2
BRANCH   1   8
HETATM    8  C   UNK N   1      27.922  24.087  -3.325  0.00  0.00     0.135 C 
BRANCH   8   9
HETATM    9  O   UNK N   1      26.637  23.745  -2.886  0.00  0.00    -0.394 OA
HETATM   10  H   UNK N   1      26.000  23.057  -2.638  0.00  0.00     0.210 HD
ENDBRANCH   8   9
BRANCH   8  11
HETATM   11  C   UNK N   1      28.860  22.887  -3.180  0.00  0.00     0.028 C 
HETATM   12  C   UNK N   1      29.889  23.134  -2.091  0.00  0.00     0.007 C 
ENDBRANCH   8  11
ENDBRANCH   1   8
BRANCH   1  13
HETATM   13  C   UNK N   1      27.005  25.992  -4.578  0.00  0.00    -0.042 A 
HETATM   14  C   UNK N   1      27.045  26.807  -3.436  0.00  0.00     0.008 A 
HETATM   15  C   UNK N   1      26.243  27.948  -3.337  0.00  0.00     0.001 A 
HETATM   16  C   UNK N   1      25.384  28.291  -4.382  0.00  0.00     0.000 A 
HETATM   17  C   UNK N   1      25.330  27.499  -5.528  0.00  0.00     0.001 A 
HETATM   18  C   UNK N   1      26.133  26.359  -5.626  0.00  0.00     0.008 A 
ENDBRANCH   1  13
BRANCH   1  19
HETATM   19  C   UNK N   1      27.376  23.640  -5.759  0.00  0.00    -0.042 A 
HETATM   20  C   UNK N   1      28.337  22.943  -6.521  0.00  0.00     0.008 A 
HETATM   21  C   UNK N   1      27.955  21.994  -7.471  0.00  0.00     0.001 A 
HETATM   22  C   UNK N   1      26.604  21.728  -7.683  0.00  0.00     0.000 A 
HETATM   23  C   UNK N   1      25.637  22.409  -6.944  0.00  0.00     0.001 A 
HETATM   24  C   UNK N   1      26.022  23.358  -5.992  0.00  0.00     0.008 A 
ENDBRANCH   1  19
TORSDOF 8
ENDMDL
MODEL 6
REMARK VINA RESULT:      -5.8     21.949     25.454
REMARK  8 active torsions:
REMARK  status: ('A' for Active; 'I' for Inactive)
REMARK    1  A    between atoms: C_5  and  O_1 
REMARK    2  A    between atoms: C_6  and  N_2 
REMARK    3  A    between atoms: C_3  and  C_4 
REMARK    4  A    between atoms: C_3  and  C_5 
REMARK    5  A    between atoms: C_3  and  C_7 
REMARK    6  A    between atoms: C_3  and  C_8 
REMARK    7  A    between atoms: C_4  and  C_6 
REMARK    8  A    between atoms: C_5  and  C_9 
ROOT
HETATM    1  C   UNK N   1      27.465  24.207  -5.643  0.00  0.00     0.042 C 
ENDROOT
BRANCH   1   2
HETATM    2  C   UNK N   1      27.747  25.409  -6.580  0.00  0.00     0.057 C 
BRANCH   2   3
HETATM    3  C   UNK N   1      28.269  25.002  -7.970  0.00  0.00     0.219 C 
HETATM    4  C   UNK N   1      29.760  25.304  -8.108  0.00  0.00     0.043 C 
BRANCH   3   5
HETATM    5  N   UNK N   1      27.450  25.542  -9.067  0.00  0.00     0.084 N 
HETATM    6  C   UNK N   1      26.274  26.193  -8.515  0.00  0.00     0.309 C 
HETATM    7  C   UNK N   1      27.014  24.503  -9.992  0.00  0.00     0.309 C 
ENDBRANCH   3   5
ENDBRANCH   2   3
ENDBRANCH   1   2
BRANCH   1   8
HETATM    8  C   UNK N   1      26.244  24.514  -4.733  0.00  0.00     0.135 C 
BRANCH   8   9
HETATM    9  O   UNK N   1      26.472  24.034  -3.438  0.00  0.00    -0.394 OA
HETATM   10  H   UNK N   1      27.074  23.934  -2.684  0.00  0.00     0.210 HD
ENDBRANCH   8   9
BRANCH   8  11
HETATM   11  C   UNK N   1      25.818  25.982  -4.678  0.00  0.00     0.028 C 
HETATM   12  C   UNK N   1      26.274  26.630  -3.383  0.00  0.00     0.007 C 
ENDBRANCH   8  11
ENDBRANCH   1   8
BRANCH   1  13
HETATM   13  C   UNK N   1      27.007  23.040  -6.546  0.00  0.00    -0.042 A 
HETATM   14  C   UNK N   1      27.894  22.179  -7.211  0.00  0.00     0.008 A 
HETATM   15  C   UNK N   1      27.419  21.146  -8.025  0.00  0.00     0.001 A 
HETATM   16  C   UNK N   1      26.046  20.959  -8.187  0.00  0.00     0.000 A 
HETATM   17  C   UNK N   1      25.146  21.800  -7.534  0.00  0.00     0.001 A 
HETATM   18  C   UNK N   1      25.621  22.832  -6.720  0.00  0.00     0.008 A 
ENDBRANCH   1  13
BRANCH   1  19
HETATM   19  C   UNK N   1      28.725  24.002  -4.760  0.00  0.00    -0.042 A 
HETATM   20  C   UNK N   1      29.461  25.133  -4.348  0.00  0.00     0.008 A 
HETATM   21  C   UNK N   1      30.622  24.999  -3.584  0.00  0.00     0.001 A 
HETATM   22  C   UNK N   1      31.073  23.731  -3.221  0.00  0.00     0.000 A 
HETATM   23  C   UNK N   1      30.364  22.599  -3.622  0.00  0.00     0.001 A 
HETATM   24  C   UNK N   1      29.201  22.737  -4.387  0.00  0.00     0.008 A 
ENDBRANCH   1  19
TORSDOF 8
ENDMDL
MODEL 7
REMARK VINA RESULT:      -5.8      9.350     12.215
REMARK  8 active torsions:
REMARK  status: ('A' for Active; 'I' for Inactive)
REMARK    1  A    between atoms: C_5  and  O_1 
REMARK    2  A    between atoms: C_6  and  N_2 
REMARK    3  A    between atoms: C_3  and  C_4 
REMARK    4  A    between atoms: C_3  and  C_5 
REMARK    5  A    between atoms: C_3  and  C_7 
REMARK    6  A    between atoms: C_3  and  C_8 
REMARK    7  A    between atoms: C_4  and  C_6 
REMARK    8  A    between atoms: C_5  and  C_9 
ROOT
HETATM    1  C   UNK N   1      30.390  16.649   5.539  0.00  0.00     0.042 C 
ENDROOT
BRANCH   1   2
HETATM    2  C   UNK N   1      29.617  15.309   5.624  0.00  0.00     0.057 C 
BRANCH   2   3
HETATM    3  C   UNK N   1      28.309  15.296   4.813  0.00  0.00     0.219 C 
HETATM    4  C   UNK N   1      27.104  15.037   5.714  0.00  0.00     0.043 C 
BRANCH   3   5
HETATM    5  N   UNK N   1      28.374  14.410   3.640  0.00  0.00     0.084 N 
HETATM    6  C   UNK N   1      27.970  15.148   2.454  0.00  0.00     0.309 C 
HETATM    7  C   UNK N   1      27.507  13.246   3.780  0.00  0.00     0.309 C 
ENDBRANCH   3   5
ENDBRANCH   2   3
ENDBRANCH   1   2
BRANCH   1   8
HETATM    8  C   UNK N   1      30.834  16.919   4.074  0.00  0.00     0.135 C 
BRANCH   8   9
HETATM    9  O   UNK N   1      31.490  18.152   3.986  0.00  0.00    -0.394 OA
HETATM   10  H   UNK N   1      31.898  18.909   4.435  0.00  0.00     0.210 HD
ENDBRANCH   8   9
BRANCH   8  11
HETATM   11  C   UNK N   1      31.690  15.824   3.435  0.00  0.00     0.028 C 
HETATM   12  C   UNK N   1      33.062  16.357   3.066  0.00  0.00     0.007 C 
ENDBRANCH   8  11
ENDBRANCH   1   8
BRANCH   1  13
HETATM   13  C   UNK N   1      29.374  17.767   5.861  0.00  0.00    -0.042 A 
HETATM   14  C   UNK N   1      28.724  18.531   4.880  0.00  0.00     0.008 A 
HETATM   15  C   UNK N   1      27.821  19.539   5.233  0.00  0.00     0.001 A 
HETATM   16  C   UNK N   1      27.555  19.799   6.577  0.00  0.00     0.000 A 
HETATM   17  C   UNK N   1      28.187  19.051   7.569  0.00  0.00     0.001 A 
HETATM   18  C   UNK N   1      29.089  18.044   7.216  0.00  0.00     0.008 A 
ENDBRANCH   1  13
BRANCH   1  19
HETATM   19  C   UNK N   1      31.647  16.518   6.440  0.00  0.00    -0.042 A 
HETATM   20  C   UNK N   1      31.864  15.310   7.138  0.00  0.00     0.008 A 
HETATM   21  C   UNK N   1      32.960  15.155   7.989  0.00  0.00     0.001 A 
HETATM   22  C   UNK N   1      33.858  16.206   8.164  0.00  0.00     0.000 A 
HETATM   23  C   UNK N   1      33.661  17.409   7.487  0.00  0.00     0.001 A 
HETATM   24  C   UNK N   1      32.563  17.562   6.635  0.00  0.00     0.008 A 
ENDBRANCH   1  19
TORSDOF 8
ENDMDL
MODEL 8
REMARK VINA RESULT:      -5.8     21.701     25.294
REMARK  8 active torsions:
REMARK  status: ('A' for Active; 'I' for Inactive)
REMARK    1  A    between atoms: C_5  and  O_1 
REMARK    2  A    between atoms: C_6  and  N_2 
REMARK    3  A    between atoms: C_3  and  C_4 
REMARK    4  A    between atoms: C_3  and  C_5 
REMARK    5  A    between atoms: C_3  and  C_7 
REMARK    6  A    between atoms: C_3  and  C_8 
REMARK    7  A    between atoms: C_4  and  C_6 
REMARK    8  A    between atoms: C_5  and  C_9 
ROOT
HETATM    1  C   UNK N   1      27.679  24.107  -6.091  0.00  0.00     0.042 C 
ENDROOT
BRANCH   1   2
HETATM    2  C   UNK N   1      28.342  23.516  -4.821  0.00  0.00     0.057 C 
BRANCH   2   3
HETATM    3  C   UNK N   1      29.830  23.168  -5.004  0.00  0.00     0.219 C 
HETATM    4  C   UNK N   1      30.041  21.657  -5.054  0.00  0.00     0.043 C 
BRANCH   3   5
HETATM    5  N   UNK N   1      30.699  23.856  -4.036  0.00  0.00     0.084 N 
HETATM    6  C   UNK N   1      32.034  23.991  -4.597  0.00  0.00     0.309 C 
HETATM    7  C   UNK N   1      30.797  23.136  -2.773  0.00  0.00     0.309 C 
ENDBRANCH   3   5
ENDBRANCH   2   3
ENDBRANCH   1   2
BRANCH   1   8
HETATM    8  C   UNK N   1      28.770  24.589  -7.088  0.00  0.00     0.135 C 
BRANCH   8   9
HETATM    9  O   UNK N   1      28.240  24.677  -8.381  0.00  0.00    -0.394 OA
HETATM   10  H   UNK N   1      28.367  24.586  -9.338  0.00  0.00     0.210 HD
ENDBRANCH   8   9
BRANCH   8  11
HETATM   11  C   UNK N   1      29.463  25.901  -6.718  0.00  0.00     0.028 C 
HETATM   12  C   UNK N   1      29.289  26.934  -7.817  0.00  0.00     0.007 C 
ENDBRANCH   8  11
ENDBRANCH   1   8
BRANCH   1  13
HETATM   13  C   UNK N   1      26.974  22.935  -6.808  0.00  0.00    -0.042 A 
HETATM   14  C   UNK N   1      27.625  22.060  -7.691  0.00  0.00     0.008 A 
HETATM   15  C   UNK N   1      26.930  21.022  -8.320  0.00  0.00     0.001 A 
HETATM   16  C   UNK N   1      25.568  20.844  -8.075  0.00  0.00     0.000 A 
HETATM   17  C   UNK N   1      24.901  21.699  -7.199  0.00  0.00     0.001 A 
HETATM   18  C   UNK N   1      25.596  22.735  -6.570  0.00  0.00     0.008 A 
ENDBRANCH   1  13
BRANCH   1  19
HETATM   19  C   UNK N   1      26.819  25.319  -5.645  0.00  0.00    -0.042 A 
HETATM   20  C   UNK N   1      26.914  25.770  -4.311  0.00  0.00     0.008 A 
HETATM   21  C   UNK N   1      26.135  26.833  -3.851  0.00  0.00     0.001 A 
HETATM   22  C   UNK N   1      25.241  27.463  -4.713  0.00  0.00     0.000 A 
HETATM   23  C   UNK N   1      25.127  27.032  -6.035  0.00  0.00     0.001 A 
HETATM   24  C   UNK N   1      25.909  25.967  -6.493  0.00  0.00     0.008 A 
ENDBRANCH   1  19
TORSDOF 8
ENDMDL
MODEL 9
REMARK VINA RESULT:      -5.7      1.422      2.050
REMARK  8 active torsions:
REMARK  status: ('A' for Active; 'I' for Inactive)
REMARK    1  A    between atoms: C_5  and  O_1 
REMARK    2  A    between atoms: C_6  and  N_2 
REMARK    3  A    between atoms: C_3  and  C_4 
REMARK    4  A    between atoms: C_3  and  C_5 
REMARK    5  A    between atoms: C_3  and  C_7 
REMARK    6  A    between atoms: C_3  and  C_8 
REMARK    7  A    between atoms: C_4  and  C_6 
REMARK    8  A    between atoms: C_5  and  C_9 
ROOT
HETATM    1  C   UNK N   1      36.099  11.229  14.913  0.00  0.00     0.042 C 
ENDROOT
BRANCH   1   2
HETATM    2  C   UNK N   1      37.463  10.515  15.089  0.00  0.00     0.057 C 
BRANCH   2   3
HETATM    3  C   UNK N   1      37.368   8.979  15.047  0.00  0.00     0.219 C 
HETATM    4  C   UNK N   1      37.713   8.368  16.403  0.00  0.00     0.043 C 
BRANCH   3   5
HETATM    5  N   UNK N   1      38.117   8.393  13.925  0.00  0.00     0.084 N 
HETATM    6  C   UNK N   1      37.701   7.012  13.736  0.00  0.00     0.309 C 
HETATM    7  C   UNK N   1      39.557   8.417  14.150  0.00  0.00     0.309 C 
ENDBRANCH   3   5
ENDBRANCH   2   3
ENDBRANCH   1   2
BRANCH   1   8
HETATM    8  C   UNK N   1      34.977  10.183  14.662  0.00  0.00     0.135 C 
BRANCH   8   9
HETATM    9  O   UNK N   1      33.731  10.716  15.013  0.00  0.00    -0.394 OA
HETATM   10  H   UNK N   1      33.012  11.339  14.825  0.00  0.00     0.210 HD
ENDBRANCH   8   9
BRANCH   8  11
HETATM   11  C   UNK N   1      34.919   9.609  13.246  0.00  0.00     0.028 C 
HETATM   12  C   UNK N   1      33.668  10.077  12.523  0.00  0.00     0.007 C 
ENDBRANCH   8  11
ENDBRANCH   1   8
BRANCH   1  13
HETATM   13  C   UNK N   1      35.754  11.866  16.277  0.00  0.00    -0.042 A 
HETATM   14  C   UNK N   1      35.541  13.241  16.460  0.00  0.00     0.008 A 
HETATM   15  C   UNK N   1      35.242  13.761  17.724  0.00  0.00     0.001 A 
HETATM   16  C   UNK N   1      35.152  12.910  18.826  0.00  0.00     0.000 A 
HETATM   17  C   UNK N   1      35.355  11.541  18.667  0.00  0.00     0.001 A 
HETATM   18  C   UNK N   1      35.654  11.021  17.405  0.00  0.00     0.008 A 
ENDBRANCH   1  13
BRANCH   1  19
HETATM   19  C   UNK N   1      36.219  12.160  13.677  0.00  0.00    -0.042 A 
HETATM   20  C   UNK N   1      37.310  11.991  12.798  0.00  0.00     0.008 A 
HETATM   21  C   UNK N   1      37.482  12.826  11.692  0.00  0.00     0.001 A 
HETATM   22  C   UNK N   1      36.571  13.851  11.447  0.00  0.00     0.000 A 
HETATM   23  C   UNK N   1      35.487  14.039  12.305  0.00  0.00     0.001 A 
HETATM   24  C   UNK N   1      35.317  13.200  13.412  0.00  0.00     0.008 A 
ENDBRANCH   1  19
TORSDOF 8
ENDMDL
