MODEL 1
REMARK VINA RESULT:      -5.8      0.000      0.000
REMARK  5 active torsions:
REMARK  status: ('A' for Active; 'I' for Inactive)
REMARK    1  A    between atoms: C_4  and  O_1 
REMARK    2  A    between atoms: O_1  and  C_15 
REMARK    3  A    between atoms: C_4  and  C_10 
REMARK    4  A    between atoms: C_5  and  C_9 
REMARK    5  A    between atoms: C_15  and  C_18 
ROOT
HETATM    1  N   UNK N   1      26.721  24.011  -6.871  0.00  0.00     0.084 N 
HETATM    2  C   UNK N   1      27.628  25.695  -4.568  0.00  0.00     0.104 C 
HETATM    3  C   UNK N   1      28.133  25.935  -6.019  0.00  0.00     0.053 C 
HETATM    4  C   UNK N   1      26.208  25.119  -4.672  0.00  0.00     0.074 C 
HETATM    5  C   UNK N   1      28.033  24.679  -6.904  0.00  0.00     0.279 C 
HETATM    6  C   UNK N   1      26.152  23.844  -5.527  0.00  0.00     0.275 C 
HETATM    7  C   UNK N   1      25.771  24.642  -7.773  0.00  0.00     0.309 C 
ENDROOT
BRANCH   2   8
HETATM    8  O   UNK N   1      27.541  26.903  -3.876  0.00  0.00    -0.305 OA
BRANCH   8   9
HETATM    9  C   UNK N   1      26.416  27.396  -3.280  0.00  0.00     0.259 C 
HETATM   10  O   UNK N   1      26.024  26.952  -2.211  0.00  0.00    -0.265 OA
BRANCH   9  11
HETATM   11  C   UNK N   1      25.639  28.477  -3.954  0.00  0.00     0.106 C 
HETATM   12  C   UNK N   1      26.504  29.718  -4.096  0.00  0.00     0.015 C 
ENDBRANCH   9  11
ENDBRANCH   8   9
ENDBRANCH   2   8
BRANCH   2  13
HETATM   13  C   UNK N   1      28.524  24.717  -3.784  0.00  0.00    -0.023 A 
HETATM   14  C   UNK N   1      29.917  24.704  -3.990  0.00  0.00     0.010 A 
HETATM   15  C   UNK N   1      30.744  23.841  -3.268  0.00  0.00     0.001 A 
HETATM   16  C   UNK N   1      30.192  22.974  -2.324  0.00  0.00     0.000 A 
HETATM   17  C   UNK N   1      28.814  22.972  -2.103  0.00  0.00     0.001 A 
HETATM   18  C   UNK N   1      27.988  23.837  -2.824  0.00  0.00     0.010 A 
ENDBRANCH   2  13
BRANCH   3  19
HETATM   19  C   UNK N   1      27.615  27.205  -6.724  0.00  0.00     0.005 C 
HETATM   20  C   UNK N   1      28.227  27.490  -8.085  0.00  0.00     0.005 C 
ENDBRANCH   3  19
TORSDOF 5
ENDMDL
MODEL 2
REMARK VINA RESULT:      -5.7     16.077     18.485
REMARK  5 active torsions:
REMARK  status: ('A' for Active; 'I' for Inactive)
REMARK    1  A    between atoms: C_4  and  O_1 
REMARK    2  A    between atoms: O_1  and  C_15 
REMARK    3  A    between atoms: C_4  and  C_10 
REMARK    4  A    between atoms: C_5  and  C_9 
REMARK    5  A    between atoms: C_15  and  C_18 
ROOT
HETATM    1  N   UNK N   1      22.674  12.376   6.097  0.00  0.00     0.084 N 
HETATM    2  C   UNK N   1      22.020  14.074   8.474  0.00  0.00     0.104 C 
HETATM    3  C   UNK N   1      23.047  14.520   7.396  0.00  0.00     0.053 C 
HETATM    4  C   UNK N   1      20.982  13.186   7.772  0.00  0.00     0.074 C 
HETATM    5  C   UNK N   1      23.659  13.336   6.624  0.00  0.00     0.279 C 
HETATM    6  C   UNK N   1      21.623  11.992   7.049  0.00  0.00     0.275 C 
HETATM    7  C   UNK N   1      22.109  12.821   4.834  0.00  0.00     0.309 C 
ENDROOT
BRANCH   2   8
HETATM    8  O   UNK N   1      21.345  15.180   8.992  0.00  0.00    -0.305 OA
BRANCH   8   9
HETATM    9  C   UNK N   1      19.989  15.346   9.005  0.00  0.00     0.259 C 
HETATM   10  O   UNK N   1      19.268  14.585   9.632  0.00  0.00    -0.265 OA
BRANCH   9  11
HETATM   11  C   UNK N   1      19.377  16.460   8.224  0.00  0.00     0.106 C 
HETATM   12  C   UNK N   1      18.386  17.213   9.095  0.00  0.00     0.015 C 
ENDBRANCH   9  11
ENDBRANCH   8   9
ENDBRANCH   2   8
BRANCH   2  13
HETATM   13  C   UNK N   1      22.676  13.287   9.625  0.00  0.00    -0.023 A 
HETATM   14  C   UNK N   1      21.884  12.702  10.633  0.00  0.00     0.010 A 
HETATM   15  C   UNK N   1      22.463  11.965  11.668  0.00  0.00     0.001 A 
HETATM   16  C   UNK N   1      23.848  11.797  11.713  0.00  0.00     0.000 A 
HETATM   17  C   UNK N   1      24.651  12.366  10.723  0.00  0.00     0.001 A 
HETATM   18  C   UNK N   1      24.070  13.102   9.687  0.00  0.00     0.010 A 
ENDBRANCH   2  13
BRANCH   3  19
HETATM   19  C   UNK N   1      22.611  15.674   6.470  0.00  0.00     0.005 C 
HETATM   20  C   UNK N   1      23.684  16.197   5.530  0.00  0.00     0.005 C 
ENDBRANCH   3  19
TORSDOF 5
ENDMDL
MODEL 3
REMARK VINA RESULT:      -5.4      2.224      4.161
REMARK  5 active torsions:
REMARK  status: ('A' for Active; 'I' for Inactive)
REMARK    1  A    between atoms: C_4  and  O_1 
REMARK    2  A    between atoms: O_1  and  C_15 
REMARK    3  A    between atoms: C_4  and  C_10 
REMARK    4  A    between atoms: C_5  and  C_9 
REMARK    5  A    between atoms: C_15  and  C_18 
ROOT
HETATM    1  N   UNK N   1      29.239  27.078  -5.401  0.00  0.00     0.084 N 
HETATM    2  C   UNK N   1      27.654  24.557  -5.095  0.00  0.00     0.104 C 
HETATM    3  C   UNK N   1      27.394  25.811  -4.213  0.00  0.00     0.053 C 
HETATM    4  C   UNK N   1      28.173  25.057  -6.451  0.00  0.00     0.074 C 
HETATM    5  C   UNK N   1      28.621  26.736  -4.109  0.00  0.00     0.279 C 
HETATM    6  C   UNK N   1      29.421  25.942  -6.314  0.00  0.00     0.275 C 
HETATM    7  C   UNK N   1      28.549  28.178  -6.055  0.00  0.00     0.309 C 
ENDROOT
BRANCH   2   8
HETATM    8  O   UNK N   1      26.462  23.870  -5.329  0.00  0.00    -0.305 OA
BRANCH   8   9
HETATM    9  C   UNK N   1      25.953  23.562  -6.558  0.00  0.00     0.259 C 
HETATM   10  O   UNK N   1      25.239  24.351  -7.159  0.00  0.00    -0.265 OA
BRANCH   9  11
HETATM   11  C   UNK N   1      26.254  22.234  -7.167  0.00  0.00     0.106 C 
HETATM   12  C   UNK N   1      24.958  21.542  -7.553  0.00  0.00     0.015 C 
ENDBRANCH   9  11
ENDBRANCH   8   9
ENDBRANCH   2   8
BRANCH   2  13
HETATM   13  C   UNK N   1      28.686  23.599  -4.471  0.00  0.00    -0.023 A 
HETATM   14  C   UNK N   1      28.945  23.631  -3.087  0.00  0.00     0.010 A 
HETATM   15  C   UNK N   1      29.859  22.752  -2.504  0.00  0.00     0.001 A 
HETATM   16  C   UNK N   1      30.531  21.819  -3.295  0.00  0.00     0.000 A 
HETATM   17  C   UNK N   1      30.287  21.767  -4.669  0.00  0.00     0.001 A 
HETATM   18  C   UNK N   1      29.371  22.647  -5.251  0.00  0.00     0.010 A 
ENDBRANCH   2  13
BRANCH   3  19
HETATM   19  C   UNK N   1      26.087  26.582  -4.486  0.00  0.00     0.005 C 
HETATM   20  C   UNK N   1      25.775  27.703  -3.508  0.00  0.00     0.005 C 
ENDBRANCH   3  19
TORSDOF 5
ENDMDL
MODEL 4
REMARK VINA RESULT:      -5.4      2.223      4.302
REMARK  5 active torsions:
REMARK  status: ('A' for Active; 'I' for Inactive)
REMARK    1  A    between atoms: C_4  and  O_1 
REMARK    2  A    between atoms: O_1  and  C_15 
REMARK    3  A    between atoms: C_4  and  C_10 
REMARK    4  A    between atoms: C_5  and  C_9 
REMARK    5  A    between atoms: C_15  and  C_18 
ROOT
HETATM    1  N   UNK N   1      27.536  28.159  -3.458  0.00  0.00     0.084 N 
HETATM    2  C   UNK N   1      28.225  25.731  -5.069  0.00  0.00     0.104 C 
HETATM    3  C   UNK N   1      26.754  26.148  -4.788  0.00  0.00     0.053 C 
HETATM    4  C   UNK N   1      29.063  27.017  -5.098  0.00  0.00     0.074 C 
HETATM    5  C   UNK N   1      26.607  27.018  -3.526  0.00  0.00     0.279 C 
HETATM    6  C   UNK N   1      28.927  27.839  -3.807  0.00  0.00     0.275 C 
HETATM    7  C   UNK N   1      27.048  29.298  -4.219  0.00  0.00     0.309 C 
ENDROOT
BRANCH   2   8
HETATM    8  O   UNK N   1      28.331  25.132  -6.324  0.00  0.00    -0.305 OA
BRANCH   8   9
HETATM    9  C   UNK N   1      28.100  23.813  -6.594  0.00  0.00     0.259 C 
HETATM   10  O   UNK N   1      26.990  23.324  -6.440  0.00  0.00    -0.265 OA
BRANCH   9  11
HETATM   11  C   UNK N   1      29.223  22.950  -7.063  0.00  0.00     0.106 C 
HETATM   12  C   UNK N   1      29.429  21.803  -6.089  0.00  0.00     0.015 C 
ENDBRANCH   9  11
ENDBRANCH   8   9
ENDBRANCH   2   8
BRANCH   2  13
HETATM   13  C   UNK N   1      28.784  24.778  -3.994  0.00  0.00    -0.023 A 
HETATM   14  C   UNK N   1      27.912  24.032  -3.178  0.00  0.00     0.010 A 
HETATM   15  C   UNK N   1      28.404  23.145  -2.218  0.00  0.00     0.001 A 
HETATM   16  C   UNK N   1      29.782  22.986  -2.059  0.00  0.00     0.000 A 
HETATM   17  C   UNK N   1      30.664  23.713  -2.859  0.00  0.00     0.001 A 
HETATM   18  C   UNK N   1      30.170  24.599  -3.820  0.00  0.00     0.010 A 
ENDBRANCH   2  13
BRANCH   3  19
HETATM   19  C   UNK N   1      25.958  26.699  -5.988  0.00  0.00     0.005 C 
HETATM   20  C   UNK N   1      24.539  27.147  -5.678  0.00  0.00     0.005 C 
ENDBRANCH   3  19
TORSDOF 5
ENDMDL
MODEL 5
REMARK VINA RESULT:      -5.4      4.796      7.308
REMARK  5 active torsions:
REMARK  status: ('A' for Active; 'I' for Inactive)
REMARK    1  A    between atoms: C_4  and  O_1 
REMARK    2  A    between atoms: O_1  and  C_15 
REMARK    3  A    between atoms: C_4  and  C_10 
REMARK    4  A    between atoms: C_5  and  C_9 
REMARK    5  A    between atoms: C_15  and  C_18 
ROOT
HETATM    1  N   UNK N   1      33.860  21.529  -6.869  0.00  0.00     0.084 N 
HETATM    2  C   UNK N   1      31.481  20.961  -5.143  0.00  0.00     0.104 C 
HETATM    3  C   UNK N   1      32.607  19.914  -5.371  0.00  0.00     0.053 C 
HETATM    4  C   UNK N   1      32.127  22.351  -5.242  0.00  0.00     0.074 C 
HETATM    5  C   UNK N   1      33.388  20.147  -6.678  0.00  0.00     0.279 C 
HETATM    6  C   UNK N   1      32.861  22.565  -6.574  0.00  0.00     0.275 C 
HETATM    7  C   UNK N   1      35.105  21.777  -6.160  0.00  0.00     0.309 C 
ENDROOT
BRANCH   2   8
HETATM    8  O   UNK N   1      30.951  20.835  -3.859  0.00  0.00    -0.305 OA
BRANCH   8   9
HETATM    9  C   UNK N   1      30.911  21.823  -2.917  0.00  0.00     0.259 C 
HETATM   10  O   UNK N   1      31.869  22.036  -2.187  0.00  0.00    -0.265 OA
BRANCH   9  11
HETATM   11  C   UNK N   1      29.674  22.642  -2.761  0.00  0.00     0.106 C 
HETATM   12  C   UNK N   1      29.972  24.092  -3.100  0.00  0.00     0.015 C 
ENDBRANCH   9  11
ENDBRANCH   8   9
ENDBRANCH   2   8
BRANCH   2  13
HETATM   13  C   UNK N   1      30.348  20.846  -6.181  0.00  0.00    -0.023 A 
HETATM   14  C   UNK N   1      30.186  19.666  -6.934  0.00  0.00     0.010 A 
HETATM   15  C   UNK N   1      29.149  19.539  -7.859  0.00  0.00     0.001 A 
HETATM   16  C   UNK N   1      28.250  20.589  -8.047  0.00  0.00     0.000 A 
HETATM   17  C   UNK N   1      28.389  21.766  -7.310  0.00  0.00     0.001 A 
HETATM   18  C   UNK N   1      29.427  21.892  -6.383  0.00  0.00     0.010 A 
ENDBRANCH   2  13
BRANCH   3  19
HETATM   19  C   UNK N   1      33.529  19.626  -4.169  0.00  0.00     0.005 C 
HETATM   20  C   UNK N   1      34.364  18.361  -4.276  0.00  0.00     0.005 C 
ENDBRANCH   3  19
TORSDOF 5
ENDMDL
MODEL 6
REMARK VINA RESULT:      -5.2      3.231      5.529
REMARK  5 active torsions:
REMARK  status: ('A' for Active; 'I' for Inactive)
REMARK    1  A    between atoms: C_4  and  O_1 
REMARK    2  A    between atoms: O_1  and  C_15 
REMARK    3  A    between atoms: C_4  and  C_10 
REMARK    4  A    between atoms: C_5  and  C_9 
REMARK    5  A    between atoms: C_15  and  C_18 
ROOT
HETATM    1  N   UNK N   1      28.171  25.906  -9.346  0.00  0.00     0.084 N 
HETATM    2  C   UNK N   1      25.956  24.312  -8.116  0.00  0.00     0.104 C 
HETATM    3  C   UNK N   1      25.684  25.529  -9.045  0.00  0.00     0.053 C 
HETATM    4  C   UNK N   1      27.284  23.686  -8.566  0.00  0.00     0.074 C 
HETATM    5  C   UNK N   1      26.859  26.523  -9.091  0.00  0.00     0.279 C 
HETATM    6  C   UNK N   1      28.442  24.694  -8.560  0.00  0.00     0.275 C 
HETATM    7  C   UNK N   1      28.395  25.678 -10.764  0.00  0.00     0.309 C 
ENDROOT
BRANCH   2   8
HETATM    8  O   UNK N   1      24.961  23.346  -8.273  0.00  0.00    -0.305 OA
BRANCH   8   9
HETATM    9  C   UNK N   1      25.164  22.059  -8.679  0.00  0.00     0.259 C 
HETATM   10  O   UNK N   1      25.252  21.779  -9.866  0.00  0.00    -0.265 OA
BRANCH   9  11
HETATM   11  C   UNK N   1      25.258  20.972  -7.661  0.00  0.00     0.106 C 
HETATM   12  C   UNK N   1      24.193  21.173  -6.596  0.00  0.00     0.015 C 
ENDBRANCH   9  11
ENDBRANCH   8   9
ENDBRANCH   2   8
BRANCH   2  13
HETATM   13  C   UNK N   1      26.054  24.713  -6.631  0.00  0.00    -0.023 A 
HETATM   14  C   UNK N   1      26.674  23.857  -5.700  0.00  0.00     0.010 A 
HETATM   15  C   UNK N   1      26.793  24.218  -4.356  0.00  0.00     0.001 A 
HETATM   16  C   UNK N   1      26.294  25.447  -3.919  0.00  0.00     0.000 A 
HETATM   17  C   UNK N   1      25.679  26.311  -4.825  0.00  0.00     0.001 A 
HETATM   18  C   UNK N   1      25.562  25.949  -6.170  0.00  0.00     0.010 A 
ENDBRANCH   2  13
BRANCH   3  19
HETATM   19  C   UNK N   1      25.117  25.209 -10.443  0.00  0.00     0.005 C 
HETATM   20  C   UNK N   1      24.388  26.354 -11.128  0.00  0.00     0.005 C 
ENDBRANCH   3  19
TORSDOF 5
ENDMDL
MODEL 7
REMARK VINA RESULT:      -5.2     11.868     13.677
REMARK  5 active torsions:
REMARK  status: ('A' for Active; 'I' for Inactive)
REMARK    1  A    between atoms: C_4  and  O_1 
REMARK    2  A    between atoms: O_1  and  C_15 
REMARK    3  A    between atoms: C_4  and  C_10 
REMARK    4  A    between atoms: C_5  and  C_9 
REMARK    5  A    between atoms: C_15  and  C_18 
ROOT
HETATM    1  N   UNK N   1      26.088  17.152   4.236  0.00  0.00     0.084 N 
HETATM    2  C   UNK N   1      28.269  17.820   6.174  0.00  0.00     0.104 C 
HETATM    3  C   UNK N   1      27.694  18.869   5.182  0.00  0.00     0.053 C 
HETATM    4  C   UNK N   1      27.137  16.835   6.499  0.00  0.00     0.074 C 
HETATM    5  C   UNK N   1      27.048  18.229   3.939  0.00  0.00     0.279 C 
HETATM    6  C   UNK N   1      26.545  16.182   5.241  0.00  0.00     0.275 C 
HETATM    7  C   UNK N   1      24.773  17.676   4.566  0.00  0.00     0.309 C 
ENDROOT
BRANCH   2   8
HETATM    8  O   UNK N   1      28.647  18.434   7.368  0.00  0.00    -0.305 OA
BRANCH   8   9
HETATM    9  C   UNK N   1      28.765  17.811   8.578  0.00  0.00     0.259 C 
HETATM   10  O   UNK N   1      27.833  17.790   9.368  0.00  0.00    -0.265 OA
BRANCH   9  11
HETATM   11  C   UNK N   1      30.057  17.165   8.950  0.00  0.00     0.106 C 
HETATM   12  C   UNK N   1      31.208  18.109   8.649  0.00  0.00     0.015 C 
ENDBRANCH   9  11
ENDBRANCH   8   9
ENDBRANCH   2   8
BRANCH   2  13
HETATM   13  C   UNK N   1      29.470  17.050   5.590  0.00  0.00    -0.023 A 
HETATM   14  C   UNK N   1      30.478  17.732   4.880  0.00  0.00     0.010 A 
HETATM   15  C   UNK N   1      31.584  17.051   4.367  0.00  0.00     0.001 A 
HETATM   16  C   UNK N   1      31.704  15.673   4.557  0.00  0.00     0.000 A 
HETATM   17  C   UNK N   1      30.717  14.979   5.259  0.00  0.00     0.001 A 
HETATM   18  C   UNK N   1      29.612  15.662   5.774  0.00  0.00     0.010 A 
ENDBRANCH   2  13
BRANCH   3  19
HETATM   19  C   UNK N   1      26.827  19.988   5.794  0.00  0.00     0.005 C 
HETATM   20  C   UNK N   1      27.527  21.323   5.987  0.00  0.00     0.005 C 
ENDBRANCH   3  19
TORSDOF 5
ENDMDL
MODEL 8
REMARK VINA RESULT:      -5.2     12.233     13.969
REMARK  5 active torsions:
REMARK  status: ('A' for Active; 'I' for Inactive)
REMARK    1  A    between atoms: C_4  and  O_1 
REMARK    2  A    between atoms: O_1  and  C_15 
REMARK    3  A    between atoms: C_4  and  C_10 
REMARK    4  A    between atoms: C_5  and  C_9 
REMARK    5  A    between atoms: C_15  and  C_18 
ROOT
HETATM    1  N   UNK N   1      27.331  16.608   4.370  0.00  0.00     0.084 N 
HETATM    2  C   UNK N   1      29.777  17.194   5.994  0.00  0.00     0.104 C 
HETATM    3  C   UNK N   1      28.902  18.322   5.377  0.00  0.00     0.053 C 
HETATM    4  C   UNK N   1      28.847  16.008   6.285  0.00  0.00     0.074 C 
HETATM    5  C   UNK N   1      28.089  17.852   4.157  0.00  0.00     0.279 C 
HETATM    6  C   UNK N   1      28.085  15.537   5.038  0.00  0.00     0.275 C 
HETATM    7  C   UNK N   1      26.063  16.856   5.036  0.00  0.00     0.309 C 
ENDROOT
BRANCH   2   8
HETATM    8  O   UNK N   1      30.322  17.610   7.209  0.00  0.00    -0.305 OA
BRANCH   8   9
HETATM    9  C   UNK N   1      31.452  17.103   7.784  0.00  0.00     0.259 C 
HETATM   10  O   UNK N   1      31.457  15.990   8.290  0.00  0.00    -0.265 OA
BRANCH   9  11
HETATM   11  C   UNK N   1      32.695  17.929   7.817  0.00  0.00     0.106 C 
HETATM   12  C   UNK N   1      33.845  17.149   7.205  0.00  0.00     0.015 C 
ENDBRANCH   9  11
ENDBRANCH   8   9
ENDBRANCH   2   8
BRANCH   2  13
HETATM   13  C   UNK N   1      30.909  16.742   5.050  0.00  0.00    -0.023 A 
HETATM   14  C   UNK N   1      31.621  17.686   4.286  0.00  0.00     0.010 A 
HETATM   15  C   UNK N   1      32.665  17.294   3.446  0.00  0.00     0.001 A 
HETATM   16  C   UNK N   1      33.019  15.946   3.358  0.00  0.00     0.000 A 
HETATM   17  C   UNK N   1      32.328  14.994   4.109  0.00  0.00     0.001 A 
HETATM   18  C   UNK N   1      31.284  15.389   4.950  0.00  0.00     0.010 A 
ENDBRANCH   2  13
BRANCH   3  19
HETATM   19  C   UNK N   1      28.064  19.157   6.367  0.00  0.00     0.005 C 
HETATM   20  C   UNK N   1      27.483  20.444   5.805  0.00  0.00     0.005 C 
ENDBRANCH   3  19
TORSDOF 5
ENDMDL
MODEL 9
REMARK VINA RESULT:      -5.1      1.807      4.655
REMARK  5 active torsions:
REMARK  status: ('A' for Active; 'I' for Inactive)
REMARK    1  A    between atoms: C_4  and  O_1 
REMARK    2  A    between atoms: O_1  and  C_15 
REMARK    3  A    between atoms: C_4  and  C_10 
REMARK    4  A    between atoms: C_5  and  C_9 
REMARK    5  A    between atoms: C_15  and  C_18 
ROOT
HETATM    1  N   UNK N   1      27.346  24.693  -8.905  0.00  0.00     0.084 N 
HETATM    2  C   UNK N   1      26.997  24.459  -5.941  0.00  0.00     0.104 C 
HETATM    3  C   UNK N   1      25.957  23.886  -6.946  0.00  0.00     0.053 C 
HETATM    4  C   UNK N   1      28.369  24.399  -6.627  0.00  0.00     0.074 C 
HETATM    5  C   UNK N   1      26.001  24.584  -8.318  0.00  0.00     0.279 C 
HETATM    6  C   UNK N   1      28.389  25.141  -7.971  0.00  0.00     0.275 C 
HETATM    7  C   UNK N   1      27.738  23.472  -9.589  0.00  0.00     0.309 C 
ENDROOT
BRANCH   2   8
HETATM    8  O   UNK N   1      27.062  23.660  -4.799  0.00  0.00    -0.305 OA
BRANCH   8   9
HETATM    9  C   UNK N   1      27.515  24.064  -3.576  0.00  0.00     0.259 C 
HETATM   10  O   UNK N   1      26.737  24.420  -2.703  0.00  0.00    -0.265 OA
BRANCH   9  11
HETATM   11  C   UNK N   1      28.982  24.092  -3.306  0.00  0.00     0.106 C 
HETATM   12  C   UNK N   1      29.360  22.930  -2.404  0.00  0.00     0.015 C 
ENDBRANCH   9  11
ENDBRANCH   8   9
ENDBRANCH   2   8
BRANCH   2  13
HETATM   13  C   UNK N   1      26.686  25.913  -5.535  0.00  0.00    -0.023 A 
HETATM   14  C   UNK N   1      25.355  26.333  -5.348  0.00  0.00     0.010 A 
HETATM   15  C   UNK N   1      25.061  27.640  -4.956  0.00  0.00     0.001 A 
HETATM   16  C   UNK N   1      26.095  28.553  -4.740  0.00  0.00     0.000 A 
HETATM   17  C   UNK N   1      27.421  28.156  -4.916  0.00  0.00     0.001 A 
HETATM   18  C   UNK N   1      27.715  26.847  -5.308  0.00  0.00     0.010 A 
ENDBRANCH   2  13
BRANCH   3  19
HETATM   19  C   UNK N   1      25.890  22.349  -7.060  0.00  0.00     0.005 C 
HETATM   20  C   UNK N   1      24.782  21.809  -7.950  0.00  0.00     0.005 C 
ENDBRANCH   3  19
TORSDOF 5
ENDMDL
