MODEL 1
REMARK VINA RESULT:      -8.2      0.000      0.000
REMARK  8 active torsions:
REMARK  status: ('A' for Active; 'I' for Inactive)
REMARK    1  A    between atoms: O_1  and  C_13 
REMARK    2  A    between atoms: N_3  and  C_10 
REMARK    3  A    between atoms: C_5  and  C_11 
REMARK    4  A    between atoms: C_5  and  C_13 
REMARK    5  A    between atoms: C_10  and  C_12 
REMARK    6  A    between atoms: C_12  and  C_14 
REMARK    7  A    between atoms: C_14  and  C_17 
REMARK    8  A    between atoms: C_14  and  C_18 
ROOT
HETATM    1  N   UNK N   1      24.773  23.326  -8.384  0.00  0.00    -0.196 NA
HETATM    2  C   UNK N   1      26.556  25.262  -8.400  0.00  0.00     0.104 C 
HETATM    3  C   UNK N   1      25.547  24.187  -8.371  0.00  0.00     0.079 C 
ENDROOT
BRANCH   2   4
HETATM    4  C   UNK N   1      28.008  24.664  -8.271  0.00  0.00     0.065 C 
BRANCH   4   5
HETATM    5  C   UNK N   1      28.246  23.326  -7.510  0.00  0.00     0.275 C 
BRANCH   5   6
HETATM    6  N   UNK N   1      29.018  23.410  -6.253  0.00  0.00     0.088 N 
HETATM    7  C   UNK N   1      29.769  22.167  -6.071  0.00  0.00     0.274 C 
HETATM    8  C   UNK N   1      30.495  22.031  -4.731  0.00  0.00     0.055 C 
HETATM    9  C   UNK N   1      30.338  23.226  -3.788  0.00  0.00     0.075 C 
HETATM   10  C   UNK N   1      28.846  23.609  -3.748  0.00  0.00     0.055 C 
HETATM   11  C   UNK N   1      28.152  23.740  -5.115  0.00  0.00     0.274 C 
BRANCH   9  12
HETATM   12  C   UNK N   1      31.200  24.418  -4.194  0.00  0.00    -0.039 A 
HETATM   13  C   UNK N   1      30.828  25.716  -3.804  0.00  0.00     0.008 A 
HETATM   14  C   UNK N   1      31.634  26.812  -4.127  0.00  0.00     0.001 A 
HETATM   15  C   UNK N   1      32.818  26.625  -4.844  0.00  0.00     0.000 A 
HETATM   16  C   UNK N   1      33.199  25.341  -5.240  0.00  0.00     0.001 A 
HETATM   17  C   UNK N   1      32.399  24.244  -4.911  0.00  0.00     0.008 A 
ENDBRANCH   9  12
BRANCH   9  18
HETATM   18  C   UNK N   1      30.766  22.738  -2.416  0.00  0.00     0.153 C 
HETATM   19  O   UNK N   1      30.159  23.097  -1.418  0.00  0.00    -0.649 OA
BRANCH  18  20
HETATM   20  O   UNK N   1      31.865  21.970  -2.276  0.00  0.00    -0.776 OA
HETATM   21  H   UNK N   1      32.239  21.801  -1.433  0.00  0.00     0.167 HD
ENDBRANCH  18  20
ENDBRANCH   9  18
ENDBRANCH   5   6
ENDBRANCH   4   5
ENDBRANCH   2   4
BRANCH   2  22
HETATM   22  C   UNK N   1      26.325  25.911  -9.766  0.00  0.00    -0.031 A 
HETATM   23  C   UNK N   1      25.035  26.083 -10.301  0.00  0.00     0.009 A 
HETATM   24  C   UNK N   1      24.856  26.771 -11.508  0.00  0.00     0.001 A 
HETATM   25  C   UNK N   1      25.956  27.287 -12.197  0.00  0.00     0.000 A 
HETATM   26  C   UNK N   1      27.242  27.116 -11.686  0.00  0.00     0.001 A 
HETATM   27  C   UNK N   1      27.421  26.446 -10.478  0.00  0.00     0.009 A 
ENDBRANCH   2  22
BRANCH   2  28
HETATM   28  C   UNK N   1      26.323  26.290  -7.284  0.00  0.00    -0.031 A 
HETATM   29  C   UNK N   1      27.282  27.285  -7.024  0.00  0.00     0.009 A 
HETATM   30  C   UNK N   1      27.104  28.204  -5.984  0.00  0.00     0.001 A 
HETATM   31  C   UNK N   1      25.964  28.136  -5.180  0.00  0.00     0.000 A 
HETATM   32  C   UNK N   1      24.999  27.157  -5.424  0.00  0.00     0.001 A 
HETATM   33  C   UNK N   1      25.172  26.242  -6.471  0.00  0.00     0.009 A 
ENDBRANCH   2  28
TORSDOF 8
ENDMDL
MODEL 2
REMARK VINA RESULT:      -7.6      1.101      3.393
REMARK  8 active torsions:
REMARK  status: ('A' for Active; 'I' for Inactive)
REMARK    1  A    between atoms: O_1  and  C_13 
REMARK    2  A    between atoms: N_3  and  C_10 
REMARK    3  A    between atoms: C_5  and  C_11 
REMARK    4  A    between atoms: C_5  and  C_13 
REMARK    5  A    between atoms: C_10  and  C_12 
REMARK    6  A    between atoms: C_12  and  C_14 
REMARK    7  A    between atoms: C_14  and  C_17 
REMARK    8  A    between atoms: C_14  and  C_18 
ROOT
HETATM    1  N   UNK N   1      30.085  25.717  -8.027  0.00  0.00    -0.196 NA
HETATM    2  C   UNK N   1      27.463  25.923  -7.945  0.00  0.00     0.104 C 
HETATM    3  C   UNK N   1      28.931  25.811  -8.015  0.00  0.00     0.079 C 
ENDROOT
BRANCH   2   4
HETATM    4  C   UNK N   1      26.832  24.604  -7.356  0.00  0.00     0.065 C 
BRANCH   4   5
HETATM    5  C   UNK N   1      27.723  23.354  -7.091  0.00  0.00     0.275 C 
BRANCH   5   6
HETATM    6  N   UNK N   1      28.624  23.422  -5.922  0.00  0.00     0.088 N 
HETATM    7  C   UNK N   1      29.367  22.165  -5.820  0.00  0.00     0.274 C 
HETATM    8  C   UNK N   1      30.227  22.013  -4.563  0.00  0.00     0.055 C 
HETATM    9  C   UNK N   1      30.191  23.209  -3.609  0.00  0.00     0.075 C 
HETATM   10  C   UNK N   1      28.720  23.619  -3.413  0.00  0.00     0.055 C 
HETATM   11  C   UNK N   1      27.888  23.766  -4.700  0.00  0.00     0.274 C 
BRANCH   9  12
HETATM   12  C   UNK N   1      31.028  24.386  -4.103  0.00  0.00    -0.039 A 
HETATM   13  C   UNK N   1      30.682  25.696  -3.732  0.00  0.00     0.008 A 
HETATM   14  C   UNK N   1      31.467  26.780  -4.138  0.00  0.00     0.001 A 
HETATM   15  C   UNK N   1      32.605  26.567  -4.919  0.00  0.00     0.000 A 
HETATM   16  C   UNK N   1      32.961  25.271  -5.296  0.00  0.00     0.001 A 
HETATM   17  C   UNK N   1      32.182  24.186  -4.886  0.00  0.00     0.008 A 
ENDBRANCH   9  12
BRANCH   9  18
HETATM   18  C   UNK N   1      30.751  22.710  -2.290  0.00  0.00     0.153 C 
HETATM   19  O   UNK N   1      30.269  23.090  -1.233  0.00  0.00    -0.649 OA
BRANCH  18  20
HETATM   20  O   UNK N   1      31.836  21.909  -2.266  0.00  0.00    -0.776 OA
HETATM   21  H   UNK N   1      32.633  22.153  -2.695  0.00  0.00     0.167 HD
ENDBRANCH  18  20
ENDBRANCH   9  18
ENDBRANCH   5   6
ENDBRANCH   4   5
ENDBRANCH   2   4
BRANCH   2  22
HETATM   22  C   UNK N   1      27.255  27.120  -7.015  0.00  0.00    -0.031 A 
HETATM   23  C   UNK N   1      26.303  27.103  -5.979  0.00  0.00     0.009 A 
HETATM   24  C   UNK N   1      26.211  28.178  -5.085  0.00  0.00     0.001 A 
HETATM   25  C   UNK N   1      27.057  29.281  -5.218  0.00  0.00     0.000 A 
HETATM   26  C   UNK N   1      27.999  29.318  -6.246  0.00  0.00     0.001 A 
HETATM   27  C   UNK N   1      28.103  28.243  -7.125  0.00  0.00     0.009 A 
ENDBRANCH   2  22
BRANCH   2  28
HETATM   28  C   UNK N   1      26.850  26.216  -9.322  0.00  0.00    -0.031 A 
HETATM   29  C   UNK N   1      27.646  26.739 -10.356  0.00  0.00     0.009 A 
HETATM   30  C   UNK N   1      27.094  27.051 -11.604  0.00  0.00     0.001 A 
HETATM   31  C   UNK N   1      25.731  26.852 -11.833  0.00  0.00     0.000 A 
HETATM   32  C   UNK N   1      24.925  26.330 -10.820  0.00  0.00     0.001 A 
HETATM   33  C   UNK N   1      25.478  26.009  -9.574  0.00  0.00     0.009 A 
ENDBRANCH   2  28
TORSDOF 8
ENDMDL
MODEL 3
REMARK VINA RESULT:      -7.6     15.529     19.164
REMARK  8 active torsions:
REMARK  status: ('A' for Active; 'I' for Inactive)
REMARK    1  A    between atoms: O_1  and  C_13 
REMARK    2  A    between atoms: N_3  and  C_10 
REMARK    3  A    between atoms: C_5  and  C_11 
REMARK    4  A    between atoms: C_5  and  C_13 
REMARK    5  A    between atoms: C_10  and  C_12 
REMARK    6  A    between atoms: C_12  and  C_14 
REMARK    7  A    between atoms: C_14  and  C_17 
REMARK    8  A    between atoms: C_14  and  C_18 
ROOT
HETATM    1  N   UNK N   1      24.699  14.503   6.585  0.00  0.00    -0.196 NA
HETATM    2  C   UNK N   1      22.571  13.612   7.853  0.00  0.00     0.104 C 
HETATM    3  C   UNK N   1      23.777  14.106   7.162  0.00  0.00     0.079 C 
ENDROOT
BRANCH   2   4
HETATM    4  C   UNK N   1      21.504  14.763   7.997  0.00  0.00     0.065 C 
BRANCH   4   5
HETATM    5  C   UNK N   1      21.624  16.061   7.147  0.00  0.00     0.275 C 
BRANCH   5   6
HETATM    6  N   UNK N   1      21.316  15.938   5.706  0.00  0.00     0.088 N 
HETATM    7  C   UNK N   1      22.088  16.939   4.967  0.00  0.00     0.274 C 
HETATM    8  C   UNK N   1      21.759  17.048   3.476  0.00  0.00     0.055 C 
HETATM    9  C   UNK N   1      20.681  16.082   2.981  0.00  0.00     0.075 C 
HETATM   10  C   UNK N   1      19.502  16.133   3.971  0.00  0.00     0.055 C 
HETATM   11  C   UNK N   1      19.872  16.016   5.460  0.00  0.00     0.274 C 
BRANCH   9  12
HETATM   12  C   UNK N   1      21.196  14.655   2.816  0.00  0.00    -0.039 A 
HETATM   13  C   UNK N   1      20.306  13.625   2.465  0.00  0.00     0.008 A 
HETATM   14  C   UNK N   1      20.773  12.322   2.264  0.00  0.00     0.001 A 
HETATM   15  C   UNK N   1      22.132  12.033   2.411  0.00  0.00     0.000 A 
HETATM   16  C   UNK N   1      23.027  13.045   2.760  0.00  0.00     0.001 A 
HETATM   17  C   UNK N   1      22.564  14.350   2.955  0.00  0.00     0.008 A 
ENDBRANCH   9  12
BRANCH   9  18
HETATM   18  C   UNK N   1      20.227  16.613   1.634  0.00  0.00     0.153 C 
HETATM   19  O   UNK N   1      20.807  16.276   0.612  0.00  0.00    -0.649 OA
BRANCH  18  20
HETATM   20  O   UNK N   1      19.235  17.523   1.557  0.00  0.00    -0.776 OA
HETATM   21  H   UNK N   1      18.372  17.283   1.279  0.00  0.00     0.167 HD
ENDBRANCH  18  20
ENDBRANCH   9  18
ENDBRANCH   5   6
ENDBRANCH   4   5
ENDBRANCH   2   4
BRANCH   2  22
HETATM   22  C   UNK N   1      22.083  12.492   6.931  0.00  0.00    -0.031 A 
HETATM   23  C   UNK N   1      22.879  11.371   6.635  0.00  0.00     0.009 A 
HETATM   24  C   UNK N   1      22.362  10.319   5.869  0.00  0.00     0.001 A 
HETATM   25  C   UNK N   1      21.053  10.376   5.384  0.00  0.00     0.000 A 
HETATM   26  C   UNK N   1      20.254  11.485   5.659  0.00  0.00     0.001 A 
HETATM   27  C   UNK N   1      20.762  12.524   6.435  0.00  0.00     0.009 A 
ENDBRANCH   2  22
BRANCH   2  28
HETATM   28  C   UNK N   1      22.904  13.043   9.239  0.00  0.00    -0.031 A 
HETATM   29  C   UNK N   1      24.242  12.816   9.610  0.00  0.00     0.009 A 
HETATM   30  C   UNK N   1      24.560  12.259  10.853  0.00  0.00     0.001 A 
HETATM   31  C   UNK N   1      23.543  11.911  11.743  0.00  0.00     0.000 A 
HETATM   32  C   UNK N   1      22.209  12.131  11.395  0.00  0.00     0.001 A 
HETATM   33  C   UNK N   1      21.889  12.697  10.154  0.00  0.00     0.009 A 
ENDBRANCH   2  28
TORSDOF 8
ENDMDL
MODEL 4
REMARK VINA RESULT:      -7.5     14.848     18.791
REMARK  8 active torsions:
REMARK  status: ('A' for Active; 'I' for Inactive)
REMARK    1  A    between atoms: O_1  and  C_13 
REMARK    2  A    between atoms: N_3  and  C_10 
REMARK    3  A    between atoms: C_5  and  C_11 
REMARK    4  A    between atoms: C_5  and  C_13 
REMARK    5  A    between atoms: C_10  and  C_12 
REMARK    6  A    between atoms: C_12  and  C_14 
REMARK    7  A    between atoms: C_14  and  C_17 
REMARK    8  A    between atoms: C_14  and  C_18 
ROOT
HETATM    1  N   UNK N   1      20.728  11.818   6.784  0.00  0.00    -0.196 NA
HETATM    2  C   UNK N   1      22.355  13.548   7.921  0.00  0.00     0.104 C 
HETATM    3  C   UNK N   1      21.460  12.576   7.266  0.00  0.00     0.079 C 
ENDROOT
BRANCH   2   4
HETATM    4  C   UNK N   1      21.639  14.942   8.080  0.00  0.00     0.065 C 
BRANCH   4   5
HETATM    5  C   UNK N   1      20.377  15.283   7.233  0.00  0.00     0.275 C 
BRANCH   5   6
HETATM    6  N   UNK N   1      20.614  15.933   5.928  0.00  0.00     0.088 N 
HETATM    7  C   UNK N   1      21.285  17.216   6.149  0.00  0.00     0.274 C 
HETATM    8  C   UNK N   1      21.456  18.088   4.904  0.00  0.00     0.055 C 
HETATM    9  C   UNK N   1      20.913  17.479   3.610  0.00  0.00     0.075 C 
HETATM   10  C   UNK N   1      19.504  16.926   3.897  0.00  0.00     0.055 C 
HETATM   11  C   UNK N   1      19.372  16.050   5.156  0.00  0.00     0.274 C 
BRANCH   9  12
HETATM   12  C   UNK N   1      21.821  16.394   3.039  0.00  0.00    -0.039 A 
HETATM   13  C   UNK N   1      21.345  15.541   2.028  0.00  0.00     0.008 A 
HETATM   14  C   UNK N   1      22.182  14.574   1.463  0.00  0.00     0.001 A 
HETATM   15  C   UNK N   1      23.503  14.447   1.900  0.00  0.00     0.000 A 
HETATM   16  C   UNK N   1      23.990  15.287   2.903  0.00  0.00     0.001 A 
HETATM   17  C   UNK N   1      23.157  16.259   3.465  0.00  0.00     0.008 A 
ENDBRANCH   9  12
BRANCH   9  18
HETATM   18  C   UNK N   1      20.808  18.623   2.618  0.00  0.00     0.153 C 
HETATM   19  O   UNK N   1      21.595  19.557   2.671  0.00  0.00    -0.649 OA
BRANCH  18  20
HETATM   20  O   UNK N   1      19.801  18.662   1.722  0.00  0.00    -0.776 OA
HETATM   21  H   UNK N   1      18.931  18.399   1.953  0.00  0.00     0.167 HD
ENDBRANCH  18  20
ENDBRANCH   9  18
ENDBRANCH   5   6
ENDBRANCH   4   5
ENDBRANCH   2   4
BRANCH   2  22
HETATM   22  C   UNK N   1      22.637  12.893   9.276  0.00  0.00    -0.031 A 
HETATM   23  C   UNK N   1      23.946  12.616   9.711  0.00  0.00     0.009 A 
HETATM   24  C   UNK N   1      24.171  12.108  10.997  0.00  0.00     0.001 A 
HETATM   25  C   UNK N   1      23.098  11.864  11.857  0.00  0.00     0.000 A 
HETATM   26  C   UNK N   1      21.794  12.124  11.437  0.00  0.00     0.001 A 
HETATM   27  C   UNK N   1      21.570  12.644  10.165  0.00  0.00     0.009 A 
ENDBRANCH   2  22
BRANCH   2  28
HETATM   28  C   UNK N   1      23.665  13.728   7.142  0.00  0.00    -0.031 A 
HETATM   29  C   UNK N   1      24.257  14.999   7.034  0.00  0.00     0.009 A 
HETATM   30  C   UNK N   1      25.429  15.187   6.292  0.00  0.00     0.001 A 
HETATM   31  C   UNK N   1      26.022  14.106   5.638  0.00  0.00     0.000 A 
HETATM   32  C   UNK N   1      25.452  12.836   5.737  0.00  0.00     0.001 A 
HETATM   33  C   UNK N   1      24.284  12.644   6.486  0.00  0.00     0.009 A 
ENDBRANCH   2  28
TORSDOF 8
ENDMDL
MODEL 5
REMARK VINA RESULT:      -7.5      3.548      7.742
REMARK  8 active torsions:
REMARK  status: ('A' for Active; 'I' for Inactive)
REMARK    1  A    between atoms: O_1  and  C_13 
REMARK    2  A    between atoms: N_3  and  C_10 
REMARK    3  A    between atoms: C_5  and  C_11 
REMARK    4  A    between atoms: C_5  and  C_13 
REMARK    5  A    between atoms: C_10  and  C_12 
REMARK    6  A    between atoms: C_12  and  C_14 
REMARK    7  A    between atoms: C_14  and  C_17 
REMARK    8  A    between atoms: C_14  and  C_18 
ROOT
HETATM    1  N   UNK N   1      30.408  22.869  -1.829  0.00  0.00    -0.196 NA
HETATM    2  C   UNK N   1      31.231  23.082  -4.320  0.00  0.00     0.104 C 
HETATM    3  C   UNK N   1      30.750  22.949  -2.932  0.00  0.00     0.079 C 
ENDROOT
BRANCH   2   4
HETATM    4  C   UNK N   1      31.351  24.600  -4.724  0.00  0.00     0.065 C 
BRANCH   4   5
HETATM    5  C   UNK N   1      30.629  25.698  -3.890  0.00  0.00     0.275 C 
BRANCH   5   6
HETATM    6  N   UNK N   1      29.388  26.256  -4.467  0.00  0.00     0.088 N 
HETATM    7  C   UNK N   1      28.239  25.533  -3.918  0.00  0.00     0.274 C 
HETATM    8  C   UNK N   1      26.886  25.885  -4.540  0.00  0.00     0.055 C 
HETATM    9  C   UNK N   1      26.938  26.954  -5.634  0.00  0.00     0.075 C 
HETATM   10  C   UNK N   1      28.087  26.597  -6.596  0.00  0.00     0.055 C 
HETATM   11  C   UNK N   1      29.433  26.253  -5.934  0.00  0.00     0.274 C 
BRANCH   9  12
HETATM   12  C   UNK N   1      27.107  28.364  -5.076  0.00  0.00    -0.039 A 
HETATM   13  C   UNK N   1      27.785  29.339  -5.829  0.00  0.00     0.008 A 
HETATM   14  C   UNK N   1      27.906  30.647  -5.352  0.00  0.00     0.001 A 
HETATM   15  C   UNK N   1      27.352  30.997  -4.118  0.00  0.00     0.000 A 
HETATM   16  C   UNK N   1      26.677  30.040  -3.358  0.00  0.00     0.001 A 
HETATM   17  C   UNK N   1      26.549  28.733  -3.837  0.00  0.00     0.008 A 
ENDBRANCH   9  12
BRANCH   9  18
HETATM   18  C   UNK N   1      25.617  26.860  -6.376  0.00  0.00     0.153 C 
HETATM   19  O   UNK N   1      25.597  26.565  -7.562  0.00  0.00    -0.649 OA
BRANCH  18  20
HETATM   20  O   UNK N   1      24.462  27.179  -5.758  0.00  0.00    -0.776 OA
HETATM   21  H   UNK N   1      23.741  27.547  -6.230  0.00  0.00     0.167 HD
ENDBRANCH  18  20
ENDBRANCH   9  18
ENDBRANCH   5   6
ENDBRANCH   4   5
ENDBRANCH   2   4
BRANCH   2  22
HETATM   22  C   UNK N   1      32.597  22.392  -4.276  0.00  0.00    -0.031 A 
HETATM   23  C   UNK N   1      33.687  22.848  -5.040  0.00  0.00     0.009 A 
HETATM   24  C   UNK N   1      34.947  22.255  -4.898  0.00  0.00     0.001 A 
HETATM   25  C   UNK N   1      35.134  21.198  -4.003  0.00  0.00     0.000 A 
HETATM   26  C   UNK N   1      34.061  20.728  -3.246  0.00  0.00     0.001 A 
HETATM   27  C   UNK N   1      32.811  21.328  -3.373  0.00  0.00     0.009 A 
ENDBRANCH   2  22
BRANCH   2  28
HETATM   28  C   UNK N   1      30.309  22.357  -5.311  0.00  0.00    -0.031 A 
HETATM   29  C   UNK N   1      30.647  21.077  -5.788  0.00  0.00     0.009 A 
HETATM   30  C   UNK N   1      29.839  20.421  -6.723  0.00  0.00     0.001 A 
HETATM   31  C   UNK N   1      28.684  21.039  -7.204  0.00  0.00     0.000 A 
HETATM   32  C   UNK N   1      28.330  22.308  -6.741  0.00  0.00     0.001 A 
HETATM   33  C   UNK N   1      29.133  22.963  -5.798  0.00  0.00     0.009 A 
ENDBRANCH   2  28
TORSDOF 8
ENDMDL
MODEL 6
REMARK VINA RESULT:      -7.4      3.111      6.222
REMARK  8 active torsions:
REMARK  status: ('A' for Active; 'I' for Inactive)
REMARK    1  A    between atoms: O_1  and  C_13 
REMARK    2  A    between atoms: N_3  and  C_10 
REMARK    3  A    between atoms: C_5  and  C_11 
REMARK    4  A    between atoms: C_5  and  C_13 
REMARK    5  A    between atoms: C_10  and  C_12 
REMARK    6  A    between atoms: C_12  and  C_14 
REMARK    7  A    between atoms: C_14  and  C_17 
REMARK    8  A    between atoms: C_14  and  C_18 
ROOT
HETATM    1  N   UNK N   1      29.935  24.305  -8.714  0.00  0.00    -0.196 NA
HETATM    2  C   UNK N   1      29.205  22.575  -6.869  0.00  0.00     0.104 C 
HETATM    3  C   UNK N   1      29.627  23.556  -7.886  0.00  0.00     0.079 C 
ENDROOT
BRANCH   2   4
HETATM    4  C   UNK N   1      27.637  22.582  -6.708  0.00  0.00     0.065 C 
BRANCH   4   5
HETATM    5  C   UNK N   1      26.790  23.751  -7.292  0.00  0.00     0.275 C 
BRANCH   5   6
HETATM    6  N   UNK N   1      26.758  25.001  -6.504  0.00  0.00     0.088 N 
HETATM    7  C   UNK N   1      26.801  24.667  -5.079  0.00  0.00     0.274 C 
HETATM    8  C   UNK N   1      26.611  25.849  -4.125  0.00  0.00     0.055 C 
HETATM    9  C   UNK N   1      26.421  27.205  -4.807  0.00  0.00     0.075 C 
HETATM   10  C   UNK N   1      25.383  27.032  -5.932  0.00  0.00     0.055 C 
HETATM   11  C   UNK N   1      25.609  25.836  -6.874  0.00  0.00     0.274 C 
BRANCH   9  12
HETATM   12  C   UNK N   1      27.725  27.784  -5.349  0.00  0.00    -0.039 A 
HETATM   13  C   UNK N   1      28.941  27.496  -4.704  0.00  0.00     0.008 A 
HETATM   14  C   UNK N   1      30.148  27.981  -5.217  0.00  0.00     0.001 A 
HETATM   15  C   UNK N   1      30.155  28.758  -6.378  0.00  0.00     0.000 A 
HETATM   16  C   UNK N   1      28.955  29.052  -7.029  0.00  0.00     0.001 A 
HETATM   17  C   UNK N   1      27.748  28.563  -6.522  0.00  0.00     0.008 A 
ENDBRANCH   9  12
BRANCH   9  18
HETATM   18  C   UNK N   1      25.859  28.133  -3.746  0.00  0.00     0.153 C 
HETATM   19  O   UNK N   1      25.460  27.683  -2.682  0.00  0.00    -0.649 OA
BRANCH  18  20
HETATM   20  O   UNK N   1      25.718  29.451  -3.996  0.00  0.00    -0.776 OA
HETATM   21  H   UNK N   1      25.950  30.097  -3.357  0.00  0.00     0.167 HD
ENDBRANCH  18  20
ENDBRANCH   9  18
ENDBRANCH   5   6
ENDBRANCH   4   5
ENDBRANCH   2   4
BRANCH   2  22
HETATM   22  C   UNK N   1      29.714  21.250  -7.441  0.00  0.00    -0.031 A 
HETATM   23  C   UNK N   1      31.069  21.048  -7.762  0.00  0.00     0.009 A 
HETATM   24  C   UNK N   1      31.515  19.791  -8.188  0.00  0.00     0.001 A 
HETATM   25  C   UNK N   1      30.619  18.726  -8.307  0.00  0.00     0.000 A 
HETATM   26  C   UNK N   1      29.271  18.912  -8.003  0.00  0.00     0.001 A 
HETATM   27  C   UNK N   1      28.828  20.157  -7.563  0.00  0.00     0.009 A 
ENDBRANCH   2  22
BRANCH   2  28
HETATM   28  C   UNK N   1      29.863  22.848  -5.510  0.00  0.00    -0.031 A 
HETATM   29  C   UNK N   1      29.931  21.833  -4.538  0.00  0.00     0.009 A 
HETATM   30  C   UNK N   1      30.490  22.077  -3.279  0.00  0.00     0.001 A 
HETATM   31  C   UNK N   1      30.984  23.346  -2.968  0.00  0.00     0.000 A 
HETATM   32  C   UNK N   1      30.929  24.365  -3.920  0.00  0.00     0.001 A 
HETATM   33  C   UNK N   1      30.377  24.120  -5.184  0.00  0.00     0.009 A 
ENDBRANCH   2  28
TORSDOF 8
ENDMDL
MODEL 7
REMARK VINA RESULT:      -7.4     15.273     19.082
REMARK  8 active torsions:
REMARK  status: ('A' for Active; 'I' for Inactive)
REMARK    1  A    between atoms: O_1  and  C_13 
REMARK    2  A    between atoms: N_3  and  C_10 
REMARK    3  A    between atoms: C_5  and  C_11 
REMARK    4  A    between atoms: C_5  and  C_13 
REMARK    5  A    between atoms: C_10  and  C_12 
REMARK    6  A    between atoms: C_12  and  C_14 
REMARK    7  A    between atoms: C_14  and  C_17 
REMARK    8  A    between atoms: C_14  and  C_18 
ROOT
HETATM    1  N   UNK N   1      19.880  14.555   8.481  0.00  0.00    -0.196 NA
HETATM    2  C   UNK N   1      22.159  13.641   7.535  0.00  0.00     0.104 C 
HETATM    3  C   UNK N   1      20.870  14.139   8.050  0.00  0.00     0.079 C 
ENDROOT
BRANCH   2   4
HETATM    4  C   UNK N   1      23.024  14.826   6.962  0.00  0.00     0.065 C 
BRANCH   4   5
HETATM    5  C   UNK N   1      22.345  16.156   6.520  0.00  0.00     0.275 C 
BRANCH   5   6
HETATM    6  N   UNK N   1      21.748  16.175   5.168  0.00  0.00     0.088 N 
HETATM    7  C   UNK N   1      22.417  17.200   4.366  0.00  0.00     0.274 C 
HETATM    8  C   UNK N   1      21.803  17.456   2.987  0.00  0.00     0.055 C 
HETATM    9  C   UNK N   1      20.590  16.588   2.650  0.00  0.00     0.075 C 
HETATM   10  C   UNK N   1      19.638  16.606   3.862  0.00  0.00     0.055 C 
HETATM   11  C   UNK N   1      20.291  16.340   5.230  0.00  0.00     0.274 C 
BRANCH   9  12
HETATM   12  C   UNK N   1      20.971  15.159   2.273  0.00  0.00    -0.039 A 
HETATM   13  C   UNK N   1      19.997  14.145   2.295  0.00  0.00     0.008 A 
HETATM   14  C   UNK N   1      20.321  12.842   1.906  0.00  0.00     0.001 A 
HETATM   15  C   UNK N   1      21.620  12.535   1.492  0.00  0.00     0.000 A 
HETATM   16  C   UNK N   1      22.597  13.532   1.466  0.00  0.00     0.001 A 
HETATM   17  C   UNK N   1      22.274  14.837   1.848  0.00  0.00     0.008 A 
ENDBRANCH   9  12
BRANCH   9  18
HETATM   18  C   UNK N   1      19.909  17.256   1.470  0.00  0.00     0.153 C 
HETATM   19  O   UNK N   1      20.334  17.086   0.337  0.00  0.00    -0.649 OA
BRANCH  18  20
HETATM   20  O   UNK N   1      18.882  18.108   1.665  0.00  0.00    -0.776 OA
HETATM   21  H   UNK N   1      18.947  19.014   1.435  0.00  0.00     0.167 HD
ENDBRANCH  18  20
ENDBRANCH   9  18
ENDBRANCH   5   6
ENDBRANCH   4   5
ENDBRANCH   2   4
BRANCH   2  22
HETATM   22  C   UNK N   1      22.802  13.012   8.775  0.00  0.00    -0.031 A 
HETATM   23  C   UNK N   1      24.179  13.125   9.038  0.00  0.00     0.009 A 
HETATM   24  C   UNK N   1      24.714  12.624  10.232  0.00  0.00     0.001 A 
HETATM   25  C   UNK N   1      23.887  11.999  11.169  0.00  0.00     0.000 A 
HETATM   26  C   UNK N   1      22.522  11.870  10.918  0.00  0.00     0.001 A 
HETATM   27  C   UNK N   1      21.986  12.383   9.739  0.00  0.00     0.009 A 
ENDBRANCH   2  22
BRANCH   2  28
HETATM   28  C   UNK N   1      21.963  12.574   6.449  0.00  0.00    -0.031 A 
HETATM   29  C   UNK N   1      20.712  11.955   6.280  0.00  0.00     0.009 A 
HETATM   30  C   UNK N   1      20.527  10.952   5.322  0.00  0.00     0.001 A 
HETATM   31  C   UNK N   1      21.596  10.545   4.523  0.00  0.00     0.000 A 
HETATM   32  C   UNK N   1      22.846  11.150   4.673  0.00  0.00     0.001 A 
HETATM   33  C   UNK N   1      23.030  12.160   5.625  0.00  0.00     0.009 A 
ENDBRANCH   2  28
TORSDOF 8
ENDMDL
MODEL 8
REMARK VINA RESULT:      -7.4      2.898      4.617
REMARK  8 active torsions:
REMARK  status: ('A' for Active; 'I' for Inactive)
REMARK    1  A    between atoms: O_1  and  C_13 
REMARK    2  A    between atoms: N_3  and  C_10 
REMARK    3  A    between atoms: C_5  and  C_11 
REMARK    4  A    between atoms: C_5  and  C_13 
REMARK    5  A    between atoms: C_10  and  C_12 
REMARK    6  A    between atoms: C_12  and  C_14 
REMARK    7  A    between atoms: C_14  and  C_17 
REMARK    8  A    between atoms: C_14  and  C_18 
ROOT
HETATM    1  N   UNK N   1      27.014  23.926  -2.574  0.00  0.00    -0.196 NA
HETATM    2  C   UNK N   1      27.871  25.352  -4.614  0.00  0.00     0.104 C 
HETATM    3  C   UNK N   1      27.379  24.573  -3.462  0.00  0.00     0.079 C 
ENDROOT
BRANCH   2   4
HETATM    4  C   UNK N   1      29.447  25.366  -4.642  0.00  0.00     0.065 C 
BRANCH   4   5
HETATM    5  C   UNK N   1      30.262  24.505  -3.633  0.00  0.00     0.275 C 
BRANCH   5   6
HETATM    6  N   UNK N   1      30.911  23.292  -4.174  0.00  0.00     0.088 N 
HETATM    7  C   UNK N   1      30.672  22.175  -3.258  0.00  0.00     0.274 C 
HETATM    8  C   UNK N   1      31.417  20.882  -3.595  0.00  0.00     0.055 C 
HETATM    9  C   UNK N   1      32.290  20.949  -4.850  0.00  0.00     0.075 C 
HETATM   10  C   UNK N   1      33.118  22.246  -4.787  0.00  0.00     0.055 C 
HETATM   11  C   UNK N   1      32.333  23.526  -4.450  0.00  0.00     0.274 C 
BRANCH   9  12
HETATM   12  C   UNK N   1      31.478  20.879  -6.140  0.00  0.00    -0.039 A 
HETATM   13  C   UNK N   1      30.346  20.049  -6.212  0.00  0.00     0.008 A 
HETATM   14  C   UNK N   1      29.566  20.011  -7.371  0.00  0.00     0.001 A 
HETATM   15  C   UNK N   1      29.907  20.801  -8.472  0.00  0.00     0.000 A 
HETATM   16  C   UNK N   1      31.029  21.629  -8.416  0.00  0.00     0.001 A 
HETATM   17  C   UNK N   1      31.807  21.674  -7.256  0.00  0.00     0.008 A 
ENDBRANCH   9  12
BRANCH   9  18
HETATM   18  C   UNK N   1      33.224  19.755  -4.776  0.00  0.00     0.153 C 
HETATM   19  O   UNK N   1      34.176  19.670  -5.538  0.00  0.00    -0.649 OA
BRANCH  18  20
HETATM   20  O   UNK N   1      32.969  18.739  -3.927  0.00  0.00    -0.776 OA
HETATM   21  H   UNK N   1      33.641  18.377  -3.382  0.00  0.00     0.167 HD
ENDBRANCH  18  20
ENDBRANCH   9  18
ENDBRANCH   5   6
ENDBRANCH   4   5
ENDBRANCH   2   4
BRANCH   2  22
HETATM   22  C   UNK N   1      27.285  24.601  -5.811  0.00  0.00    -0.031 A 
HETATM   23  C   UNK N   1      27.685  23.293  -6.139  0.00  0.00     0.009 A 
HETATM   24  C   UNK N   1      27.054  22.600  -7.180  0.00  0.00     0.001 A 
HETATM   25  C   UNK N   1      26.027  23.204  -7.909  0.00  0.00     0.000 A 
HETATM   26  C   UNK N   1      25.626  24.504  -7.604  0.00  0.00     0.001 A 
HETATM   27  C   UNK N   1      26.240  25.188  -6.558  0.00  0.00     0.009 A 
ENDBRANCH   2  22
BRANCH   2  28
HETATM   28  C   UNK N   1      27.345  26.794  -4.589  0.00  0.00    -0.031 A 
HETATM   29  C   UNK N   1      27.939  27.780  -5.397  0.00  0.00     0.009 A 
HETATM   30  C   UNK N   1      27.498  29.108  -5.356  0.00  0.00     0.001 A 
HETATM   31  C   UNK N   1      26.460  29.472  -4.497  0.00  0.00     0.000 A 
HETATM   32  C   UNK N   1      25.855  28.507  -3.689  0.00  0.00     0.001 A 
HETATM   33  C   UNK N   1      26.289  27.176  -3.736  0.00  0.00     0.009 A 
ENDBRANCH   2  28
TORSDOF 8
ENDMDL
MODEL 9
REMARK VINA RESULT:      -7.3     14.188     18.103
REMARK  8 active torsions:
REMARK  status: ('A' for Active; 'I' for Inactive)
REMARK    1  A    between atoms: O_1  and  C_13 
REMARK    2  A    between atoms: N_3  and  C_10 
REMARK    3  A    between atoms: C_5  and  C_11 
REMARK    4  A    between atoms: C_5  and  C_13 
REMARK    5  A    between atoms: C_10  and  C_12 
REMARK    6  A    between atoms: C_12  and  C_14 
REMARK    7  A    between atoms: C_14  and  C_17 
REMARK    8  A    between atoms: C_14  and  C_18 
ROOT
HETATM    1  N   UNK N   1      20.980  15.576   8.620  0.00  0.00    -0.196 NA
HETATM    2  C   UNK N   1      22.603  13.652   7.853  0.00  0.00     0.104 C 
HETATM    3  C   UNK N   1      21.676  14.720   8.269  0.00  0.00     0.079 C 
ENDROOT
BRANCH   2   4
HETATM    4  C   UNK N   1      23.861  14.260   7.124  0.00  0.00     0.065 C 
BRANCH   4   5
HETATM    5  C   UNK N   1      23.739  15.584   6.313  0.00  0.00     0.275 C 
BRANCH   5   6
HETATM    6  N   UNK N   1      24.975  16.084   5.676  0.00  0.00     0.088 N 
HETATM    7  C   UNK N   1      24.865  15.917   4.226  0.00  0.00     0.274 C 
HETATM    8  C   UNK N   1      26.134  16.239   3.433  0.00  0.00     0.055 C 
HETATM    9  C   UNK N   1      27.322  16.704   4.277  0.00  0.00     0.075 C 
HETATM   10  C   UNK N   1      27.462  15.744   5.474  0.00  0.00     0.055 C 
HETATM   11  C   UNK N   1      26.166  15.447   6.249  0.00  0.00     0.274 C 
BRANCH   9  12
HETATM   12  C   UNK N   1      27.185  18.150   4.747  0.00  0.00    -0.039 A 
HETATM   13  C   UNK N   1      27.649  18.519   6.021  0.00  0.00     0.008 A 
HETATM   14  C   UNK N   1      27.574  19.849   6.445  0.00  0.00     0.001 A 
HETATM   15  C   UNK N   1      27.035  20.825   5.603  0.00  0.00     0.000 A 
HETATM   16  C   UNK N   1      26.569  20.472   4.335  0.00  0.00     0.001 A 
HETATM   17  C   UNK N   1      26.650  19.145   3.906  0.00  0.00     0.008 A 
ENDBRANCH   9  12
BRANCH   9  18
HETATM   18  C   UNK N   1      28.545  16.576   3.388  0.00  0.00     0.153 C 
HETATM   19  O   UNK N   1      28.581  15.728   2.508  0.00  0.00    -0.649 OA
BRANCH  18  20
HETATM   20  O   UNK N   1      29.634  17.339   3.609  0.00  0.00    -0.776 OA
HETATM   21  H   UNK N   1      29.746  17.811   4.411  0.00  0.00     0.167 HD
ENDBRANCH  18  20
ENDBRANCH   9  18
ENDBRANCH   5   6
ENDBRANCH   4   5
ENDBRANCH   2   4
BRANCH   2  22
HETATM   22  C   UNK N   1      22.978  12.988   9.180  0.00  0.00    -0.031 A 
HETATM   23  C   UNK N   1      24.317  12.786   9.561  0.00  0.00     0.009 A 
HETATM   24  C   UNK N   1      24.622  12.267  10.825  0.00  0.00     0.001 A 
HETATM   25  C   UNK N   1      23.600  11.937  11.719  0.00  0.00     0.000 A 
HETATM   26  C   UNK N   1      22.268  12.122  11.353  0.00  0.00     0.001 A 
HETATM   27  C   UNK N   1      21.963  12.653  10.102  0.00  0.00     0.009 A 
ENDBRANCH   2  22
BRANCH   2  28
HETATM   28  C   UNK N   1      21.918  12.633   6.931  0.00  0.00    -0.031 A 
HETATM   29  C   UNK N   1      22.529  11.394   6.665  0.00  0.00     0.009 A 
HETATM   30  C   UNK N   1      21.938  10.471   5.795  0.00  0.00     0.001 A 
HETATM   31  C   UNK N   1      20.728  10.778   5.169  0.00  0.00     0.000 A 
HETATM   32  C   UNK N   1      20.105  12.001   5.423  0.00  0.00     0.001 A 
HETATM   33  C   UNK N   1      20.691  12.922   6.301  0.00  0.00     0.009 A 
ENDBRANCH   2  28
TORSDOF 8
ENDMDL
