MODEL 1
REMARK VINA RESULT:      -5.5      0.000      0.000
REMARK  8 active torsions:
REMARK  status: ('A' for Active; 'I' for Inactive)
REMARK    1  A    between atoms: N_2  and  C_4 
REMARK    2  A    between atoms: N_2  and  C_6 
REMARK    3  A    between atoms: N_3  and  C_5 
REMARK    4  A    between atoms: N_3  and  C_10 
REMARK       I    between atoms: N_3  and  C_12 
REMARK    5  A    between atoms: C_4  and  C_5 
REMARK    6  A    between atoms: C_6  and  C_8 
REMARK    7  A    between atoms: C_8  and  C_11 
REMARK    8  A    between atoms: C_12  and  C_13 
ROOT
HETATM    1  C   UNK N   1      28.274  16.738   6.948  0.00  0.00     0.236 C 
HETATM    2  C   UNK N   1      26.921  16.035   6.813  0.00  0.00     0.044 C 
ENDROOT
BRANCH   1   3
HETATM    3  N   UNK N   1      28.411  17.559   8.163  0.00  0.00     0.090 N 
HETATM    4  C   UNK N   1      28.470  18.949   7.738  0.00  0.00     0.310 C 
BRANCH   3   5
HETATM    5  C   UNK N   1      29.630  17.294   8.916  0.00  0.00     0.277 C 
BRANCH   5   6
HETATM    6  C   UNK N   1      30.717  18.239   8.434  0.00  0.00     0.068 C 
BRANCH   6   7
HETATM    7  C   UNK N   1      32.043  17.564   8.422  0.00  0.00    -0.057 A 
HETATM    8  C   UNK N   1      33.191  18.301   8.121  0.00  0.00     0.007 A 
HETATM    9  C   UNK N   1      34.444  17.682   8.125  0.00  0.00     0.001 A 
HETATM   10  C   UNK N   1      34.551  16.324   8.442  0.00  0.00     0.000 A 
HETATM   11  C   UNK N   1      33.405  15.584   8.752  0.00  0.00     0.001 A 
HETATM   12  C   UNK N   1      32.151  16.204   8.743  0.00  0.00     0.007 A 
ENDBRANCH   6   7
ENDBRANCH   5   6
ENDBRANCH   3   5
ENDBRANCH   1   3
BRANCH   1  13
HETATM   13  C   UNK N   1      28.463  17.641   5.735  0.00  0.00     0.167 C 
BRANCH  13  14
HETATM   14  N   UNK N   1      29.136  16.953   4.647  0.00  0.00    -0.316 N 
HETATM   15  C   UNK N   1      28.420  16.643   3.511  0.00  0.00     0.224 C 
HETATM   16  O   UNK N   1      28.948  16.076   2.567  0.00  0.00    -0.273 OA
BRANCH  14  17
HETATM   17  C   UNK N   1      30.553  16.696   4.781  0.00  0.00     0.037 A 
HETATM   18  C   UNK N   1      31.049  15.437   5.168  0.00  0.00     0.029 A 
HETATM   19  C   UNK N   1      32.425  15.199   5.247  0.00  0.00     0.002 A 
HETATM   20  C   UNK N   1      33.329  16.219   4.942  0.00  0.00     0.000 A 
HETATM   21  C   UNK N   1      32.858  17.474   4.558  0.00  0.00     0.002 A 
HETATM   22  C   UNK N   1      31.483  17.708   4.473  0.00  0.00     0.029 A 
ENDBRANCH  14  17
BRANCH  15  23
HETATM   23  C   UNK N   1      26.965  17.008   3.391  0.00  0.00     0.099 C 
HETATM   24  C   UNK N   1      26.213  15.964   2.584  0.00  0.00     0.014 C 
ENDBRANCH  15  23
ENDBRANCH  13  14
ENDBRANCH   1  13
TORSDOF 8
ENDMDL
MODEL 2
REMARK VINA RESULT:      -5.5     13.596     15.978
REMARK  8 active torsions:
REMARK  status: ('A' for Active; 'I' for Inactive)
REMARK    1  A    between atoms: N_2  and  C_4 
REMARK    2  A    between atoms: N_2  and  C_6 
REMARK    3  A    between atoms: N_3  and  C_5 
REMARK    4  A    between atoms: N_3  and  C_10 
REMARK       I    between atoms: N_3  and  C_12 
REMARK    5  A    between atoms: C_4  and  C_5 
REMARK    6  A    between atoms: C_6  and  C_8 
REMARK    7  A    between atoms: C_8  and  C_11 
REMARK    8  A    between atoms: C_12  and  C_13 
ROOT
HETATM    1  C   UNK N   1      26.212  23.687  -7.723  0.00  0.00     0.236 C 
HETATM    2  C   UNK N   1      25.288  22.468  -7.690  0.00  0.00     0.044 C 
ENDROOT
BRANCH   1   3
HETATM    3  N   UNK N   1      25.796  24.738  -8.667  0.00  0.00     0.090 N 
HETATM    4  C   UNK N   1      26.675  24.651  -9.822  0.00  0.00     0.310 C 
BRANCH   3   5
HETATM    5  C   UNK N   1      25.925  26.089  -8.137  0.00  0.00     0.277 C 
BRANCH   5   6
HETATM    6  C   UNK N   1      25.549  26.074  -6.665  0.00  0.00     0.068 C 
BRANCH   6   7
HETATM    7  C   UNK N   1      26.077  27.279  -5.969  0.00  0.00    -0.057 A 
HETATM    8  C   UNK N   1      25.553  27.643  -4.726  0.00  0.00     0.007 A 
HETATM    9  C   UNK N   1      26.053  28.761  -4.053  0.00  0.00     0.001 A 
HETATM   10  C   UNK N   1      27.088  29.512  -4.620  0.00  0.00     0.000 A 
HETATM   11  C   UNK N   1      27.622  29.145  -5.860  0.00  0.00     0.001 A 
HETATM   12  C   UNK N   1      27.116  28.029  -6.535  0.00  0.00     0.007 A 
ENDBRANCH   6   7
ENDBRANCH   5   6
ENDBRANCH   3   5
ENDBRANCH   1   3
BRANCH   1  13
HETATM   13  C   UNK N   1      27.607  23.215  -8.116  0.00  0.00     0.167 C 
BRANCH  13  14
HETATM   14  N   UNK N   1      28.414  22.882  -6.955  0.00  0.00    -0.316 N 
HETATM   15  C   UNK N   1      28.999  21.636  -6.885  0.00  0.00     0.224 C 
HETATM   16  O   UNK N   1      29.695  21.318  -5.933  0.00  0.00    -0.273 OA
BRANCH  14  17
HETATM   17  C   UNK N   1      28.628  23.911  -5.961  0.00  0.00     0.037 A 
HETATM   18  C   UNK N   1      29.547  24.959  -6.159  0.00  0.00     0.029 A 
HETATM   19  C   UNK N   1      29.704  25.968  -5.203  0.00  0.00     0.002 A 
HETATM   20  C   UNK N   1      28.946  25.944  -4.031  0.00  0.00     0.000 A 
HETATM   21  C   UNK N   1      28.032  24.913  -3.815  0.00  0.00     0.002 A 
HETATM   22  C   UNK N   1      27.870  23.910  -4.774  0.00  0.00     0.029 A 
ENDBRANCH  14  17
BRANCH  15  23
HETATM   23  C   UNK N   1      28.810  20.632  -7.989  0.00  0.00     0.099 C 
HETATM   24  C   UNK N   1      29.337  19.269  -7.574  0.00  0.00     0.014 C 
ENDBRANCH  15  23
ENDBRANCH  13  14
ENDBRANCH   1  13
TORSDOF 8
ENDMDL
MODEL 3
REMARK VINA RESULT:      -5.3      3.711      5.828
REMARK  8 active torsions:
REMARK  status: ('A' for Active; 'I' for Inactive)
REMARK    1  A    between atoms: N_2  and  C_4 
REMARK    2  A    between atoms: N_2  and  C_6 
REMARK    3  A    between atoms: N_3  and  C_5 
REMARK    4  A    between atoms: N_3  and  C_10 
REMARK       I    between atoms: N_3  and  C_12 
REMARK    5  A    between atoms: C_4  and  C_5 
REMARK    6  A    between atoms: C_6  and  C_8 
REMARK    7  A    between atoms: C_8  and  C_11 
REMARK    8  A    between atoms: C_12  and  C_13 
ROOT
HETATM    1  C   UNK N   1      23.994  16.616   4.295  0.00  0.00     0.236 C 
HETATM    2  C   UNK N   1      23.034  16.092   3.225  0.00  0.00     0.044 C 
ENDROOT
BRANCH   1   3
HETATM    3  N   UNK N   1      24.237  15.678   5.404  0.00  0.00     0.090 N 
HETATM    4  C   UNK N   1      23.117  15.801   6.324  0.00  0.00     0.310 C 
BRANCH   3   5
HETATM    5  C   UNK N   1      25.445  15.967   6.165  0.00  0.00     0.277 C 
BRANCH   5   6
HETATM    6  C   UNK N   1      26.637  15.923   5.225  0.00  0.00     0.068 C 
BRANCH   6   7
HETATM    7  C   UNK N   1      27.851  16.486   5.877  0.00  0.00    -0.057 A 
HETATM    8  C   UNK N   1      27.759  17.015   7.167  0.00  0.00     0.007 A 
HETATM    9  C   UNK N   1      28.895  17.529   7.797  0.00  0.00     0.001 A 
HETATM   10  C   UNK N   1      30.130  17.506   7.140  0.00  0.00     0.000 A 
HETATM   11  C   UNK N   1      30.227  16.969   5.852  0.00  0.00     0.001 A 
HETATM   12  C   UNK N   1      29.089  16.459   5.220  0.00  0.00     0.007 A 
ENDBRANCH   6   7
ENDBRANCH   5   6
ENDBRANCH   3   5
ENDBRANCH   1   3
BRANCH   1  13
HETATM   13  C   UNK N   1      23.408  17.899   4.872  0.00  0.00     0.167 C 
BRANCH  13  14
HETATM   14  N   UNK N   1      23.957  19.082   4.232  0.00  0.00    -0.316 N 
HETATM   15  C   UNK N   1      23.130  19.862   3.453  0.00  0.00     0.224 C 
HETATM   16  O   UNK N   1      23.546  20.872   2.906  0.00  0.00    -0.273 OA
BRANCH  14  17
HETATM   17  C   UNK N   1      25.334  19.425   4.511  0.00  0.00     0.037 A 
HETATM   18  C   UNK N   1      26.362  19.204   3.575  0.00  0.00     0.029 A 
HETATM   19  C   UNK N   1      27.679  19.585   3.848  0.00  0.00     0.002 A 
HETATM   20  C   UNK N   1      27.991  20.194   5.065  0.00  0.00     0.000 A 
HETATM   21  C   UNK N   1      26.988  20.420   6.007  0.00  0.00     0.002 A 
HETATM   22  C   UNK N   1      25.671  20.045   5.730  0.00  0.00     0.029 A 
ENDBRANCH  14  17
BRANCH  15  23
HETATM   23  C   UNK N   1      21.682  19.503   3.265  0.00  0.00     0.099 C 
HETATM   24  C   UNK N   1      20.908  20.671   2.678  0.00  0.00     0.014 C 
ENDBRANCH  15  23
ENDBRANCH  13  14
ENDBRANCH   1  13
TORSDOF 8
ENDMDL
MODEL 4
REMARK VINA RESULT:      -5.2     11.197     14.205
REMARK  8 active torsions:
REMARK  status: ('A' for Active; 'I' for Inactive)
REMARK    1  A    between atoms: N_2  and  C_4 
REMARK    2  A    between atoms: N_2  and  C_6 
REMARK    3  A    between atoms: N_3  and  C_5 
REMARK    4  A    between atoms: N_3  and  C_10 
REMARK       I    between atoms: N_3  and  C_12 
REMARK    5  A    between atoms: C_4  and  C_5 
REMARK    6  A    between atoms: C_6  and  C_8 
REMARK    7  A    between atoms: C_8  and  C_11 
REMARK    8  A    between atoms: C_12  and  C_13 
ROOT
HETATM    1  C   UNK N   1      36.368  10.416  17.039  0.00  0.00     0.236 C 
HETATM    2  C   UNK N   1      37.120   9.884  15.818  0.00  0.00     0.044 C 
ENDROOT
BRANCH   1   3
HETATM    3  N   UNK N   1      36.220   9.441  18.133  0.00  0.00     0.090 N 
HETATM    4  C   UNK N   1      37.234   8.417  17.935  0.00  0.00     0.310 C 
BRANCH   3   5
HETATM    5  C   UNK N   1      34.930   8.764  18.146  0.00  0.00     0.277 C 
BRANCH   5   6
HETATM    6  C   UNK N   1      34.217   9.096  19.445  0.00  0.00     0.068 C 
BRANCH   6   7
HETATM    7  C   UNK N   1      33.037   8.213  19.646  0.00  0.00    -0.057 A 
HETATM    8  C   UNK N   1      33.164   6.835  19.451  0.00  0.00     0.007 A 
HETATM    9  C   UNK N   1      32.067   5.993  19.654  0.00  0.00     0.001 A 
HETATM   10  C   UNK N   1      30.842   6.528  20.064  0.00  0.00     0.000 A 
HETATM   11  C   UNK N   1      30.713   7.906  20.268  0.00  0.00     0.001 A 
HETATM   12  C   UNK N   1      31.809   8.749  20.060  0.00  0.00     0.007 A 
ENDBRANCH   6   7
ENDBRANCH   5   6
ENDBRANCH   3   5
ENDBRANCH   1   3
BRANCH   1  13
HETATM   13  C   UNK N   1      34.978  10.847  16.589  0.00  0.00     0.167 C 
BRANCH  13  14
HETATM   14  N   UNK N   1      35.027  11.994  15.699  0.00  0.00    -0.316 N 
HETATM   15  C   UNK N   1      34.433  11.899  14.458  0.00  0.00     0.224 C 
HETATM   16  O   UNK N   1      34.440  12.842  13.681  0.00  0.00    -0.273 OA
BRANCH  14  17
HETATM   17  C   UNK N   1      35.632  13.211  16.193  0.00  0.00     0.037 A 
HETATM   18  C   UNK N   1      35.248  13.791  17.417  0.00  0.00     0.029 A 
HETATM   19  C   UNK N   1      35.879  14.943  17.896  0.00  0.00     0.002 A 
HETATM   20  C   UNK N   1      36.904  15.537  17.157  0.00  0.00     0.000 A 
HETATM   21  C   UNK N   1      37.298  14.979  15.941  0.00  0.00     0.002 A 
HETATM   22  C   UNK N   1      36.672  13.824  15.467  0.00  0.00     0.029 A 
ENDBRANCH  14  17
BRANCH  15  23
HETATM   23  C   UNK N   1      33.744  10.634  14.027  0.00  0.00     0.099 C 
HETATM   24  C   UNK N   1      34.042  10.328  12.569  0.00  0.00     0.014 C 
ENDBRANCH  15  23
ENDBRANCH  13  14
ENDBRANCH   1  13
TORSDOF 8
ENDMDL
MODEL 5
REMARK VINA RESULT:      -5.1     12.046     14.969
REMARK  8 active torsions:
REMARK  status: ('A' for Active; 'I' for Inactive)
REMARK    1  A    between atoms: N_2  and  C_4 
REMARK    2  A    between atoms: N_2  and  C_6 
REMARK    3  A    between atoms: N_3  and  C_5 
REMARK    4  A    between atoms: N_3  and  C_10 
REMARK       I    between atoms: N_3  and  C_12 
REMARK    5  A    between atoms: C_4  and  C_5 
REMARK    6  A    between atoms: C_6  and  C_8 
REMARK    7  A    between atoms: C_8  and  C_11 
REMARK    8  A    between atoms: C_12  and  C_13 
ROOT
HETATM    1  C   UNK N   1      30.894  25.405  -5.955  0.00  0.00     0.236 C 
HETATM    2  C   UNK N   1      31.571  24.926  -7.240  0.00  0.00     0.044 C 
ENDROOT
BRANCH   1   3
HETATM    3  N   UNK N   1      31.243  26.781  -5.563  0.00  0.00     0.090 N 
HETATM    4  C   UNK N   1      31.657  26.739  -4.169  0.00  0.00     0.310 C 
BRANCH   3   5
HETATM    5  C   UNK N   1      30.129  27.717  -5.646  0.00  0.00     0.277 C 
BRANCH   5   6
HETATM    6  C   UNK N   1      29.328  27.639  -4.358  0.00  0.00     0.068 C 
BRANCH   6   7
HETATM    7  C   UNK N   1      27.868  27.590  -4.641  0.00  0.00    -0.057 A 
HETATM    8  C   UNK N   1      26.956  27.848  -3.614  0.00  0.00     0.007 A 
HETATM    9  C   UNK N   1      25.583  27.824  -3.872  0.00  0.00     0.001 A 
HETATM   10  C   UNK N   1      25.119  27.551  -5.163  0.00  0.00     0.000 A 
HETATM   11  C   UNK N   1      26.029  27.300  -6.196  0.00  0.00     0.001 A 
HETATM   12  C   UNK N   1      27.403  27.320  -5.935  0.00  0.00     0.007 A 
ENDBRANCH   6   7
ENDBRANCH   5   6
ENDBRANCH   3   5
ENDBRANCH   1   3
BRANCH   1  13
HETATM   13  C   UNK N   1      31.300  24.467  -4.825  0.00  0.00     0.167 C 
BRANCH  13  14
HETATM   14  N   UNK N   1      30.389  23.343  -4.699  0.00  0.00    -0.316 N 
HETATM   15  C   UNK N   1      30.911  22.073  -4.582  0.00  0.00     0.224 C 
HETATM   16  O   UNK N   1      30.183  21.099  -4.462  0.00  0.00    -0.273 OA
BRANCH  14  17
HETATM   17  C   UNK N   1      28.972  23.624  -4.624  0.00  0.00     0.037 A 
HETATM   18  C   UNK N   1      28.124  23.481  -5.739  0.00  0.00     0.029 A 
HETATM   19  C   UNK N   1      26.749  23.715  -5.631  0.00  0.00     0.002 A 
HETATM   20  C   UNK N   1      26.200  24.098  -4.407  0.00  0.00     0.000 A 
HETATM   21  C   UNK N   1      27.023  24.247  -3.291  0.00  0.00     0.002 A 
HETATM   22  C   UNK N   1      28.395  24.006  -3.398  0.00  0.00     0.029 A 
ENDBRANCH  14  17
BRANCH  15  23
HETATM   23  C   UNK N   1      32.398  21.846  -4.583  0.00  0.00     0.099 C 
HETATM   24  C   UNK N   1      32.867  21.339  -3.230  0.00  0.00     0.014 C 
ENDBRANCH  15  23
ENDBRANCH  13  14
ENDBRANCH   1  13
TORSDOF 8
ENDMDL
MODEL 6
REMARK VINA RESULT:      -5.1      3.684      7.308
REMARK  8 active torsions:
REMARK  status: ('A' for Active; 'I' for Inactive)
REMARK    1  A    between atoms: N_2  and  C_4 
REMARK    2  A    between atoms: N_2  and  C_6 
REMARK    3  A    between atoms: N_3  and  C_5 
REMARK    4  A    between atoms: N_3  and  C_10 
REMARK       I    between atoms: N_3  and  C_12 
REMARK    5  A    between atoms: C_4  and  C_5 
REMARK    6  A    between atoms: C_6  and  C_8 
REMARK    7  A    between atoms: C_8  and  C_11 
REMARK    8  A    between atoms: C_12  and  C_13 
ROOT
HETATM    1  C   UNK N   1      34.886  13.247   7.487  0.00  0.00     0.236 C 
HETATM    2  C   UNK N   1      34.887  11.828   8.058  0.00  0.00     0.044 C 
ENDROOT
BRANCH   1   3
HETATM    3  N   UNK N   1      35.524  13.369   6.165  0.00  0.00     0.090 N 
HETATM    4  C   UNK N   1      36.482  14.461   6.250  0.00  0.00     0.310 C 
BRANCH   3   5
HETATM    5  C   UNK N   1      34.596  13.702   5.092  0.00  0.00     0.277 C 
BRANCH   5   6
HETATM    6  C   UNK N   1      33.220  13.933   5.691  0.00  0.00     0.068 C 
BRANCH   6   7
HETATM    7  C   UNK N   1      32.664  15.243   5.256  0.00  0.00    -0.057 A 
HETATM    8  C   UNK N   1      33.533  16.278   4.901  0.00  0.00     0.007 A 
HETATM    9  C   UNK N   1      33.022  17.507   4.473  0.00  0.00     0.001 A 
HETATM   10  C   UNK N   1      31.640  17.699   4.390  0.00  0.00     0.000 A 
HETATM   11  C   UNK N   1      30.767  16.662   4.737  0.00  0.00     0.001 A 
HETATM   12  C   UNK N   1      31.278  15.435   5.170  0.00  0.00     0.007 A 
ENDBRANCH   6   7
ENDBRANCH   5   6
ENDBRANCH   3   5
ENDBRANCH   1   3
BRANCH   1  13
HETATM   13  C   UNK N   1      35.626  14.152   8.463  0.00  0.00     0.167 C 
BRANCH  13  14
HETATM   14  N   UNK N   1      34.730  14.741   9.443  0.00  0.00    -0.316 N 
HETATM   15  C   UNK N   1      34.867  14.386  10.768  0.00  0.00     0.224 C 
HETATM   16  O   UNK N   1      34.143  14.865  11.628  0.00  0.00    -0.273 OA
BRANCH  14  17
HETATM   17  C   UNK N   1      33.785  15.736   8.986  0.00  0.00     0.037 A 
HETATM   18  C   UNK N   1      32.396  15.508   9.002  0.00  0.00     0.029 A 
HETATM   19  C   UNK N   1      31.499  16.501   8.598  0.00  0.00     0.002 A 
HETATM   20  C   UNK N   1      31.977  17.740   8.168  0.00  0.00     0.000 A 
HETATM   21  C   UNK N   1      33.349  17.986   8.142  0.00  0.00     0.002 A 
HETATM   22  C   UNK N   1      34.244  16.995   8.553  0.00  0.00     0.029 A 
ENDBRANCH  14  17
BRANCH  15  23
HETATM   23  C   UNK N   1      35.923  13.406  11.200  0.00  0.00     0.099 C 
HETATM   24  C   UNK N   1      35.294  12.184  11.845  0.00  0.00     0.014 C 
ENDBRANCH  15  23
ENDBRANCH  13  14
ENDBRANCH   1  13
TORSDOF 8
ENDMDL
MODEL 7
REMARK VINA RESULT:      -5.1     12.498     14.856
REMARK  8 active torsions:
REMARK  status: ('A' for Active; 'I' for Inactive)
REMARK    1  A    between atoms: N_2  and  C_4 
REMARK    2  A    between atoms: N_2  and  C_6 
REMARK    3  A    between atoms: N_3  and  C_5 
REMARK    4  A    between atoms: N_3  and  C_10 
REMARK       I    between atoms: N_3  and  C_12 
REMARK    5  A    between atoms: C_4  and  C_5 
REMARK    6  A    between atoms: C_6  and  C_8 
REMARK    7  A    between atoms: C_8  and  C_11 
REMARK    8  A    between atoms: C_12  and  C_13 
ROOT
HETATM    1  C   UNK N   1      29.991  27.669  -4.008  0.00  0.00     0.236 C 
HETATM    2  C   UNK N   1      30.470  28.439  -2.776  0.00  0.00     0.044 C 
ENDROOT
BRANCH   1   3
HETATM    3  N   UNK N   1      31.001  27.540  -5.072  0.00  0.00     0.090 N 
HETATM    4  C   UNK N   1      30.328  27.798  -6.336  0.00  0.00     0.310 C 
BRANCH   3   5
HETATM    5  C   UNK N   1      31.587  26.209  -5.168  0.00  0.00     0.277 C 
BRANCH   5   6
HETATM    6  C   UNK N   1      30.531  25.246  -5.684  0.00  0.00     0.068 C 
BRANCH   6   7
HETATM    7  C   UNK N   1      30.432  24.046  -4.809  0.00  0.00    -0.057 A 
HETATM    8  C   UNK N   1      30.129  22.804  -5.373  0.00  0.00     0.007 A 
HETATM    9  C   UNK N   1      30.052  21.667  -4.564  0.00  0.00     0.001 A 
HETATM   10  C   UNK N   1      30.289  21.769  -3.190  0.00  0.00     0.000 A 
HETATM   11  C   UNK N   1      30.600  23.010  -2.623  0.00  0.00     0.001 A 
HETATM   12  C   UNK N   1      30.672  24.148  -3.432  0.00  0.00     0.007 A 
ENDBRANCH   6   7
ENDBRANCH   5   6
ENDBRANCH   3   5
ENDBRANCH   1   3
BRANCH   1  13
HETATM   13  C   UNK N   1      28.781  28.396  -4.580  0.00  0.00     0.167 C 
BRANCH  13  14
HETATM   14  N   UNK N   1      27.531  27.819  -4.115  0.00  0.00    -0.316 N 
HETATM   15  C   UNK N   1      26.676  28.600  -3.367  0.00  0.00     0.224 C 
HETATM   16  O   UNK N   1      25.610  28.160  -2.964  0.00  0.00    -0.273 OA
BRANCH  14  17
HETATM   17  C   UNK N   1      27.211  26.471  -4.529  0.00  0.00     0.037 A 
HETATM   18  C   UNK N   1      27.142  25.406  -3.611  0.00  0.00     0.029 A 
HETATM   19  C   UNK N   1      26.786  24.119  -4.027  0.00  0.00     0.002 A 
HETATM   20  C   UNK N   1      26.495  23.876  -5.370  0.00  0.00     0.000 A 
HETATM   21  C   UNK N   1      26.559  24.917  -6.296  0.00  0.00     0.002 A 
HETATM   22  C   UNK N   1      26.908  26.203  -5.878  0.00  0.00     0.029 A 
ENDBRANCH  14  17
BRANCH  15  23
HETATM   23  C   UNK N   1      27.023  30.025  -3.035  0.00  0.00     0.099 C 
HETATM   24  C   UNK N   1      26.375  30.981  -4.021  0.00  0.00     0.014 C 
ENDBRANCH  15  23
ENDBRANCH  13  14
ENDBRANCH   1  13
TORSDOF 8
ENDMDL
MODEL 8
REMARK VINA RESULT:      -5.0     12.410     15.104
REMARK  8 active torsions:
REMARK  status: ('A' for Active; 'I' for Inactive)
REMARK    1  A    between atoms: N_2  and  C_4 
REMARK    2  A    between atoms: N_2  and  C_6 
REMARK    3  A    between atoms: N_3  and  C_5 
REMARK    4  A    between atoms: N_3  and  C_10 
REMARK       I    between atoms: N_3  and  C_12 
REMARK    5  A    between atoms: C_4  and  C_5 
REMARK    6  A    between atoms: C_6  and  C_8 
REMARK    7  A    between atoms: C_8  and  C_11 
REMARK    8  A    between atoms: C_12  and  C_13 
ROOT
HETATM    1  C   UNK N   1      27.718  24.122  -6.093  0.00  0.00     0.236 C 
HETATM    2  C   UNK N   1      28.399  25.033  -7.116  0.00  0.00     0.044 C 
ENDROOT
BRANCH   1   3
HETATM    3  N   UNK N   1      26.246  24.162  -6.131  0.00  0.00     0.090 N 
HETATM    4  C   UNK N   1      25.863  24.646  -7.449  0.00  0.00     0.310 C 
BRANCH   3   5
HETATM    5  C   UNK N   1      25.657  25.072  -5.157  0.00  0.00     0.277 C 
BRANCH   5   6
HETATM    6  C   UNK N   1      25.179  26.319  -5.881  0.00  0.00     0.068 C 
BRANCH   6   7
HETATM    7  C   UNK N   1      25.897  27.527  -5.392  0.00  0.00    -0.057 A 
HETATM    8  C   UNK N   1      25.585  28.053  -4.136  0.00  0.00     0.007 A 
HETATM    9  C   UNK N   1      26.267  29.176  -3.657  0.00  0.00     0.001 A 
HETATM   10  C   UNK N   1      27.270  29.768  -4.431  0.00  0.00     0.000 A 
HETATM   11  C   UNK N   1      27.590  29.238  -5.686  0.00  0.00     0.001 A 
HETATM   12  C   UNK N   1      26.905  28.118  -6.166  0.00  0.00     0.007 A 
ENDBRANCH   6   7
ENDBRANCH   5   6
ENDBRANCH   3   5
ENDBRANCH   1   3
BRANCH   1  13
HETATM   13  C   UNK N   1      28.173  24.548  -4.703  0.00  0.00     0.167 C 
BRANCH  13  14
HETATM   14  N   UNK N   1      29.604  24.375  -4.524  0.00  0.00    -0.316 N 
HETATM   15  C   UNK N   1      30.365  25.465  -4.159  0.00  0.00     0.224 C 
HETATM   16  O   UNK N   1      31.570  25.364  -3.986  0.00  0.00    -0.273 OA
BRANCH  14  17
HETATM   17  C   UNK N   1      30.150  23.043  -4.664  0.00  0.00     0.037 A 
HETATM   18  C   UNK N   1      30.796  22.623  -5.842  0.00  0.00     0.029 A 
HETATM   19  C   UNK N   1      31.356  21.345  -5.938  0.00  0.00     0.002 A 
HETATM   20  C   UNK N   1      31.276  20.464  -4.858  0.00  0.00     0.000 A 
HETATM   21  C   UNK N   1      30.638  20.861  -3.682  0.00  0.00     0.002 A 
HETATM   22  C   UNK N   1      30.086  22.141  -3.585  0.00  0.00     0.029 A 
ENDBRANCH  14  17
BRANCH  15  23
HETATM   23  C   UNK N   1      29.732  26.813  -3.946  0.00  0.00     0.099 C 
HETATM   24  C   UNK N   1      30.782  27.853  -3.597  0.00  0.00     0.014 C 
ENDBRANCH  15  23
ENDBRANCH  13  14
ENDBRANCH   1  13
TORSDOF 8
ENDMDL
MODEL 9
REMARK VINA RESULT:      -5.0     12.169     15.054
REMARK  8 active torsions:
REMARK  status: ('A' for Active; 'I' for Inactive)
REMARK    1  A    between atoms: N_2  and  C_4 
REMARK    2  A    between atoms: N_2  and  C_6 
REMARK    3  A    between atoms: N_3  and  C_5 
REMARK    4  A    between atoms: N_3  and  C_10 
REMARK       I    between atoms: N_3  and  C_12 
REMARK    5  A    between atoms: C_4  and  C_5 
REMARK    6  A    between atoms: C_6  and  C_8 
REMARK    7  A    between atoms: C_8  and  C_11 
REMARK    8  A    between atoms: C_12  and  C_13 
ROOT
HETATM    1  C   UNK N   1      28.946  23.602  -7.016  0.00  0.00     0.236 C 
HETATM    2  C   UNK N   1      29.761  23.862  -8.284  0.00  0.00     0.044 C 
ENDROOT
BRANCH   1   3
HETATM    3  N   UNK N   1      27.523  23.965  -7.125  0.00  0.00     0.090 N 
HETATM    4  C   UNK N   1      26.781  22.734  -7.350  0.00  0.00     0.310 C 
BRANCH   3   5
HETATM    5  C   UNK N   1      27.226  24.850  -8.244  0.00  0.00     0.277 C 
BRANCH   5   6
HETATM    6  C   UNK N   1      25.902  25.545  -7.979  0.00  0.00     0.068 C 
BRANCH   6   7
HETATM    7  C   UNK N   1      26.052  26.597  -6.937  0.00  0.00    -0.057 A 
HETATM    8  C   UNK N   1      25.096  26.708  -5.925  0.00  0.00     0.007 A 
HETATM    9  C   UNK N   1      25.236  27.680  -4.930  0.00  0.00     0.001 A 
HETATM   10  C   UNK N   1      26.342  28.536  -4.940  0.00  0.00     0.000 A 
HETATM   11  C   UNK N   1      27.306  28.422  -5.948  0.00  0.00     0.001 A 
HETATM   12  C   UNK N   1      27.162  27.453  -6.945  0.00  0.00     0.007 A 
ENDBRANCH   6   7
ENDBRANCH   5   6
ENDBRANCH   3   5
ENDBRANCH   1   3
BRANCH   1  13
HETATM   13  C   UNK N   1      29.562  24.412  -5.882  0.00  0.00     0.167 C 
BRANCH  13  14
HETATM   14  N   UNK N   1      29.685  23.631  -4.663  0.00  0.00    -0.316 N 
HETATM   15  C   UNK N   1      28.802  23.866  -3.630  0.00  0.00     0.224 C 
HETATM   16  O   UNK N   1      28.861  23.226  -2.592  0.00  0.00    -0.273 OA
BRANCH  14  17
HETATM   17  C   UNK N   1      30.685  22.587  -4.624  0.00  0.00     0.037 A 
HETATM   18  C   UNK N   1      30.373  21.244  -4.908  0.00  0.00     0.029 A 
HETATM   19  C   UNK N   1      31.365  20.259  -4.909  0.00  0.00     0.002 A 
HETATM   20  C   UNK N   1      32.688  20.600  -4.622  0.00  0.00     0.000 A 
HETATM   21  C   UNK N   1      33.018  21.925  -4.335  0.00  0.00     0.002 A 
HETATM   22  C   UNK N   1      32.027  22.910  -4.342  0.00  0.00     0.029 A 
ENDBRANCH  14  17
BRANCH  15  23
HETATM   23  C   UNK N   1      27.727  24.910  -3.757  0.00  0.00     0.099 C 
HETATM   24  C   UNK N   1      26.352  24.265  -3.790  0.00  0.00     0.014 C 
ENDBRANCH  15  23
ENDBRANCH  13  14
ENDBRANCH   1  13
TORSDOF 8
ENDMDL
