REMARK  10 active torsions:
REMARK  status: ('A' for Active; 'I' for Inactive)
REMARK    1  A    between atoms: O_1  and  C_12 
REMARK    2  A    between atoms: O_1  and  C_20 
REMARK    3  A    between atoms: O_3  and  C_16 
REMARK    4  A    between atoms: O_3  and  C_21 
REMARK    5  A    between atoms: O_4  and  C_23 
REMARK    6  A    between atoms: N_5  and  C_13 
REMARK    7  A    between atoms: C_6  and  C_11 
REMARK    8  A    between atoms: C_6  and  C_12 
REMARK    9  A    between atoms: C_13  and  C_16 
REMARK   10  A    between atoms: C_21  and  C_23 
ROOT
HETATM    1  N   UNK N   1       4.580  -0.090   1.097  0.00  0.00     0.090 N 
HETATM    2  C   UNK N   1       3.981   2.353  -0.300  0.00  0.00     0.078 C 
HETATM    3  C   UNK N   1       4.184   1.051  -1.109  0.00  0.00     0.055 C 
HETATM    4  C   UNK N   1       3.317   2.020   1.058  0.00  0.00     0.055 C 
HETATM    5  C   UNK N   1       4.894  -0.069  -0.338  0.00  0.00     0.274 C 
HETATM    6  C   UNK N   1       3.293   0.532   1.410  0.00  0.00     0.274 C 
ENDROOT
BRANCH   2   7
HETATM    7  C   UNK N   1       5.292   3.077   0.003  0.00  0.00    -0.040 A 
HETATM    8  C   UNK N   1       5.258   4.344   0.617  0.00  0.00     0.008 A 
HETATM    9  C   UNK N   1       6.440   5.043   0.875  0.00  0.00     0.001 A 
HETATM   10  C   UNK N   1       7.672   4.480   0.537  0.00  0.00     0.000 A 
HETATM   11  C   UNK N   1       7.723   3.221  -0.064  0.00  0.00     0.001 A 
HETATM   12  C   UNK N   1       6.541   2.527  -0.338  0.00  0.00     0.008 A 
ENDBRANCH   2   7
BRANCH   2  13
HETATM   13  C   UNK N   1       3.140   3.272  -1.200  0.00  0.00     0.272 C 
HETATM   14  O   UNK N   1       3.628   3.605  -2.278  0.00  0.00    -0.264 OA
BRANCH  13  15
HETATM   15  O   UNK N   1       1.906   3.764  -0.898  0.00  0.00    -0.321 OA
BRANCH  15  16
HETATM   16  C   UNK N   1       1.136   3.451   0.199  0.00  0.00     0.174 C 
HETATM   17  C   UNK N   1      -0.045   4.394   0.275  0.00  0.00     0.034 C 
ENDBRANCH  15  16
ENDBRANCH  13  15
ENDBRANCH   2  13
BRANCH   1  18
HETATM   18  C   UNK N   1       4.615  -1.473   1.584  0.00  0.00     0.298 C 
BRANCH  18  19
HETATM   19  C   UNK N   1       3.456  -2.339   1.078  0.00  0.00     0.198 C 
BRANCH  19  20
HETATM   20  O   UNK N   1       3.641  -2.696  -0.261  0.00  0.00    -0.387 OA
BRANCH  20  21
HETATM   21  C   UNK N   1       2.415  -3.237  -0.652  0.00  0.00     0.193 C 
BRANCH  21  22
HETATM   22  C   UNK N   1       2.487  -4.752  -0.608  0.00  0.00     0.190 C 
BRANCH  22  23
HETATM   23  O   UNK N   1       1.308  -5.254  -0.060  0.00  0.00    -0.399 OA
HETATM   24  H   UNK N   1       0.595  -4.718   0.322  0.00  0.00     0.209 HD
ENDBRANCH  22  23
ENDBRANCH  21  22
ENDBRANCH  20  21
ENDBRANCH  19  20
ENDBRANCH  18  19
ENDBRANCH   1  18
TORSDOF 10
