MODEL 1
REMARK VINA RESULT:      -5.8      0.000      0.000
REMARK  10 active torsions:
REMARK  status: ('A' for Active; 'I' for Inactive)
REMARK    1  A    between atoms: O_1  and  C_12 
REMARK    2  A    between atoms: O_1  and  C_20 
REMARK    3  A    between atoms: O_3  and  C_16 
REMARK    4  A    between atoms: O_3  and  C_21 
REMARK    5  A    between atoms: O_4  and  C_23 
REMARK    6  A    between atoms: N_5  and  C_13 
REMARK    7  A    between atoms: C_6  and  C_11 
REMARK    8  A    between atoms: C_6  and  C_12 
REMARK    9  A    between atoms: C_13  and  C_16 
REMARK   10  A    between atoms: C_21  and  C_23 
ROOT
HETATM    1  N   UNK N   1      30.829  16.890   5.692  0.00  0.00     0.090 N 
HETATM    2  C   UNK N   1      28.137  16.988   4.680  0.00  0.00     0.078 C 
HETATM    3  C   UNK N   1      29.315  16.890   3.683  0.00  0.00     0.055 C 
HETATM    4  C   UNK N   1      28.483  16.204   5.969  0.00  0.00     0.055 C 
HETATM    5  C   UNK N   1      30.680  17.260   4.278  0.00  0.00     0.274 C 
HETATM    6  C   UNK N   1      29.950  15.790   6.091  0.00  0.00     0.274 C 
ENDROOT
BRANCH   2   7
HETATM    7  C   UNK N   1      27.825  18.425   5.094  0.00  0.00    -0.040 A 
HETATM    8  C   UNK N   1      27.893  18.784   6.455  0.00  0.00     0.008 A 
HETATM    9  C   UNK N   1      27.581  20.083   6.866  0.00  0.00     0.001 A 
HETATM   10  C   UNK N   1      27.211  21.043   5.923  0.00  0.00     0.000 A 
HETATM   11  C   UNK N   1      27.148  20.706   4.570  0.00  0.00     0.001 A 
HETATM   12  C   UNK N   1      27.444  19.403   4.158  0.00  0.00     0.008 A 
ENDBRANCH   2   7
BRANCH   2  13
HETATM   13  C   UNK N   1      26.912  16.446   3.927  0.00  0.00     0.272 C 
HETATM   14  O   UNK N   1      27.072  16.121   2.752  0.00  0.00    -0.264 OA
BRANCH  13  15
HETATM   15  O   UNK N   1      25.659  16.310   4.444  0.00  0.00    -0.321 OA
BRANCH  15  16
HETATM   16  C   UNK N   1      24.470  16.626   3.827  0.00  0.00     0.174 C 
HETATM   17  C   UNK N   1      24.031  18.010   4.251  0.00  0.00     0.034 C 
ENDBRANCH  15  16
ENDBRANCH  13  15
ENDBRANCH   2  13
BRANCH   1  18
HETATM   18  C   UNK N   1      32.230  16.554   5.963  0.00  0.00     0.298 C 
BRANCH  18  19
HETATM   19  C   UNK N   1      33.236  17.490   5.284  0.00  0.00     0.198 C 
BRANCH  19  20
HETATM   20  O   UNK N   1      34.266  17.845   6.161  0.00  0.00    -0.387 OA
BRANCH  20  21
HETATM   21  C   UNK N   1      33.640  17.974   7.402  0.00  0.00     0.193 C 
BRANCH  21  22
HETATM   22  C   UNK N   1      34.685  18.000   8.502  0.00  0.00     0.190 C 
BRANCH  22  23
HETATM   23  O   UNK N   1      35.309  19.246   8.516  0.00  0.00    -0.399 OA
HETATM   24  H   UNK N   1      34.852  20.101   8.532  0.00  0.00     0.209 HD
ENDBRANCH  22  23
ENDBRANCH  21  22
ENDBRANCH  20  21
ENDBRANCH  19  20
ENDBRANCH  18  19
ENDBRANCH   1  18
TORSDOF 10
ENDMDL
MODEL 2
REMARK VINA RESULT:      -5.6     11.118     12.776
REMARK  10 active torsions:
REMARK  status: ('A' for Active; 'I' for Inactive)
REMARK    1  A    between atoms: O_1  and  C_12 
REMARK    2  A    between atoms: O_1  and  C_20 
REMARK    3  A    between atoms: O_3  and  C_16 
REMARK    4  A    between atoms: O_3  and  C_21 
REMARK    5  A    between atoms: O_4  and  C_23 
REMARK    6  A    between atoms: N_5  and  C_13 
REMARK    7  A    between atoms: C_6  and  C_11 
REMARK    8  A    between atoms: C_6  and  C_12 
REMARK    9  A    between atoms: C_13  and  C_16 
REMARK   10  A    between atoms: C_21  and  C_23 
ROOT
HETATM    1  N   UNK N   1      29.341  24.917  -3.689  0.00  0.00     0.090 N 
HETATM    2  C   UNK N   1      27.023  25.602  -5.250  0.00  0.00     0.078 C 
HETATM    3  C   UNK N   1      28.303  25.119  -5.971  0.00  0.00     0.055 C 
HETATM    4  C   UNK N   1      26.890  24.876  -3.889  0.00  0.00     0.055 C 
HETATM    5  C   UNK N   1      29.574  25.184  -5.115  0.00  0.00     0.274 C 
HETATM    6  C   UNK N   1      28.141  24.116  -3.445  0.00  0.00     0.274 C 
ENDROOT
BRANCH   2   7
HETATM    7  C   UNK N   1      27.031  27.103  -4.963  0.00  0.00    -0.040 A 
HETATM    8  C   UNK N   1      27.526  27.992  -5.936  0.00  0.00     0.008 A 
HETATM    9  C   UNK N   1      27.576  29.366  -5.687  0.00  0.00     0.001 A 
HETATM   10  C   UNK N   1      27.119  29.871  -4.469  0.00  0.00     0.000 A 
HETATM   11  C   UNK N   1      26.617  29.004  -3.497  0.00  0.00     0.001 A 
HETATM   12  C   UNK N   1      26.581  27.628  -3.738  0.00  0.00     0.008 A 
ENDBRANCH   2   7
BRANCH   2  13
HETATM   13  C   UNK N   1      25.869  25.322  -6.225  0.00  0.00     0.272 C 
HETATM   14  O   UNK N   1      24.725  25.499  -5.810  0.00  0.00    -0.264 OA
BRANCH  13  15
HETATM   15  O   UNK N   1      26.003  24.876  -7.505  0.00  0.00    -0.321 OA
BRANCH  15  16
HETATM   16  C   UNK N   1      25.538  23.688  -8.021  0.00  0.00     0.174 C 
HETATM   17  C   UNK N   1      25.877  22.557  -7.075  0.00  0.00     0.034 C 
ENDBRANCH  15  16
ENDBRANCH  13  15
ENDBRANCH   2  13
BRANCH   1  18
HETATM   18  C   UNK N   1      30.522  24.263  -3.116  0.00  0.00     0.298 C 
BRANCH  18  19
HETATM   19  C   UNK N   1      30.192  23.080  -2.198  0.00  0.00     0.198 C 
BRANCH  19  20
HETATM   20  O   UNK N   1      31.291  22.227  -2.061  0.00  0.00    -0.387 OA
BRANCH  20  21
HETATM   21  C   UNK N   1      31.352  21.536  -3.273  0.00  0.00     0.193 C 
BRANCH  21  22
HETATM   22  C   UNK N   1      32.789  21.156  -3.574  0.00  0.00     0.190 C 
BRANCH  22  23
HETATM   23  O   UNK N   1      33.426  20.788  -2.390  0.00  0.00    -0.399 OA
HETATM   24  H   UNK N   1      33.902  21.392  -1.799  0.00  0.00     0.209 HD
ENDBRANCH  22  23
ENDBRANCH  21  22
ENDBRANCH  20  21
ENDBRANCH  19  20
ENDBRANCH  18  19
ENDBRANCH   1  18
TORSDOF 10
ENDMDL
MODEL 3
REMARK VINA RESULT:      -5.6      7.902     12.364
REMARK  10 active torsions:
REMARK  status: ('A' for Active; 'I' for Inactive)
REMARK    1  A    between atoms: O_1  and  C_12 
REMARK    2  A    between atoms: O_1  and  C_20 
REMARK    3  A    between atoms: O_3  and  C_16 
REMARK    4  A    between atoms: O_3  and  C_21 
REMARK    5  A    between atoms: O_4  and  C_23 
REMARK    6  A    between atoms: N_5  and  C_13 
REMARK    7  A    between atoms: C_6  and  C_11 
REMARK    8  A    between atoms: C_6  and  C_12 
REMARK    9  A    between atoms: C_13  and  C_16 
REMARK   10  A    between atoms: C_21  and  C_23 
ROOT
HETATM    1  N   UNK N   1      36.206  14.228  11.688  0.00  0.00     0.090 N 
HETATM    2  C   UNK N   1      36.060  11.781  13.193  0.00  0.00     0.078 C 
HETATM    3  C   UNK N   1      34.927  12.124  12.198  0.00  0.00     0.055 C 
HETATM    4  C   UNK N   1      37.408  12.308  12.644  0.00  0.00     0.055 C 
HETATM    5  C   UNK N   1      34.882  13.597  11.774  0.00  0.00     0.274 C 
HETATM    6  C   UNK N   1      37.285  13.266  11.459  0.00  0.00     0.274 C 
ENDROOT
BRANCH   2   7
HETATM    7  C   UNK N   1      35.856  12.411  14.570  0.00  0.00    -0.040 A 
HETATM    8  C   UNK N   1      34.703  12.092  15.314  0.00  0.00     0.008 A 
HETATM    9  C   UNK N   1      34.474  12.679  16.561  0.00  0.00     0.001 A 
HETATM   10  C   UNK N   1      35.400  13.581  17.088  0.00  0.00     0.000 A 
HETATM   11  C   UNK N   1      36.552  13.901  16.367  0.00  0.00     0.001 A 
HETATM   12  C   UNK N   1      36.775  13.327  15.112  0.00  0.00     0.008 A 
ENDBRANCH   2   7
BRANCH   2  13
HETATM   13  C   UNK N   1      36.009  10.255  13.368  0.00  0.00     0.272 C 
HETATM   14  O   UNK N   1      35.186   9.638  12.694  0.00  0.00    -0.264 OA
BRANCH  13  15
HETATM   15  O   UNK N   1      36.785   9.528  14.220  0.00  0.00    -0.321 OA
BRANCH  15  16
HETATM   16  C   UNK N   1      36.355   8.750  15.271  0.00  0.00     0.174 C 
HETATM   17  C   UNK N   1      37.179   9.060  16.502  0.00  0.00     0.034 C 
ENDBRANCH  15  16
ENDBRANCH  13  15
ENDBRANCH   2  13
BRANCH   1  18
HETATM   18  C   UNK N   1      36.193  15.247  10.633  0.00  0.00     0.298 C 
BRANCH  18  19
HETATM   19  C   UNK N   1      35.352  16.483  10.973  0.00  0.00     0.198 C 
BRANCH  19  20
HETATM   20  O   UNK N   1      35.505  17.478  10.003  0.00  0.00    -0.387 OA
BRANCH  20  21
HETATM   21  C   UNK N   1      34.418  17.302   9.146  0.00  0.00     0.193 C 
BRANCH  21  22
HETATM   22  C   UNK N   1      34.431  18.377   8.075  0.00  0.00     0.190 C 
BRANCH  22  23
HETATM   23  O   UNK N   1      35.343  19.369   8.429  0.00  0.00    -0.399 OA
HETATM   24  H   UNK N   1      36.017  19.290   9.123  0.00  0.00     0.209 HD
ENDBRANCH  22  23
ENDBRANCH  21  22
ENDBRANCH  20  21
ENDBRANCH  19  20
ENDBRANCH  18  19
ENDBRANCH   1  18
TORSDOF 10
ENDMDL
MODEL 4
REMARK VINA RESULT:      -5.5     11.776     14.561
REMARK  10 active torsions:
REMARK  status: ('A' for Active; 'I' for Inactive)
REMARK    1  A    between atoms: O_1  and  C_12 
REMARK    2  A    between atoms: O_1  and  C_20 
REMARK    3  A    between atoms: O_3  and  C_16 
REMARK    4  A    between atoms: O_3  and  C_21 
REMARK    5  A    between atoms: O_4  and  C_23 
REMARK    6  A    between atoms: N_5  and  C_13 
REMARK    7  A    between atoms: C_6  and  C_11 
REMARK    8  A    between atoms: C_6  and  C_12 
REMARK    9  A    between atoms: C_13  and  C_16 
REMARK   10  A    between atoms: C_21  and  C_23 
ROOT
HETATM    1  N   UNK N   1      26.730  24.960  -7.698  0.00  0.00     0.090 N 
HETATM    2  C   UNK N   1      27.233  24.970  -4.865  0.00  0.00     0.078 C 
HETATM    3  C   UNK N   1      25.934  24.323  -5.399  0.00  0.00     0.055 C 
HETATM    4  C   UNK N   1      28.377  24.750  -5.884  0.00  0.00     0.055 C 
HETATM    5  C   UNK N   1      25.566  24.731  -6.831  0.00  0.00     0.274 C 
HETATM    6  C   UNK N   1      27.925  24.242  -7.254  0.00  0.00     0.274 C 
ENDROOT
BRANCH   2   7
HETATM    7  C   UNK N   1      27.103  26.477  -4.650  0.00  0.00    -0.040 A 
HETATM    8  C   UNK N   1      28.123  27.333  -5.109  0.00  0.00     0.008 A 
HETATM    9  C   UNK N   1      28.046  28.712  -4.896  0.00  0.00     0.001 A 
HETATM   10  C   UNK N   1      26.944  29.256  -4.234  0.00  0.00     0.000 A 
HETATM   11  C   UNK N   1      25.920  28.422  -3.780  0.00  0.00     0.001 A 
HETATM   12  C   UNK N   1      26.003  27.040  -3.978  0.00  0.00     0.008 A 
ENDBRANCH   2   7
BRANCH   2  13
HETATM   13  C   UNK N   1      27.483  24.324  -3.493  0.00  0.00     0.272 C 
HETATM   14  O   UNK N   1      26.501  23.914  -2.877  0.00  0.00    -0.264 OA
BRANCH  13  15
HETATM   15  O   UNK N   1      28.697  24.183  -2.893  0.00  0.00    -0.321 OA
BRANCH  15  16
HETATM   16  C   UNK N   1      29.232  23.028  -2.370  0.00  0.00     0.174 C 
HETATM   17  C   UNK N   1      30.719  22.986  -2.649  0.00  0.00     0.034 C 
ENDBRANCH  15  16
ENDBRANCH  13  15
ENDBRANCH   2  13
BRANCH   1  18
HETATM   18  C   UNK N   1      26.392  24.592  -9.077  0.00  0.00     0.298 C 
BRANCH  18  19
HETATM   19  C   UNK N   1      26.702  23.132  -9.424  0.00  0.00     0.198 C 
BRANCH  19  20
HETATM   20  O   UNK N   1      25.530  22.374  -9.508  0.00  0.00    -0.387 OA
BRANCH  20  21
HETATM   21  C   UNK N   1      25.731  21.318  -8.617  0.00  0.00     0.193 C 
BRANCH  21  22
HETATM   22  C   UNK N   1      24.681  21.365  -7.523  0.00  0.00     0.190 C 
BRANCH  22  23
HETATM   23  O   UNK N   1      23.541  22.004  -8.005  0.00  0.00    -0.399 OA
HETATM   24  H   UNK N   1      22.895  21.613  -8.614  0.00  0.00     0.209 HD
ENDBRANCH  22  23
ENDBRANCH  21  22
ENDBRANCH  20  21
ENDBRANCH  19  20
ENDBRANCH  18  19
ENDBRANCH   1  18
TORSDOF 10
ENDMDL
MODEL 5
REMARK VINA RESULT:      -5.5      3.843      6.023
REMARK  10 active torsions:
REMARK  status: ('A' for Active; 'I' for Inactive)
REMARK    1  A    between atoms: O_1  and  C_12 
REMARK    2  A    between atoms: O_1  and  C_20 
REMARK    3  A    between atoms: O_3  and  C_16 
REMARK    4  A    between atoms: O_3  and  C_21 
REMARK    5  A    between atoms: O_4  and  C_23 
REMARK    6  A    between atoms: N_5  and  C_13 
REMARK    7  A    between atoms: C_6  and  C_11 
REMARK    8  A    between atoms: C_6  and  C_12 
REMARK    9  A    between atoms: C_13  and  C_16 
REMARK   10  A    between atoms: C_21  and  C_23 
ROOT
HETATM    1  N   UNK N   1      34.582  15.506   8.469  0.00  0.00     0.090 N 
HETATM    2  C   UNK N   1      32.154  17.040   8.282  0.00  0.00     0.078 C 
HETATM    3  C   UNK N   1      32.095  15.597   8.834  0.00  0.00     0.055 C 
HETATM    4  C   UNK N   1      33.491  17.698   8.700  0.00  0.00     0.055 C 
HETATM    5  C   UNK N   1      33.327  14.743   8.507  0.00  0.00     0.274 C 
HETATM    6  C   UNK N   1      34.531  16.731   9.267  0.00  0.00     0.274 C 
ENDROOT
BRANCH   2   7
HETATM    7  C   UNK N   1      32.078  17.099   6.758  0.00  0.00    -0.040 A 
HETATM    8  C   UNK N   1      33.194  17.546   6.025  0.00  0.00     0.008 A 
HETATM    9  C   UNK N   1      33.140  17.642   4.632  0.00  0.00     0.001 A 
HETATM   10  C   UNK N   1      31.977  17.279   3.951  0.00  0.00     0.000 A 
HETATM   11  C   UNK N   1      30.865  16.825   4.663  0.00  0.00     0.001 A 
HETATM   12  C   UNK N   1      30.911  16.744   6.057  0.00  0.00     0.008 A 
ENDBRANCH   2   7
BRANCH   2  13
HETATM   13  C   UNK N   1      30.908  17.746   8.838  0.00  0.00     0.272 C 
HETATM   14  O   UNK N   1      30.908  18.976   8.834  0.00  0.00    -0.264 OA
BRANCH  13  15
HETATM   15  O   UNK N   1      29.808  17.127   9.351  0.00  0.00    -0.321 OA
BRANCH  15  16
HETATM   16  C   UNK N   1      28.509  17.580   9.311  0.00  0.00     0.174 C 
HETATM   17  C   UNK N   1      27.906  17.271   7.958  0.00  0.00     0.034 C 
ENDBRANCH  15  16
ENDBRANCH  13  15
ENDBRANCH   2  13
BRANCH   1  18
HETATM   18  C   UNK N   1      35.687  14.649   8.910  0.00  0.00     0.298 C 
BRANCH  18  19
HETATM   19  C   UNK N   1      36.372  15.131  10.193  0.00  0.00     0.198 C 
BRANCH  19  20
HETATM   20  O   UNK N   1      36.823  14.052  10.959  0.00  0.00    -0.387 OA
BRANCH  20  21
HETATM   21  C   UNK N   1      35.856  13.063  10.775  0.00  0.00     0.193 C 
BRANCH  21  22
HETATM   22  C   UNK N   1      35.325  12.609  12.122  0.00  0.00     0.190 C 
BRANCH  22  23
HETATM   23  O   UNK N   1      34.379  13.525  12.578  0.00  0.00    -0.399 OA
HETATM   24  H   UNK N   1      34.236  13.767  13.507  0.00  0.00     0.209 HD
ENDBRANCH  22  23
ENDBRANCH  21  22
ENDBRANCH  20  21
ENDBRANCH  19  20
ENDBRANCH  18  19
ENDBRANCH   1  18
TORSDOF 10
ENDMDL
MODEL 6
REMARK VINA RESULT:      -5.4     10.298     14.114
REMARK  10 active torsions:
REMARK  status: ('A' for Active; 'I' for Inactive)
REMARK    1  A    between atoms: O_1  and  C_12 
REMARK    2  A    between atoms: O_1  and  C_20 
REMARK    3  A    between atoms: O_3  and  C_16 
REMARK    4  A    between atoms: O_3  and  C_21 
REMARK    5  A    between atoms: O_4  and  C_23 
REMARK    6  A    between atoms: N_5  and  C_13 
REMARK    7  A    between atoms: C_6  and  C_11 
REMARK    8  A    between atoms: C_6  and  C_12 
REMARK    9  A    between atoms: C_13  and  C_16 
REMARK   10  A    between atoms: C_21  and  C_23 
ROOT
HETATM    1  N   UNK N   1      35.567  10.110  16.310  0.00  0.00     0.090 N 
HETATM    2  C   UNK N   1      35.798  12.419  14.609  0.00  0.00     0.078 C 
HETATM    3  C   UNK N   1      36.893  11.329  14.554  0.00  0.00     0.055 C 
HETATM    4  C   UNK N   1      34.425  11.760  14.888  0.00  0.00     0.055 C 
HETATM    5  C   UNK N   1      36.903  10.381  15.760  0.00  0.00     0.274 C 
HETATM    6  C   UNK N   1      34.497  10.298  15.330  0.00  0.00     0.274 C 
ENDROOT
BRANCH   2   7
HETATM    7  C   UNK N   1      36.036  13.450  15.711  0.00  0.00    -0.040 A 
HETATM    8  C   UNK N   1      35.213  13.447  16.853  0.00  0.00     0.008 A 
HETATM    9  C   UNK N   1      35.388  14.399  17.861  0.00  0.00     0.001 A 
HETATM   10  C   UNK N   1      36.396  15.358  17.748  0.00  0.00     0.000 A 
HETATM   11  C   UNK N   1      37.226  15.369  16.626  0.00  0.00     0.001 A 
HETATM   12  C   UNK N   1      37.043  14.428  15.609  0.00  0.00     0.008 A 
ENDBRANCH   2   7
BRANCH   2  13
HETATM   13  C   UNK N   1      35.878  13.153  13.261  0.00  0.00     0.272 C 
HETATM   14  O   UNK N   1      36.858  12.929  12.554  0.00  0.00    -0.264 OA
BRANCH  13  15
HETATM   15  O   UNK N   1      34.963  14.045  12.788  0.00  0.00    -0.321 OA
BRANCH  15  16
HETATM   16  C   UNK N   1      35.165  15.006  11.823  0.00  0.00     0.174 C 
HETATM   17  C   UNK N   1      34.115  14.867  10.742  0.00  0.00     0.034 C 
ENDBRANCH  15  16
ENDBRANCH  13  15
ENDBRANCH   2  13
BRANCH   1  18
HETATM   18  C   UNK N   1      35.532   8.750  16.857  0.00  0.00     0.298 C 
BRANCH  18  19
HETATM   19  C   UNK N   1      35.248   8.693  18.362  0.00  0.00     0.198 C 
BRANCH  19  20
HETATM   20  O   UNK N   1      34.277   9.631  18.728  0.00  0.00    -0.387 OA
BRANCH  20  21
HETATM   21  C   UNK N   1      34.648  10.037  20.011  0.00  0.00     0.193 C 
BRANCH  21  22
HETATM   22  C   UNK N   1      35.476  11.306  19.926  0.00  0.00     0.190 C 
BRANCH  22  23
HETATM   23  O   UNK N   1      34.824  12.329  20.613  0.00  0.00    -0.399 OA
HETATM   24  H   UNK N   1      33.998  12.230  21.113  0.00  0.00     0.209 HD
ENDBRANCH  22  23
ENDBRANCH  21  22
ENDBRANCH  20  21
ENDBRANCH  19  20
ENDBRANCH  18  19
ENDBRANCH   1  18
TORSDOF 10
ENDMDL
MODEL 7
REMARK VINA RESULT:      -5.2      8.496     10.091
REMARK  10 active torsions:
REMARK  status: ('A' for Active; 'I' for Inactive)
REMARK    1  A    between atoms: O_1  and  C_12 
REMARK    2  A    between atoms: O_1  and  C_20 
REMARK    3  A    between atoms: O_3  and  C_16 
REMARK    4  A    between atoms: O_3  and  C_21 
REMARK    5  A    between atoms: O_4  and  C_23 
REMARK    6  A    between atoms: N_5  and  C_13 
REMARK    7  A    between atoms: C_6  and  C_11 
REMARK    8  A    between atoms: C_6  and  C_12 
REMARK    9  A    between atoms: C_13  and  C_16 
REMARK   10  A    between atoms: C_21  and  C_23 
ROOT
HETATM    1  N   UNK N   1      21.538  15.685   5.940  0.00  0.00     0.090 N 
HETATM    2  C   UNK N   1      20.721  17.003   3.516  0.00  0.00     0.078 C 
HETATM    3  C   UNK N   1      19.645  16.568   4.538  0.00  0.00     0.055 C 
HETATM    4  C   UNK N   1      22.007  17.425   4.266  0.00  0.00     0.055 C 
HETATM    5  C   UNK N   1      20.127  15.531   5.561  0.00  0.00     0.274 C 
HETATM    6  C   UNK N   1      22.036  17.048   5.747  0.00  0.00     0.274 C 
ENDROOT
BRANCH   2   7
HETATM    7  C   UNK N   1      21.108  15.886   2.547  0.00  0.00    -0.040 A 
HETATM    8  C   UNK N   1      20.116  15.287   1.747  0.00  0.00     0.008 A 
HETATM    9  C   UNK N   1      20.436  14.242   0.878  0.00  0.00     0.001 A 
HETATM   10  C   UNK N   1      21.754  13.790   0.784  0.00  0.00     0.000 A 
HETATM   11  C   UNK N   1      22.751  14.379   1.564  0.00  0.00     0.001 A 
HETATM   12  C   UNK N   1      22.430  15.415   2.446  0.00  0.00     0.008 A 
ENDBRANCH   2   7
BRANCH   2  13
HETATM   13  C   UNK N   1      20.077  18.129   2.692  0.00  0.00     0.272 C 
HETATM   14  O   UNK N   1      18.885  18.358   2.886  0.00  0.00    -0.264 OA
BRANCH  13  15
HETATM   15  O   UNK N   1      20.710  18.885   1.752  0.00  0.00    -0.321 OA
BRANCH  15  16
HETATM   16  C   UNK N   1      21.056  20.213   1.855  0.00  0.00     0.174 C 
HETATM   17  C   UNK N   1      20.769  20.914   0.545  0.00  0.00     0.034 C 
ENDBRANCH  15  16
ENDBRANCH  13  15
ENDBRANCH   2  13
BRANCH   1  18
HETATM   18  C   UNK N   1      21.718  15.263   7.333  0.00  0.00     0.298 C 
BRANCH  18  19
HETATM   19  C   UNK N   1      20.508  15.546   8.229  0.00  0.00     0.198 C 
BRANCH  19  20
HETATM   20  O   UNK N   1      20.659  16.756   8.913  0.00  0.00    -0.387 OA
BRANCH  20  21
HETATM   21  C   UNK N   1      19.560  17.521   8.519  0.00  0.00     0.193 C 
BRANCH  21  22
HETATM   22  C   UNK N   1      19.121  18.414   9.665  0.00  0.00     0.190 C 
BRANCH  22  23
HETATM   23  O   UNK N   1      20.099  19.379   9.898  0.00  0.00    -0.399 OA
HETATM   24  H   UNK N   1      19.953  20.226  10.349  0.00  0.00     0.209 HD
ENDBRANCH  22  23
ENDBRANCH  21  22
ENDBRANCH  20  21
ENDBRANCH  19  20
ENDBRANCH  18  19
ENDBRANCH   1  18
TORSDOF 10
ENDMDL
MODEL 8
REMARK VINA RESULT:      -5.2      2.452      6.870
REMARK  10 active torsions:
REMARK  status: ('A' for Active; 'I' for Inactive)
REMARK    1  A    between atoms: O_1  and  C_12 
REMARK    2  A    between atoms: O_1  and  C_20 
REMARK    3  A    between atoms: O_3  and  C_16 
REMARK    4  A    between atoms: O_3  and  C_21 
REMARK    5  A    between atoms: O_4  and  C_23 
REMARK    6  A    between atoms: N_5  and  C_13 
REMARK    7  A    between atoms: C_6  and  C_11 
REMARK    8  A    between atoms: C_6  and  C_12 
REMARK    9  A    between atoms: C_13  and  C_16 
REMARK   10  A    between atoms: C_21  and  C_23 
ROOT
HETATM    1  N   UNK N   1      28.476  18.960   5.935  0.00  0.00     0.090 N 
HETATM    2  C   UNK N   1      29.947  16.493   5.765  0.00  0.00     0.078 C 
HETATM    3  C   UNK N   1      28.764  16.600   6.755  0.00  0.00     0.055 C 
HETATM    4  C   UNK N   1      29.643  17.336   4.503  0.00  0.00     0.055 C 
HETATM    5  C   UNK N   1      28.329  18.037   7.069  0.00  0.00     0.274 C 
HETATM    6  C   UNK N   1      28.449  18.282   4.639  0.00  0.00     0.274 C 
ENDROOT
BRANCH   2   7
HETATM    7  C   UNK N   1      31.261  17.009   6.349  0.00  0.00    -0.040 A 
HETATM    8  C   UNK N   1      32.349  17.259   5.491  0.00  0.00     0.008 A 
HETATM    9  C   UNK N   1      33.573  17.699   6.002  0.00  0.00     0.001 A 
HETATM   10  C   UNK N   1      33.722  17.910   7.374  0.00  0.00     0.000 A 
HETATM   11  C   UNK N   1      32.650  17.675   8.237  0.00  0.00     0.001 A 
HETATM   12  C   UNK N   1      31.429  17.219   7.730  0.00  0.00     0.008 A 
ENDBRANCH   2   7
BRANCH   2  13
HETATM   13  C   UNK N   1      30.119  14.991   5.488  0.00  0.00     0.272 C 
HETATM   14  O   UNK N   1      29.427  14.499   4.600  0.00  0.00    -0.264 OA
BRANCH  13  15
HETATM   15  O   UNK N   1      30.962  14.154   6.155  0.00  0.00    -0.321 OA
BRANCH  15  16
HETATM   16  C   UNK N   1      32.104  13.564   5.662  0.00  0.00     0.174 C 
HETATM   17  C   UNK N   1      33.252  13.806   6.617  0.00  0.00     0.034 C 
ENDBRANCH  15  16
ENDBRANCH  13  15
ENDBRANCH   2  13
BRANCH   1  18
HETATM   18  C   UNK N   1      27.429  19.985   6.002  0.00  0.00     0.298 C 
BRANCH  18  19
HETATM   19  C   UNK N   1      26.542  20.049   4.754  0.00  0.00     0.198 C 
BRANCH  19  20
HETATM   20  O   UNK N   1      25.257  19.570   5.024  0.00  0.00    -0.387 OA
BRANCH  20  21
HETATM   21  C   UNK N   1      24.719  19.281   3.769  0.00  0.00     0.193 C 
BRANCH  21  22
HETATM   22  C   UNK N   1      24.160  20.548   3.148  0.00  0.00     0.190 C 
BRANCH  22  23
HETATM   23  O   UNK N   1      24.785  20.775   1.922  0.00  0.00    -0.399 OA
HETATM   24  H   UNK N   1      24.746  21.603   1.419  0.00  0.00     0.209 HD
ENDBRANCH  22  23
ENDBRANCH  21  22
ENDBRANCH  20  21
ENDBRANCH  19  20
ENDBRANCH  18  19
ENDBRANCH   1  18
TORSDOF 10
ENDMDL
MODEL 9
REMARK VINA RESULT:      -5.1      2.666      6.959
REMARK  10 active torsions:
REMARK  status: ('A' for Active; 'I' for Inactive)
REMARK    1  A    between atoms: O_1  and  C_12 
REMARK    2  A    between atoms: O_1  and  C_20 
REMARK    3  A    between atoms: O_3  and  C_16 
REMARK    4  A    between atoms: O_3  and  C_21 
REMARK    5  A    between atoms: O_4  and  C_23 
REMARK    6  A    between atoms: N_5  and  C_13 
REMARK    7  A    between atoms: C_6  and  C_11 
REMARK    8  A    between atoms: C_6  and  C_12 
REMARK    9  A    between atoms: C_13  and  C_16 
REMARK   10  A    between atoms: C_21  and  C_23 
ROOT
HETATM    1  N   UNK N   1      25.786  15.978   4.566  0.00  0.00     0.090 N 
HETATM    2  C   UNK N   1      28.288  17.134   5.392  0.00  0.00     0.078 C 
HETATM    3  C   UNK N   1      27.539  16.186   6.357  0.00  0.00     0.055 C 
HETATM    4  C   UNK N   1      28.058  16.674   3.932  0.00  0.00     0.055 C 
HETATM    5  C   UNK N   1      26.062  15.966   6.009  0.00  0.00     0.274 C 
HETATM    6  C   UNK N   1      26.954  15.630   3.757  0.00  0.00     0.274 C 
ENDROOT
BRANCH   2   7
HETATM    7  C   UNK N   1      27.810  18.582   5.490  0.00  0.00    -0.040 A 
HETATM    8  C   UNK N   1      27.371  19.247   4.329  0.00  0.00     0.008 A 
HETATM    9  C   UNK N   1      26.961  20.582   4.383  0.00  0.00     0.001 A 
HETATM   10  C   UNK N   1      26.969  21.265   5.601  0.00  0.00     0.000 A 
HETATM   11  C   UNK N   1      27.394  20.618   6.762  0.00  0.00     0.001 A 
HETATM   12  C   UNK N   1      27.820  19.288   6.707  0.00  0.00     0.008 A 
ENDBRANCH   2   7
BRANCH   2  13
HETATM   13  C   UNK N   1      29.759  17.099   5.836  0.00  0.00     0.272 C 
HETATM   14  O   UNK N   1      30.600  17.489   5.028  0.00  0.00    -0.264 OA
BRANCH  13  15
HETATM   15  O   UNK N   1      30.212  16.657   7.042  0.00  0.00    -0.321 OA
BRANCH  15  16
HETATM   16  C   UNK N   1      31.195  17.229   7.817  0.00  0.00     0.174 C 
HETATM   17  C   UNK N   1      30.567  18.195   8.798  0.00  0.00     0.034 C 
ENDBRANCH  15  16
ENDBRANCH  13  15
ENDBRANCH   2  13
BRANCH   1  18
HETATM   18  C   UNK N   1      24.670  15.072   4.275  0.00  0.00     0.298 C 
BRANCH  18  19
HETATM   19  C   UNK N   1      23.523  15.154   5.289  0.00  0.00     0.198 C 
BRANCH  19  20
HETATM   20  O   UNK N   1      22.600  16.140   4.928  0.00  0.00    -0.387 OA
BRANCH  20  21
HETATM   21  C   UNK N   1      22.205  16.711   6.139  0.00  0.00     0.193 C 
BRANCH  21  22
HETATM   22  C   UNK N   1      21.421  17.982   5.874  0.00  0.00     0.190 C 
BRANCH  22  23
HETATM   23  O   UNK N   1      21.162  18.625   7.083  0.00  0.00    -0.399 OA
HETATM   24  H   UNK N   1      21.443  19.525   7.311  0.00  0.00     0.209 HD
ENDBRANCH  22  23
ENDBRANCH  21  22
ENDBRANCH  20  21
ENDBRANCH  19  20
ENDBRANCH  18  19
ENDBRANCH   1  18
TORSDOF 10
ENDMDL
