MODEL 1
REMARK VINA RESULT:      -5.6      0.000      0.000
REMARK  2 active torsions:
REMARK  status: ('A' for Active; 'I' for Inactive)
REMARK    1  A    between atoms: N_1  and  C_2 
REMARK    2  A    between atoms: C_2  and  C_8 
ROOT
HETATM    1  C   UNK N   1      35.159  11.820  15.168  0.00  0.00     0.051 C 
HETATM    2  C   UNK N   1      36.385  10.979  14.752  0.00  0.00     0.035 C 
HETATM    3  C   UNK N   1      33.835  11.112  14.822  0.00  0.00     0.035 C 
HETATM    4  C   UNK N   1      36.045   9.504  14.547  0.00  0.00     0.003 C 
HETATM    5  C   UNK N   1      33.922  10.447  13.448  0.00  0.00     0.003 C 
HETATM    6  C   UNK N   1      35.003   9.353  13.428  0.00  0.00     0.000 C 
ENDROOT
BRANCH   1   7
HETATM    7  N   UNK N   1      35.213  13.068  14.424  0.00  0.00    -0.418 N 
HETATM    8  H   UNK N   1      35.694  13.325  13.562  0.00  0.00     0.151 HD
HETATM    9  H   UNK N   1      34.671  13.826  14.840  0.00  0.00     0.151 HD
ENDBRANCH   1   7
BRANCH   1  10
HETATM   10  C   UNK N   1      35.220  12.084  16.661  0.00  0.00    -0.031 A 
HETATM   11  C   UNK N   1      35.178  13.398  17.152  0.00  0.00     0.010 A 
HETATM   12  C   UNK N   1      35.195  13.645  18.529  0.00  0.00     0.001 A 
HETATM   13  C   UNK N   1      35.262  12.578  19.429  0.00  0.00     0.000 A 
HETATM   14  C   UNK N   1      35.313  11.266  18.955  0.00  0.00     0.001 A 
HETATM   15  C   UNK N   1      35.291  11.017  17.579  0.00  0.00     0.010 A 
ENDBRANCH   1  10
TORSDOF 2
ENDMDL
MODEL 2
REMARK VINA RESULT:      -5.6     26.514     28.183
REMARK  2 active torsions:
REMARK  status: ('A' for Active; 'I' for Inactive)
REMARK    1  A    between atoms: N_1  and  C_2 
REMARK    2  A    between atoms: C_2  and  C_8 
ROOT
HETATM    1  C   UNK N   1      26.250  27.564  -4.378  0.00  0.00     0.051 C 
HETATM    2  C   UNK N   1      25.091  27.240  -5.345  0.00  0.00     0.035 C 
HETATM    3  C   UNK N   1      27.182  26.353  -4.177  0.00  0.00     0.035 C 
HETATM    4  C   UNK N   1      25.377  26.021  -6.220  0.00  0.00     0.003 C 
HETATM    5  C   UNK N   1      26.373  25.063  -4.053  0.00  0.00     0.003 C 
HETATM    6  C   UNK N   1      25.583  24.777  -5.342  0.00  0.00     0.000 C 
ENDROOT
BRANCH   1   7
HETATM    7  N   UNK N   1      25.664  27.902  -3.091  0.00  0.00    -0.418 N 
HETATM    8  H   UNK N   1      25.460  27.335  -2.267  0.00  0.00     0.151 HD
HETATM    9  H   UNK N   1      25.410  28.885  -2.993  0.00  0.00     0.151 HD
ENDBRANCH   1   7
BRANCH   1  10
HETATM   10  C   UNK N   1      27.045  28.733  -4.928  0.00  0.00    -0.031 A 
HETATM   11  C   UNK N   1      27.045  29.968  -4.262  0.00  0.00     0.010 A 
HETATM   12  C   UNK N   1      27.806  31.038  -4.745  0.00  0.00     0.001 A 
HETATM   13  C   UNK N   1      28.571  30.884  -5.904  0.00  0.00     0.000 A 
HETATM   14  C   UNK N   1      28.575  29.664  -6.582  0.00  0.00     0.001 A 
HETATM   15  C   UNK N   1      27.818  28.592  -6.099  0.00  0.00     0.010 A 
ENDBRANCH   1  10
TORSDOF 2
ENDMDL
MODEL 3
REMARK VINA RESULT:      -5.5      1.422      2.265
REMARK  2 active torsions:
REMARK  status: ('A' for Active; 'I' for Inactive)
REMARK    1  A    between atoms: N_1  and  C_2 
REMARK    2  A    between atoms: C_2  and  C_8 
ROOT
HETATM    1  C   UNK N   1      35.791  10.882  15.881  0.00  0.00     0.051 C 
HETATM    2  C   UNK N   1      34.546  10.038  15.535  0.00  0.00     0.035 C 
HETATM    3  C   UNK N   1      36.078  11.945  14.803  0.00  0.00     0.035 C 
HETATM    4  C   UNK N   1      33.639  10.718  14.512  0.00  0.00     0.003 C 
HETATM    5  C   UNK N   1      35.864  11.368  13.403  0.00  0.00     0.003 C 
HETATM    6  C   UNK N   1      34.400  10.942  13.197  0.00  0.00     0.000 C 
ENDROOT
BRANCH   1   7
HETATM    7  N   UNK N   1      36.929   9.979  15.938  0.00  0.00    -0.418 N 
HETATM    8  H   UNK N   1      37.019   8.985  15.726  0.00  0.00     0.151 HD
HETATM    9  H   UNK N   1      37.796  10.418  16.249  0.00  0.00     0.151 HD
ENDBRANCH   1   7
BRANCH   1  10
HETATM   10  C   UNK N   1      35.578  11.560  17.221  0.00  0.00    -0.031 A 
HETATM   11  C   UNK N   1      35.721  10.836  18.414  0.00  0.00     0.010 A 
HETATM   12  C   UNK N   1      35.562  11.465  19.653  0.00  0.00     0.001 A 
HETATM   13  C   UNK N   1      35.251  12.826  19.710  0.00  0.00     0.000 A 
HETATM   14  C   UNK N   1      35.096  13.558  18.531  0.00  0.00     0.001 A 
HETATM   15  C   UNK N   1      35.260  12.932  17.292  0.00  0.00     0.010 A 
ENDBRANCH   1  10
TORSDOF 2
ENDMDL
MODEL 4
REMARK VINA RESULT:      -5.4     12.074     13.976
REMARK  2 active torsions:
REMARK  status: ('A' for Active; 'I' for Inactive)
REMARK    1  A    between atoms: N_1  and  C_2 
REMARK    2  A    between atoms: C_2  and  C_8 
ROOT
HETATM    1  C   UNK N   1      28.475  17.886   7.401  0.00  0.00     0.051 C 
HETATM    2  C   UNK N   1      29.421  16.875   6.718  0.00  0.00     0.035 C 
HETATM    3  C   UNK N   1      29.197  18.694   8.497  0.00  0.00     0.035 C 
HETATM    4  C   UNK N   1      30.896  17.216   6.925  0.00  0.00     0.003 C 
HETATM    5  C   UNK N   1      30.127  17.792   9.308  0.00  0.00     0.003 C 
HETATM    6  C   UNK N   1      31.236  17.198   8.423  0.00  0.00     0.000 C 
ENDROOT
BRANCH   1   7
HETATM    7  N   UNK N   1      27.405  17.128   8.028  0.00  0.00    -0.418 N 
HETATM    8  H   UNK N   1      26.558  17.423   8.515  0.00  0.00     0.151 HD
HETATM    9  H   UNK N   1      27.521  16.116   7.972  0.00  0.00     0.151 HD
ENDBRANCH   1   7
BRANCH   1  10
HETATM   10  C   UNK N   1      27.918  18.833   6.354  0.00  0.00    -0.031 A 
HETATM   11  C   UNK N   1      27.472  20.113   6.720  0.00  0.00     0.010 A 
HETATM   12  C   UNK N   1      26.993  21.003   5.753  0.00  0.00     0.001 A 
HETATM   13  C   UNK N   1      26.949  20.619   4.410  0.00  0.00     0.000 A 
HETATM   14  C   UNK N   1      27.382  19.346   4.033  0.00  0.00     0.001 A 
HETATM   15  C   UNK N   1      27.865  18.457   4.997  0.00  0.00     0.010 A 
ENDBRANCH   1  10
TORSDOF 2
ENDMDL
MODEL 5
REMARK VINA RESULT:      -5.4     10.915     11.861
REMARK  2 active torsions:
REMARK  status: ('A' for Active; 'I' for Inactive)
REMARK    1  A    between atoms: N_1  and  C_2 
REMARK    2  A    between atoms: C_2  and  C_8 
ROOT
HETATM    1  C   UNK N   1      31.543  16.635   6.766  0.00  0.00     0.051 C 
HETATM    2  C   UNK N   1      31.024  16.506   5.318  0.00  0.00     0.035 C 
HETATM    3  C   UNK N   1      32.810  17.508   6.843  0.00  0.00     0.035 C 
HETATM    4  C   UNK N   1      31.559  17.603   4.400  0.00  0.00     0.003 C 
HETATM    5  C   UNK N   1      33.751  17.199   5.679  0.00  0.00     0.003 C 
HETATM    6  C   UNK N   1      33.092  17.532   4.329  0.00  0.00     0.000 C 
ENDROOT
BRANCH   1   7
HETATM    7  N   UNK N   1      31.886  15.299   7.228  0.00  0.00    -0.418 N 
HETATM    8  H   UNK N   1      31.941  14.897   8.164  0.00  0.00     0.151 HD
HETATM    9  H   UNK N   1      32.114  14.644   6.480  0.00  0.00     0.151 HD
ENDBRANCH   1   7
BRANCH   1  10
HETATM   10  C   UNK N   1      30.455  17.238   7.634  0.00  0.00    -0.031 A 
HETATM   11  C   UNK N   1      30.789  18.010   8.758  0.00  0.00     0.010 A 
HETATM   12  C   UNK N   1      29.790  18.600   9.539  0.00  0.00     0.001 A 
HETATM   13  C   UNK N   1      28.445  18.418   9.207  0.00  0.00     0.000 A 
HETATM   14  C   UNK N   1      28.097  17.646   8.097  0.00  0.00     0.001 A 
HETATM   15  C   UNK N   1      29.094  17.060   7.312  0.00  0.00     0.010 A 
ENDBRANCH   1  10
TORSDOF 2
ENDMDL
MODEL 6
REMARK VINA RESULT:      -5.3     12.097     13.780
REMARK  2 active torsions:
REMARK  status: ('A' for Active; 'I' for Inactive)
REMARK    1  A    between atoms: N_1  and  C_2 
REMARK    2  A    between atoms: C_2  and  C_8 
ROOT
HETATM    1  C   UNK N   1      27.846  18.251   6.224  0.00  0.00     0.051 C 
HETATM    2  C   UNK N   1      27.291  19.672   6.461  0.00  0.00     0.035 C 
HETATM    3  C   UNK N   1      28.187  18.011   4.740  0.00  0.00     0.035 C 
HETATM    4  C   UNK N   1      27.638  20.637   5.330  0.00  0.00     0.003 C 
HETATM    5  C   UNK N   1      27.113  18.614   3.835  0.00  0.00     0.003 C 
HETATM    6  C   UNK N   1      27.033  20.141   4.008  0.00  0.00     0.000 C 
ENDROOT
BRANCH   1   7
HETATM    7  N   UNK N   1      26.809  17.307   6.608  0.00  0.00    -0.418 N 
HETATM    8  H   UNK N   1      25.892  17.106   6.209  0.00  0.00     0.151 HD
HETATM    9  H   UNK N   1      27.040  16.743   7.426  0.00  0.00     0.151 HD
ENDBRANCH   1   7
BRANCH   1  10
HETATM   10  C   UNK N   1      29.090  18.054   7.071  0.00  0.00    -0.031 A 
HETATM   11  C   UNK N   1      30.173  17.310   6.578  0.00  0.00     0.010 A 
HETATM   12  C   UNK N   1      31.337  17.157   7.340  0.00  0.00     0.001 A 
HETATM   13  C   UNK N   1      31.425  17.743   8.605  0.00  0.00     0.000 A 
HETATM   14  C   UNK N   1      30.352  18.479   9.111  0.00  0.00     0.001 A 
HETATM   15  C   UNK N   1      29.190  18.637   8.350  0.00  0.00     0.010 A 
ENDBRANCH   1  10
TORSDOF 2
ENDMDL
MODEL 7
REMARK VINA RESULT:      -5.2     13.382     15.317
REMARK  2 active torsions:
REMARK  status: ('A' for Active; 'I' for Inactive)
REMARK    1  A    between atoms: N_1  and  C_2 
REMARK    2  A    between atoms: C_2  and  C_8 
ROOT
HETATM    1  C   UNK N   1      21.655  13.789   8.208  0.00  0.00     0.051 C 
HETATM    2  C   UNK N   1      20.444  14.565   8.768  0.00  0.00     0.035 C 
HETATM    3  C   UNK N   1      22.588  14.702   7.388  0.00  0.00     0.035 C 
HETATM    4  C   UNK N   1      20.673  16.074   8.799  0.00  0.00     0.003 C 
HETATM    5  C   UNK N   1      21.777  15.660   6.516  0.00  0.00     0.003 C 
HETATM    6  C   UNK N   1      20.917  16.601   7.377  0.00  0.00     0.000 C 
ENDROOT
BRANCH   1   7
HETATM    7  N   UNK N   1      21.142  12.756   7.324  0.00  0.00    -0.418 N 
HETATM    8  H   UNK N   1      20.591  11.916   7.507  0.00  0.00     0.151 HD
HETATM    9  H   UNK N   1      21.375  12.893   6.340  0.00  0.00     0.151 HD
ENDBRANCH   1   7
BRANCH   1  10
HETATM   10  C   UNK N   1      22.428  13.174   9.359  0.00  0.00    -0.031 A 
HETATM   11  C   UNK N   1      21.752  12.689  10.490  0.00  0.00     0.010 A 
HETATM   12  C   UNK N   1      22.458  12.086  11.537  0.00  0.00     0.001 A 
HETATM   13  C   UNK N   1      23.848  11.969  11.466  0.00  0.00     0.000 A 
HETATM   14  C   UNK N   1      24.535  12.455  10.352  0.00  0.00     0.001 A 
HETATM   15  C   UNK N   1      23.832  13.053   9.302  0.00  0.00     0.010 A 
ENDBRANCH   1  10
TORSDOF 2
ENDMDL
MODEL 8
REMARK VINA RESULT:      -5.1     26.249     27.930
REMARK  2 active torsions:
REMARK  status: ('A' for Active; 'I' for Inactive)
REMARK    1  A    between atoms: N_1  and  C_2 
REMARK    2  A    between atoms: C_2  and  C_8 
ROOT
HETATM    1  C   UNK N   1      26.702  25.698  -5.693  0.00  0.00     0.051 C 
HETATM    2  C   UNK N   1      26.172  27.064  -6.177  0.00  0.00     0.035 C 
HETATM    3  C   UNK N   1      26.327  25.427  -4.223  0.00  0.00     0.035 C 
HETATM    4  C   UNK N   1      25.042  27.602  -5.301  0.00  0.00     0.003 C 
HETATM    5  C   UNK N   1      26.489  26.693  -3.382  0.00  0.00     0.003 C 
HETATM    6  C   UNK N   1      25.539  27.804  -3.862  0.00  0.00     0.000 C 
ENDROOT
BRANCH   1   7
HETATM    7  N   UNK N   1      28.152  25.732  -5.790  0.00  0.00    -0.418 N 
HETATM    8  H   UNK N   1      28.783  26.325  -6.330  0.00  0.00     0.151 HD
HETATM    9  H   UNK N   1      28.626  25.036  -5.214  0.00  0.00     0.151 HD
ENDBRANCH   1   7
BRANCH   1  10
HETATM   10  C   UNK N   1      26.132  24.602  -6.574  0.00  0.00    -0.031 A 
HETATM   11  C   UNK N   1      25.796  24.868  -7.910  0.00  0.00     0.010 A 
HETATM   12  C   UNK N   1      25.305  23.852  -8.737  0.00  0.00     0.001 A 
HETATM   13  C   UNK N   1      25.140  22.560  -8.232  0.00  0.00     0.000 A 
HETATM   14  C   UNK N   1      25.462  22.282  -6.903  0.00  0.00     0.001 A 
HETATM   15  C   UNK N   1      25.957  23.295  -6.076  0.00  0.00     0.010 A 
ENDBRANCH   1  10
TORSDOF 2
ENDMDL
MODEL 9
REMARK VINA RESULT:      -5.0     13.310     15.363
REMARK  2 active torsions:
REMARK  status: ('A' for Active; 'I' for Inactive)
REMARK    1  A    between atoms: N_1  and  C_2 
REMARK    2  A    between atoms: C_2  and  C_8 
ROOT
HETATM    1  C   UNK N   1      22.460  13.055   8.729  0.00  0.00     0.051 C 
HETATM    2  C   UNK N   1      23.963  13.038   8.377  0.00  0.00     0.035 C 
HETATM    3  C   UNK N   1      22.225  12.858  10.239  0.00  0.00     0.035 C 
HETATM    4  C   UNK N   1      24.855  13.306   9.588  0.00  0.00     0.003 C 
HETATM    5  C   UNK N   1      23.167  11.793  10.799  0.00  0.00     0.003 C 
HETATM    6  C   UNK N   1      24.638  12.221  10.653  0.00  0.00     0.000 C 
ENDROOT
BRANCH   1   7
HETATM    7  N   UNK N   1      21.834  11.947   8.026  0.00  0.00    -0.418 N 
HETATM    8  H   UNK N   1      21.163  11.922   7.257  0.00  0.00     0.151 HD
HETATM    9  H   UNK N   1      22.116  11.026   8.361  0.00  0.00     0.151 HD
ENDBRANCH   1   7
BRANCH   1  10
HETATM   10  C   UNK N   1      21.860  14.377   8.288  0.00  0.00    -0.031 A 
HETATM   11  C   UNK N   1      20.873  15.003   9.066  0.00  0.00     0.010 A 
HETATM   12  C   UNK N   1      20.343  16.240   8.683  0.00  0.00     0.001 A 
HETATM   13  C   UNK N   1      20.792  16.860   7.514  0.00  0.00     0.000 A 
HETATM   14  C   UNK N   1      21.767  16.245   6.727  0.00  0.00     0.001 A 
HETATM   15  C   UNK N   1      22.301  15.012   7.109  0.00  0.00     0.010 A 
ENDBRANCH   1  10
TORSDOF 2
ENDMDL
