MODEL 1
REMARK VINA RESULT:      -5.4      0.000      0.000
REMARK  3 active torsions:
REMARK  status: ('A' for Active; 'I' for Inactive)
REMARK    1  A    between atoms: N_3  and  C_5 
REMARK    2  A    between atoms: C_4  and  C_5 
REMARK    3  A    between atoms: C_4  and  C_6 
ROOT
HETATM    1  O   UNK N   1      33.576  18.165   8.891  0.00  0.00    -0.323 OA
HETATM    2  O   UNK N   1      34.514  17.846   6.910  0.00  0.00    -0.323 OA
HETATM    3  C   UNK N   1      30.463  17.338   7.111  0.00  0.00    -0.053 A 
HETATM    4  C   UNK N   1      31.265  17.696   8.213  0.00  0.00     0.047 A 
HETATM    5  C   UNK N   1      32.636  17.837   8.007  0.00  0.00     0.105 A 
HETATM    6  C   UNK N   1      31.074  17.136   5.846  0.00  0.00     0.010 A 
HETATM    7  C   UNK N   1      33.202  17.644   6.811  0.00  0.00     0.105 A 
HETATM    8  C   UNK N   1      32.464  17.290   5.688  0.00  0.00     0.040 A 
HETATM    9  C   UNK N   1      34.811  18.185   8.233  0.00  0.00     0.352 A 
ENDROOT
BRANCH   3  10
HETATM   10  C   UNK N   1      28.979  17.185   7.332  0.00  0.00     0.062 C 
BRANCH  10  11
HETATM   11  C   UNK N   1      28.149  18.406   7.755  0.00  0.00     0.074 C 
HETATM   12  C   UNK N   1      27.785  19.615   6.911  0.00  0.00     0.032 C 
BRANCH  11  13
HETATM   13  N   UNK N   1      27.652  18.405   9.118  0.00  0.00    -0.426 N 
HETATM   14  H   UNK N   1      26.985  17.693   9.416  0.00  0.00     0.150 HD
HETATM   15  H   UNK N   1      27.970  19.115   9.777  0.00  0.00     0.150 HD
ENDBRANCH  11  13
ENDBRANCH  10  11
ENDBRANCH   3  10
TORSDOF 3
ENDMDL
MODEL 2
REMARK VINA RESULT:      -5.3     10.376     11.626
REMARK  3 active torsions:
REMARK  status: ('A' for Active; 'I' for Inactive)
REMARK    1  A    between atoms: N_3  and  C_5 
REMARK    2  A    between atoms: C_4  and  C_5 
REMARK    3  A    between atoms: C_4  and  C_6 
ROOT
HETATM    1  O   UNK N   1      19.196  15.231   9.547  0.00  0.00    -0.323 OA
HETATM    2  O   UNK N   1      20.215  16.078   7.773  0.00  0.00    -0.323 OA
HETATM    3  C   UNK N   1      22.047  12.904   9.583  0.00  0.00    -0.053 A 
HETATM    4  C   UNK N   1      20.832  13.466  10.025  0.00  0.00     0.047 A 
HETATM    5  C   UNK N   1      20.315  14.548   9.316  0.00  0.00     0.105 A 
HETATM    6  C   UNK N   1      22.692  13.455   8.445  0.00  0.00     0.010 A 
HETATM    7  C   UNK N   1      20.931  15.060   8.244  0.00  0.00     0.105 A 
HETATM    8  C   UNK N   1      22.130  14.549   7.761  0.00  0.00     0.040 A 
HETATM    9  C   UNK N   1      19.082  16.233   8.578  0.00  0.00     0.352 A 
ENDROOT
BRANCH   3  10
HETATM   10  C   UNK N   1      22.608  11.733  10.349  0.00  0.00     0.062 C 
BRANCH  10  11
HETATM   11  C   UNK N   1      23.545  11.988  11.539  0.00  0.00     0.074 C 
HETATM   12  C   UNK N   1      23.211  11.896  13.017  0.00  0.00     0.032 C 
BRANCH  11  13
HETATM   13  N   UNK N   1      24.910  12.357  11.214  0.00  0.00    -0.426 N 
HETATM   14  H   UNK N   1      25.355  13.139  11.696  0.00  0.00     0.150 HD
HETATM   15  H   UNK N   1      25.425  11.836  10.505  0.00  0.00     0.150 HD
ENDBRANCH  11  13
ENDBRANCH  10  11
ENDBRANCH   3  10
TORSDOF 3
ENDMDL
MODEL 3
REMARK VINA RESULT:      -5.1      7.323      9.693
REMARK  3 active torsions:
REMARK  status: ('A' for Active; 'I' for Inactive)
REMARK    1  A    between atoms: N_3  and  C_5 
REMARK    2  A    between atoms: C_4  and  C_5 
REMARK    3  A    between atoms: C_4  and  C_6 
ROOT
HETATM    1  O   UNK N   1      21.726  20.893   2.338  0.00  0.00    -0.323 OA
HETATM    2  O   UNK N   1      21.094  19.171   3.578  0.00  0.00    -0.323 OA
HETATM    3  C   UNK N   1      25.098  19.990   3.505  0.00  0.00    -0.053 A 
HETATM    4  C   UNK N   1      24.131  20.733   2.797  0.00  0.00     0.047 A 
HETATM    5  C   UNK N   1      22.798  20.346   2.909  0.00  0.00     0.105 A 
HETATM    6  C   UNK N   1      24.681  18.889   4.297  0.00  0.00     0.010 A 
HETATM    7  C   UNK N   1      22.416  19.306   3.658  0.00  0.00     0.105 A 
HETATM    8  C   UNK N   1      23.321  18.537   4.379  0.00  0.00     0.040 A 
HETATM    9  C   UNK N   1      20.597  20.171   2.737  0.00  0.00     0.352 A 
ENDROOT
BRANCH   3  10
HETATM   10  C   UNK N   1      26.542  20.406   3.385  0.00  0.00     0.062 C 
BRANCH  10  11
HETATM   11  C   UNK N   1      27.487  20.209   4.579  0.00  0.00     0.074 C 
HETATM   12  C   UNK N   1      27.465  20.943   5.908  0.00  0.00     0.032 C 
BRANCH  11  13
HETATM   13  N   UNK N   1      28.519  19.201   4.423  0.00  0.00    -0.426 N 
HETATM   14  H   UNK N   1      29.242  19.098   5.135  0.00  0.00     0.150 HD
HETATM   15  H   UNK N   1      28.521  18.597   3.602  0.00  0.00     0.150 HD
ENDBRANCH  11  13
ENDBRANCH  10  11
ENDBRANCH   3  10
TORSDOF 3
ENDMDL
MODEL 4
REMARK VINA RESULT:      -5.0      9.880     11.439
REMARK  3 active torsions:
REMARK  status: ('A' for Active; 'I' for Inactive)
REMARK    1  A    between atoms: N_3  and  C_5 
REMARK    2  A    between atoms: C_4  and  C_5 
REMARK    3  A    between atoms: C_4  and  C_6 
ROOT
HETATM    1  O   UNK N   1      34.624  12.692  13.282  0.00  0.00    -0.323 OA
HETATM    2  O   UNK N   1      36.414  13.937  12.892  0.00  0.00    -0.323 OA
HETATM    3  C   UNK N   1      35.387  13.402  16.812  0.00  0.00    -0.053 A 
HETATM    4  C   UNK N   1      34.674  12.846  15.731  0.00  0.00     0.047 A 
HETATM    5  C   UNK N   1      35.132  13.107  14.441  0.00  0.00     0.105 A 
HETATM    6  C   UNK N   1      36.532  14.199  16.550  0.00  0.00     0.010 A 
HETATM    7  C   UNK N   1      36.213  13.859  14.205  0.00  0.00     0.105 A 
HETATM    8  C   UNK N   1      36.956  14.434  15.229  0.00  0.00     0.040 A 
HETATM    9  C   UNK N   1      35.415  13.201  12.247  0.00  0.00     0.352 A 
ENDROOT
BRANCH   3  10
HETATM   10  C   UNK N   1      34.893  13.121  18.208  0.00  0.00     0.062 C 
BRANCH  10  11
HETATM   11  C   UNK N   1      35.571  12.024  19.042  0.00  0.00     0.074 C 
HETATM   12  C   UNK N   1      36.016  10.649  18.577  0.00  0.00     0.032 C 
BRANCH  11  13
HETATM   13  N   UNK N   1      35.819  12.337  20.437  0.00  0.00    -0.426 N 
HETATM   14  H   UNK N   1      35.577  13.259  20.803  0.00  0.00     0.150 HD
HETATM   15  H   UNK N   1      36.235  11.638  21.051  0.00  0.00     0.150 HD
ENDBRANCH  11  13
ENDBRANCH  10  11
ENDBRANCH   3  10
TORSDOF 3
ENDMDL
MODEL 5
REMARK VINA RESULT:      -5.0      9.590     10.774
REMARK  3 active torsions:
REMARK  status: ('A' for Active; 'I' for Inactive)
REMARK    1  A    between atoms: N_3  and  C_5 
REMARK    2  A    between atoms: C_4  and  C_5 
REMARK    3  A    between atoms: C_4  and  C_6 
ROOT
HETATM    1  O   UNK N   1      22.892  15.387   6.528  0.00  0.00    -0.323 OA
HETATM    2  O   UNK N   1      21.111  16.461   7.291  0.00  0.00    -0.323 OA
HETATM    3  C   UNK N   1      22.273  13.145   9.381  0.00  0.00    -0.053 A 
HETATM    4  C   UNK N   1      22.935  13.620   8.231  0.00  0.00     0.047 A 
HETATM    5  C   UNK N   1      22.435  14.764   7.612  0.00  0.00     0.105 A 
HETATM    6  C   UNK N   1      21.133  13.841   9.861  0.00  0.00     0.010 A 
HETATM    7  C   UNK N   1      21.360  15.413   8.073  0.00  0.00     0.105 A 
HETATM    8  C   UNK N   1      20.665  14.993   9.201  0.00  0.00     0.040 A 
HETATM    9  C   UNK N   1      22.072  16.492   6.275  0.00  0.00     0.352 A 
ENDROOT
BRANCH   3  10
HETATM   10  C   UNK N   1      22.813  11.907  10.051  0.00  0.00     0.062 C 
BRANCH  10  11
HETATM   11  C   UNK N   1      23.601  12.041  11.362  0.00  0.00     0.074 C 
HETATM   12  C   UNK N   1      23.097  11.799  12.774  0.00  0.00     0.032 C 
BRANCH  11  13
HETATM   13  N   UNK N   1      24.989  12.444  11.240  0.00  0.00    -0.426 N 
HETATM   14  H   UNK N   1      25.703  11.752  11.010  0.00  0.00     0.150 HD
HETATM   15  H   UNK N   1      25.252  13.419  11.383  0.00  0.00     0.150 HD
ENDBRANCH  11  13
ENDBRANCH  10  11
ENDBRANCH   3  10
TORSDOF 3
ENDMDL
MODEL 6
REMARK VINA RESULT:      -4.9      3.066      3.845
REMARK  3 active torsions:
REMARK  status: ('A' for Active; 'I' for Inactive)
REMARK    1  A    between atoms: N_3  and  C_5 
REMARK    2  A    between atoms: C_4  and  C_5 
REMARK    3  A    between atoms: C_4  and  C_6 
ROOT
HETATM    1  O   UNK N   1      34.415  15.555  10.310  0.00  0.00    -0.323 OA
HETATM    2  O   UNK N   1      35.509  17.478  10.193  0.00  0.00    -0.323 OA
HETATM    3  C   UNK N   1      32.844  16.713   7.189  0.00  0.00    -0.053 A 
HETATM    4  C   UNK N   1      33.090  15.834   8.263  0.00  0.00     0.047 A 
HETATM    5  C   UNK N   1      34.026  16.217   9.222  0.00  0.00     0.105 A 
HETATM    6  C   UNK N   1      33.551  17.942   7.124  0.00  0.00     0.010 A 
HETATM    7  C   UNK N   1      34.686  17.378   9.151  0.00  0.00     0.105 A 
HETATM    8  C   UNK N   1      34.487  18.285   8.118  0.00  0.00     0.040 A 
HETATM    9  C   UNK N   1      35.374  16.326  10.975  0.00  0.00     0.352 A 
ENDROOT
BRANCH   3  10
HETATM   10  C   UNK N   1      31.832  16.300   6.151  0.00  0.00     0.062 C 
BRANCH  10  11
HETATM   11  C   UNK N   1      31.887  16.929   4.751  0.00  0.00     0.074 C 
HETATM   12  C   UNK N   1      32.940  16.710   3.679  0.00  0.00     0.032 C 
BRANCH  11  13
HETATM   13  N   UNK N   1      30.806  17.835   4.410  0.00  0.00    -0.426 N 
HETATM   14  H   UNK N   1      29.900  17.462   4.126  0.00  0.00     0.150 HD
HETATM   15  H   UNK N   1      30.953  18.842   4.453  0.00  0.00     0.150 HD
ENDBRANCH  11  13
ENDBRANCH  10  11
ENDBRANCH   3  10
TORSDOF 3
ENDMDL
MODEL 7
REMARK VINA RESULT:      -4.9      1.876      2.045
REMARK  3 active torsions:
REMARK  status: ('A' for Active; 'I' for Inactive)
REMARK    1  A    between atoms: N_3  and  C_5 
REMARK    2  A    between atoms: C_4  and  C_5 
REMARK    3  A    between atoms: C_4  and  C_6 
ROOT
HETATM    1  O   UNK N   1      33.032  17.413   8.264  0.00  0.00    -0.323 OA
HETATM    2  O   UNK N   1      34.583  17.681   6.707  0.00  0.00    -0.323 OA
HETATM    3  C   UNK N   1      30.733  17.278   5.393  0.00  0.00    -0.053 A 
HETATM    4  C   UNK N   1      31.105  17.255   6.753  0.00  0.00     0.047 A 
HETATM    5  C   UNK N   1      32.455  17.403   7.064  0.00  0.00     0.105 A 
HETATM    6  C   UNK N   1      31.735  17.450   4.404  0.00  0.00     0.010 A 
HETATM    7  C   UNK N   1      33.392  17.565   6.124  0.00  0.00     0.105 A 
HETATM    8  C   UNK N   1      33.087  17.596   4.768  0.00  0.00     0.040 A 
HETATM    9  C   UNK N   1      34.409  17.590   8.091  0.00  0.00     0.352 A 
ENDROOT
BRANCH   3  10
HETATM   10  C   UNK N   1      29.273  17.117   5.054  0.00  0.00     0.062 C 
BRANCH  10  11
HETATM   11  C   UNK N   1      28.346  18.341   5.108  0.00  0.00     0.074 C 
HETATM   12  C   UNK N   1      27.618  18.898   6.319  0.00  0.00     0.032 C 
BRANCH  11  13
HETATM   13  N   UNK N   1      28.144  19.050   3.859  0.00  0.00    -0.426 N 
HETATM   14  H   UNK N   1      27.388  18.772   3.232  0.00  0.00     0.150 HD
HETATM   15  H   UNK N   1      28.756  19.824   3.607  0.00  0.00     0.150 HD
ENDBRANCH  11  13
ENDBRANCH  10  11
ENDBRANCH   3  10
TORSDOF 3
ENDMDL
MODEL 8
REMARK VINA RESULT:      -4.9     15.563     17.144
REMARK  3 active torsions:
REMARK  status: ('A' for Active; 'I' for Inactive)
REMARK    1  A    between atoms: N_3  and  C_5 
REMARK    2  A    between atoms: C_4  and  C_5 
REMARK    3  A    between atoms: C_4  and  C_6 
ROOT
HETATM    1  O   UNK N   1      28.431  29.617  -6.645  0.00  0.00    -0.323 OA
HETATM    2  O   UNK N   1      28.035  30.791  -4.809  0.00  0.00    -0.323 OA
HETATM    3  C   UNK N   1      25.823  27.389  -5.310  0.00  0.00    -0.053 A 
HETATM    4  C   UNK N   1      26.797  27.835  -6.226  0.00  0.00     0.047 A 
HETATM    5  C   UNK N   1      27.481  29.013  -5.934  0.00  0.00     0.105 A 
HETATM    6  C   UNK N   1      25.578  28.149  -4.137  0.00  0.00     0.010 A 
HETATM    7  C   UNK N   1      27.242  29.722  -4.826  0.00  0.00     0.105 A 
HETATM    8  C   UNK N   1      26.295  29.334  -3.885  0.00  0.00     0.040 A 
HETATM    9  C   UNK N   1      28.825  30.773  -5.963  0.00  0.00     0.352 A 
ENDROOT
BRANCH   3  10
HETATM   10  C   UNK N   1      25.083  26.115  -5.624  0.00  0.00     0.062 C 
BRANCH  10  11
HETATM   11  C   UNK N   1      25.677  24.768  -5.185  0.00  0.00     0.074 C 
HETATM   12  C   UNK N   1      26.514  24.484  -3.950  0.00  0.00     0.032 C 
BRANCH  11  13
HETATM   13  N   UNK N   1      25.407  23.634  -6.048  0.00  0.00    -0.426 N 
HETATM   14  H   UNK N   1      25.515  22.685  -5.691  0.00  0.00     0.150 HD
HETATM   15  H   UNK N   1      25.109  23.786  -7.011  0.00  0.00     0.150 HD
ENDBRANCH  11  13
ENDBRANCH  10  11
ENDBRANCH   3  10
TORSDOF 3
ENDMDL
MODEL 9
REMARK VINA RESULT:      -4.9      3.117      5.010
REMARK  3 active torsions:
REMARK  status: ('A' for Active; 'I' for Inactive)
REMARK    1  A    between atoms: N_3  and  C_5 
REMARK    2  A    between atoms: C_4  and  C_5 
REMARK    3  A    between atoms: C_4  and  C_6 
ROOT
HETATM    1  O   UNK N   1      29.719  16.968   7.075  0.00  0.00    -0.323 OA
HETATM    2  O   UNK N   1      30.156  16.855   4.907  0.00  0.00    -0.323 OA
HETATM    3  C   UNK N   1      33.327  17.629   7.367  0.00  0.00    -0.053 A 
HETATM    4  C   UNK N   1      32.008  17.437   7.824  0.00  0.00     0.047 A 
HETATM    5  C   UNK N   1      31.018  17.180   6.878  0.00  0.00     0.105 A 
HETATM    6  C   UNK N   1      33.596  17.554   5.976  0.00  0.00     0.010 A 
HETATM    7  C   UNK N   1      31.283  17.111   5.568  0.00  0.00     0.105 A 
HETATM    8  C   UNK N   1      32.562  17.292   5.058  0.00  0.00     0.040 A 
HETATM    9  C   UNK N   1      29.113  16.752   5.832  0.00  0.00     0.352 A 
ENDROOT
BRANCH   3  10
HETATM   10  C   UNK N   1      34.399  17.908   8.390  0.00  0.00     0.062 C 
BRANCH  10  11
HETATM   11  C   UNK N   1      34.853  16.784   9.333  0.00  0.00     0.074 C 
HETATM   12  C   UNK N   1      35.108  15.328   8.983  0.00  0.00     0.032 C 
BRANCH  11  13
HETATM   13  N   UNK N   1      35.068  17.155  10.719  0.00  0.00    -0.426 N 
HETATM   14  H   UNK N   1      35.892  16.816  11.216  0.00  0.00     0.150 HD
HETATM   15  H   UNK N   1      34.395  17.754  11.197  0.00  0.00     0.150 HD
ENDBRANCH  11  13
ENDBRANCH  10  11
ENDBRANCH   3  10
TORSDOF 3
ENDMDL
