REMARK  1 active torsions:
REMARK  status: ('A' for Active; 'I' for Inactive)
REMARK    1  A    between atoms: C_8  and  C_10 
ROOT
HETATM    1 Cl   UNK N   1       0.879  -3.532   1.011  0.00  0.00    -0.084 Cl
HETATM    2  O   UNK N   1       2.284   4.090  -1.218  0.00  0.00    -0.271 OA
HETATM    3  N   UNK N   1       1.505   2.012  -1.122  0.00  0.00    -0.325 N 
HETATM    4  N   UNK N   1       4.115   1.864   0.369  0.00  0.00    -0.380 N 
ATOM      5  HN  UNK N   1       5.076   2.204   0.413  1.00  0.00     0.160 HD
HETATM    6  C   UNK N   1       2.555   0.016   0.014  0.00  0.00     0.020 A 
HETATM    7  C   UNK N   1       3.950   0.602   0.127  0.00  0.00     0.053 C 
HETATM    8  C   UNK N   1       1.435   0.707  -0.566  0.00  0.00     0.047 A 
HETATM    9  C   UNK N   1       2.337  -1.278   0.512  0.00  0.00     0.040 A 
HETATM   10  C   UNK N   1       3.074   2.829   0.579  0.00  0.00     0.223 C 
HETATM   11  C   UNK N   1       0.200   0.053  -0.664  0.00  0.00     0.032 A 
HETATM   12  C   UNK N   1       2.285   3.009  -0.658  0.00  0.00     0.239 C 
HETATM   13  C   UNK N   1       1.092  -1.900   0.417  0.00  0.00     0.035 A 
HETATM   14  C   UNK N   1       0.026  -1.237  -0.177  0.00  0.00     0.026 A 
HETATM   15  H   UNK N   1       0.942   2.203  -1.906  0.00  0.00     0.169 HD
ENDROOT
BRANCH   7  16
HETATM   16  C   UNK N   1       5.226  -0.225   0.093  0.00  0.00     0.013 A 
HETATM   17  C   UNK N   1       5.402  -1.537  -0.463  0.00  0.00     0.046 A 
HETATM   18 Cl   UNK N   1       4.177  -2.452  -1.327  0.00  0.00    -0.083 Cl
HETATM   19  C   UNK N   1       6.665  -2.144  -0.419  0.00  0.00     0.025 A 
HETATM   20  C   UNK N   1       7.761  -1.498   0.144  0.00  0.00     0.002 A 
HETATM   21  C   UNK N   1       7.617  -0.217   0.656  0.00  0.00     0.001 A 
HETATM   22  C   UNK N   1       6.372   0.405   0.627  0.00  0.00     0.015 A 
ENDBRANCH   7  16
TORSDOF 1
