MODEL 1
REMARK VINA RESULT:      -7.1      0.000      0.000
REMARK  1 active torsions:
REMARK  status: ('A' for Active; 'I' for Inactive)
REMARK    1  A    between atoms: C_8  and  C_10 
ROOT
HETATM    1 Cl   UNK N   1      26.321  20.933   2.739  0.00  0.00    -0.084 Cl
HETATM    2  O   UNK N   1      28.373  17.812   9.886  0.00  0.00    -0.271 OA
HETATM    3  N   UNK N   1      27.865  19.226   8.251  0.00  0.00    -0.325 N 
HETATM    4  N   UNK N   1      28.799  16.762   6.797  0.00  0.00    -0.380 N 
ATOM      5  HN  UNK N   1      29.456  15.982   6.806  1.00  0.00     0.160 HD
HETATM    6  C   UNK N   1      28.003  18.828   5.761  0.00  0.00     0.020 A 
HETATM    7  C   UNK N   1      28.919  17.621   5.835  0.00  0.00     0.053 C 
HETATM    8  C   UNK N   1      27.523  19.547   6.910  0.00  0.00     0.047 A 
HETATM    9  C   UNK N   1      27.590  19.270   4.495  0.00  0.00     0.040 A 
HETATM   10  C   UNK N   1      27.828  16.805   7.853  0.00  0.00     0.223 C 
HETATM   11  C   UNK N   1      26.719  20.679   6.726  0.00  0.00     0.032 A 
HETATM   12  C   UNK N   1      28.066  17.978   8.720  0.00  0.00     0.239 C 
HETATM   13  C   UNK N   1      26.774  20.391   4.340  0.00  0.00     0.035 A 
HETATM   14  C   UNK N   1      26.345  21.099   5.455  0.00  0.00     0.026 A 
HETATM   15  H   UNK N   1      27.965  19.972   8.885  0.00  0.00     0.169 HD
ENDROOT
BRANCH   7  16
HETATM   16  C   UNK N   1      29.936  17.257   4.764  0.00  0.00     0.013 A 
HETATM   17  C   UNK N   1      29.699  16.546   3.539  0.00  0.00     0.046 A 
HETATM   18 Cl   UNK N   1      28.130  16.012   2.957  0.00  0.00    -0.083 Cl
HETATM   19  C   UNK N   1      30.762  16.313   2.656  0.00  0.00     0.025 A 
HETATM   20  C   UNK N   1      32.048  16.767   2.933  0.00  0.00     0.002 A 
HETATM   21  C   UNK N   1      32.289  17.485   4.095  0.00  0.00     0.001 A 
HETATM   22  C   UNK N   1      31.249  17.726   4.989  0.00  0.00     0.015 A 
ENDBRANCH   7  16
TORSDOF 1
ENDMDL
MODEL 2
REMARK VINA RESULT:      -6.9      3.025      5.362
REMARK  1 active torsions:
REMARK  status: ('A' for Active; 'I' for Inactive)
REMARK    1  A    between atoms: C_8  and  C_10 
ROOT
HETATM    1 Cl   UNK N   1      28.246  17.383   9.394  0.00  0.00    -0.084 Cl
HETATM    2  O   UNK N   1      32.403  16.796   2.509  0.00  0.00    -0.271 OA
HETATM    3  N   UNK N   1      31.803  17.256   4.597  0.00  0.00    -0.325 N 
HETATM    4  N   UNK N   1      29.180  16.945   3.154  0.00  0.00    -0.380 N 
ATOM      5  HN  UNK N   1      28.680  17.108   2.280  1.00  0.00     0.160 HD
HETATM    6  C   UNK N   1      29.464  17.429   5.533  0.00  0.00     0.020 A 
HETATM    7  C   UNK N   1      28.760  17.587   4.198  0.00  0.00     0.053 C 
HETATM    8  C   UNK N   1      30.885  17.266   5.681  0.00  0.00     0.047 A 
HETATM    9  C   UNK N   1      28.682  17.434   6.699  0.00  0.00     0.040 A 
HETATM   10  C   UNK N   1      30.283  16.029   3.111  0.00  0.00     0.223 C 
HETATM   11  C   UNK N   1      31.436  17.178   6.966  0.00  0.00     0.032 A 
HETATM   12  C   UNK N   1      31.551  16.741   3.377  0.00  0.00     0.239 C 
HETATM   13  C   UNK N   1      29.256  17.327   7.967  0.00  0.00     0.035 A 
HETATM   14  C   UNK N   1      30.633  17.205   8.100  0.00  0.00     0.026 A 
HETATM   15  H   UNK N   1      32.689  17.655   4.748  0.00  0.00     0.169 HD
ENDROOT
BRANCH   7  16
HETATM   16  C   UNK N   1      27.478  18.381   4.001  0.00  0.00     0.013 A 
HETATM   17  C   UNK N   1      26.163  17.866   3.740  0.00  0.00     0.046 A 
HETATM   18 Cl   UNK N   1      25.726  16.166   3.685  0.00  0.00    -0.083 Cl
HETATM   19  C   UNK N   1      25.087  18.753   3.601  0.00  0.00     0.025 A 
HETATM   20  C   UNK N   1      25.260  20.129   3.721  0.00  0.00     0.002 A 
HETATM   21  C   UNK N   1      26.517  20.642   4.006  0.00  0.00     0.001 A 
HETATM   22  C   UNK N   1      27.602  19.781   4.145  0.00  0.00     0.015 A 
ENDBRANCH   7  16
TORSDOF 1
ENDMDL
MODEL 3
REMARK VINA RESULT:      -6.9     10.385     12.625
REMARK  1 active torsions:
REMARK  status: ('A' for Active; 'I' for Inactive)
REMARK    1  A    between atoms: C_8  and  C_10 
ROOT
HETATM    1 Cl   UNK N   1      38.823   9.836  10.209  0.00  0.00    -0.084 Cl
HETATM    2  O   UNK N   1      35.296  17.051  10.941  0.00  0.00    -0.271 OA
HETATM    3  N   UNK N   1      36.798  15.435  10.684  0.00  0.00    -0.325 N 
HETATM    4  N   UNK N   1      34.511  14.067  12.081  0.00  0.00    -0.380 N 
ATOM      5  HN  UNK N   1      33.774  14.168  12.779  1.00  0.00     0.160 HD
HETATM    6  C   UNK N   1      36.599  13.013  11.370  0.00  0.00     0.020 A 
HETATM    7  C   UNK N   1      35.446  13.207  12.338  0.00  0.00     0.053 C 
HETATM    8  C   UNK N   1      37.199  14.075  10.607  0.00  0.00     0.047 A 
HETATM    9  C   UNK N   1      37.111  11.717  11.200  0.00  0.00     0.040 A 
HETATM   10  C   UNK N   1      34.416  14.891  10.911  0.00  0.00     0.223 C 
HETATM   11  C   UNK N   1      38.292  13.792   9.778  0.00  0.00     0.032 A 
HETATM   12  C   UNK N   1      35.533  15.859  10.874  0.00  0.00     0.239 C 
HETATM   13  C   UNK N   1      38.190  11.461  10.354  0.00  0.00     0.035 A 
HETATM   14  C   UNK N   1      38.785  12.499   9.649  0.00  0.00     0.026 A 
HETATM   15  H   UNK N   1      37.498  16.121  10.592  0.00  0.00     0.169 HD
ENDROOT
BRANCH   7  16
HETATM   16  C   UNK N   1      35.226  12.359  13.580  0.00  0.00     0.013 A 
HETATM   17  C   UNK N   1      35.857  12.506  14.862  0.00  0.00     0.046 A 
HETATM   18 Cl   UNK N   1      36.975  13.785  15.308  0.00  0.00    -0.083 Cl
HETATM   19  C   UNK N   1      35.515  11.635  15.906  0.00  0.00     0.025 A 
HETATM   20  C   UNK N   1      34.566  10.633  15.733  0.00  0.00     0.002 A 
HETATM   21  C   UNK N   1      33.923  10.497  14.512  0.00  0.00     0.001 A 
HETATM   22  C   UNK N   1      34.248  11.347  13.459  0.00  0.00     0.015 A 
ENDBRANCH   7  16
TORSDOF 1
ENDMDL
MODEL 4
REMARK VINA RESULT:      -6.7      8.634      9.848
REMARK  1 active torsions:
REMARK  status: ('A' for Active; 'I' for Inactive)
REMARK    1  A    between atoms: C_8  and  C_10 
ROOT
HETATM    1 Cl   UNK N   1      20.922  10.467   5.219  0.00  0.00    -0.084 Cl
HETATM    2  O   UNK N   1      20.558  18.115   7.749  0.00  0.00    -0.271 OA
HETATM    3  N   UNK N   1      20.901  16.296   6.522  0.00  0.00    -0.325 N 
HETATM    4  N   UNK N   1      20.886  15.258   9.347  0.00  0.00    -0.380 N 
ATOM      5  HN  UNK N   1      21.148  15.453  10.314  1.00  0.00     0.160 HD
HETATM    6  C   UNK N   1      21.170  13.916   7.324  0.00  0.00     0.020 A 
HETATM    7  C   UNK N   1      21.476  14.260   8.770  0.00  0.00     0.053 C 
HETATM    8  C   UNK N   1      20.896  14.892   6.304  0.00  0.00     0.047 A 
HETATM    9  C   UNK N   1      21.142  12.562   6.956  0.00  0.00     0.040 A 
HETATM   10  C   UNK N   1      19.900  16.116   8.756  0.00  0.00     0.223 C 
HETATM   11  C   UNK N   1      20.673  14.467   4.988  0.00  0.00     0.032 A 
HETATM   12  C   UNK N   1      20.498  16.903   7.657  0.00  0.00     0.239 C 
HETATM   13  C   UNK N   1      20.900  12.165   5.641  0.00  0.00     0.035 A 
HETATM   14  C   UNK N   1      20.672  13.117   4.656  0.00  0.00     0.026 A 
HETATM   15  H   UNK N   1      21.224  16.868   5.791  0.00  0.00     0.169 HD
ENDROOT
BRANCH   7  16
HETATM   16  C   UNK N   1      22.371  13.424   9.672  0.00  0.00     0.013 A 
HETATM   17  C   UNK N   1      21.975  12.623  10.795  0.00  0.00     0.046 A 
HETATM   18 Cl   UNK N   1      20.322  12.354  11.325  0.00  0.00    -0.083 Cl
HETATM   19  C   UNK N   1      22.943  11.900  11.506  0.00  0.00     0.025 A 
HETATM   20  C   UNK N   1      24.285  11.932  11.142  0.00  0.00     0.002 A 
HETATM   21  C   UNK N   1      24.682  12.675  10.039  0.00  0.00     0.001 A 
HETATM   22  C   UNK N   1      23.739  13.403   9.319  0.00  0.00     0.015 A 
ENDBRANCH   7  16
TORSDOF 1
ENDMDL
MODEL 5
REMARK VINA RESULT:      -6.6      3.951      5.159
REMARK  1 active torsions:
REMARK  status: ('A' for Active; 'I' for Inactive)
REMARK    1  A    between atoms: C_8  and  C_10 
ROOT
HETATM    1 Cl   UNK N   1      28.157  16.655   6.373  0.00  0.00    -0.084 Cl
HETATM    2  O   UNK N   1      35.369  17.458   9.892  0.00  0.00    -0.271 OA
HETATM    3  N   UNK N   1      33.344  17.867   9.076  0.00  0.00    -0.325 N 
HETATM    4  N   UNK N   1      34.254  15.442   7.543  0.00  0.00    -0.380 N 
ATOM      5  HN  UNK N   1      35.050  14.974   7.110  1.00  0.00     0.160 HD
HETATM    6  C   UNK N   1      32.096  16.566   7.308  0.00  0.00     0.020 A 
HETATM    7  C   UNK N   1      33.304  15.834   6.754  0.00  0.00     0.053 C 
HETATM    8  C   UNK N   1      32.150  17.501   8.400  0.00  0.00     0.047 A 
HETATM    9  C   UNK N   1      30.843  16.313   6.727  0.00  0.00     0.040 A 
HETATM   10  C   UNK N   1      34.292  15.606   8.968  0.00  0.00     0.223 C 
HETATM   11  C   UNK N   1      30.980  18.158   8.801  0.00  0.00     0.032 A 
HETATM   12  C   UNK N   1      34.381  17.040   9.317  0.00  0.00     0.239 C 
HETATM   13  C   UNK N   1      29.690  16.969   7.157  0.00  0.00     0.035 A 
HETATM   14  C   UNK N   1      29.760  17.896   8.189  0.00  0.00     0.026 A 
HETATM   15  H   UNK N   1      33.421  18.796   9.392  0.00  0.00     0.169 HD
ENDROOT
BRANCH   7  16
HETATM   16  C   UNK N   1      33.445  15.402   5.302  0.00  0.00     0.013 A 
HETATM   17  C   UNK N   1      33.228  16.200   4.128  0.00  0.00     0.046 A 
HETATM   18 Cl   UNK N   1      32.835  17.911   4.115  0.00  0.00    -0.083 Cl
HETATM   19  C   UNK N   1      33.424  15.634   2.861  0.00  0.00     0.025 A 
HETATM   20  C   UNK N   1      33.837  14.313   2.712  0.00  0.00     0.002 A 
HETATM   21  C   UNK N   1      34.083  13.538   3.835  0.00  0.00     0.001 A 
HETATM   22  C   UNK N   1      33.892  14.077   5.105  0.00  0.00     0.015 A 
ENDBRANCH   7  16
TORSDOF 1
ENDMDL
MODEL 6
REMARK VINA RESULT:      -6.6     11.120     13.061
REMARK  1 active torsions:
REMARK  status: ('A' for Active; 'I' for Inactive)
REMARK    1  A    between atoms: C_8  and  C_10 
ROOT
HETATM    1 Cl   UNK N   1      28.865  21.975  -9.294  0.00  0.00    -0.084 Cl
HETATM    2  O   UNK N   1      30.628  23.031  -1.496  0.00  0.00    -0.271 OA
HETATM    3  N   UNK N   1      30.040  22.132  -3.440  0.00  0.00    -0.325 N 
HETATM    4  N   UNK N   1      29.458  25.062  -3.806  0.00  0.00    -0.380 N 
ATOM      5  HN  UNK N   1      29.125  25.913  -3.353  1.00  0.00     0.160 HD
HETATM    6  C   UNK N   1      29.139  23.312  -5.482  0.00  0.00     0.020 A 
HETATM    7  C   UNK N   1      28.736  24.591  -4.773  0.00  0.00     0.053 C 
HETATM    8  C   UNK N   1      29.755  22.188  -4.830  0.00  0.00     0.047 A 
HETATM    9  C   UNK N   1      28.905  23.218  -6.863  0.00  0.00     0.040 A 
HETATM   10  C   UNK N   1      30.681  24.497  -3.310  0.00  0.00     0.223 C 
HETATM   11  C   UNK N   1      30.043  21.035  -5.572  0.00  0.00     0.032 A 
HETATM   12  C   UNK N   1      30.422  23.182  -2.686  0.00  0.00     0.239 C 
HETATM   13  C   UNK N   1      29.217  22.064  -7.582  0.00  0.00     0.035 A 
HETATM   14  C   UNK N   1      29.779  20.971  -6.936  0.00  0.00     0.026 A 
HETATM   15  H   UNK N   1      29.952  21.260  -2.992  0.00  0.00     0.169 HD
ENDROOT
BRANCH   7  16
HETATM   16  C   UNK N   1      27.567  25.467  -5.196  0.00  0.00     0.013 A 
HETATM   17  C   UNK N   1      26.246  25.042  -5.567  0.00  0.00     0.046 A 
HETATM   18 Cl   UNK N   1      25.655  23.389  -5.520  0.00  0.00    -0.083 Cl
HETATM   19  C   UNK N   1      25.283  25.999  -5.915  0.00  0.00     0.025 A 
HETATM   20  C   UNK N   1      25.574  27.360  -5.899  0.00  0.00     0.002 A 
HETATM   21  C   UNK N   1      26.834  27.790  -5.511  0.00  0.00     0.001 A 
HETATM   22  C   UNK N   1      27.808  26.858  -5.165  0.00  0.00     0.015 A 
ENDBRANCH   7  16
TORSDOF 1
ENDMDL
MODEL 7
REMARK VINA RESULT:      -6.4      3.033      4.211
REMARK  1 active torsions:
REMARK  status: ('A' for Active; 'I' for Inactive)
REMARK    1  A    between atoms: C_8  and  C_10 
ROOT
HETATM    1 Cl   UNK N   1      27.059  21.710   5.908  0.00  0.00    -0.084 Cl
HETATM    2  O   UNK N   1      27.949  14.604   2.199  0.00  0.00    -0.271 OA
HETATM    3  N   UNK N   1      27.084  16.366   3.239  0.00  0.00    -0.325 N 
HETATM    4  N   UNK N   1      29.990  16.432   4.020  0.00  0.00    -0.380 N 
ATOM      5  HN  UNK N   1      30.807  15.870   4.257  1.00  0.00     0.160 HD
HETATM    6  C   UNK N   1      28.282  18.045   4.696  0.00  0.00     0.020 A 
HETATM    7  C   UNK N   1      29.514  17.197   4.951  0.00  0.00     0.053 C 
HETATM    8  C   UNK N   1      27.171  17.629   3.883  0.00  0.00     0.047 A 
HETATM    9  C   UNK N   1      28.221  19.319   5.281  0.00  0.00     0.040 A 
HETATM   10  C   UNK N   1      29.475  16.300   2.687  0.00  0.00     0.223 C 
HETATM   11  C   UNK N   1      26.060  18.473   3.753  0.00  0.00     0.032 A 
HETATM   12  C   UNK N   1      28.128  15.691   2.717  0.00  0.00     0.239 C 
HETATM   13  C   UNK N   1      27.110  20.147   5.122  0.00  0.00     0.035 A 
HETATM   14  C   UNK N   1      26.027  19.721   4.363  0.00  0.00     0.026 A 
HETATM   15  H   UNK N   1      26.195  15.951   3.170  0.00  0.00     0.169 HD
ENDROOT
BRANCH   7  16
HETATM   16  C   UNK N   1      30.341  17.259   6.226  0.00  0.00     0.013 A 
HETATM   17  C   UNK N   1      29.860  17.272   7.579  0.00  0.00     0.046 A 
HETATM   18 Cl   UNK N   1      28.179  17.121   8.067  0.00  0.00    -0.083 Cl
HETATM   19  C   UNK N   1      30.776  17.315   8.639  0.00  0.00     0.025 A 
HETATM   20  C   UNK N   1      32.149  17.335   8.412  0.00  0.00     0.002 A 
HETATM   21  C   UNK N   1      32.632  17.289   7.112  0.00  0.00     0.001 A 
HETATM   22  C   UNK N   1      31.741  17.250   6.043  0.00  0.00     0.015 A 
ENDBRANCH   7  16
TORSDOF 1
ENDMDL
MODEL 8
REMARK VINA RESULT:      -6.3      7.185      8.656
REMARK  1 active torsions:
REMARK  status: ('A' for Active; 'I' for Inactive)
REMARK    1  A    between atoms: C_8  and  C_10 
ROOT
HETATM    1 Cl   UNK N   1      23.700  14.002   0.405  0.00  0.00    -0.084 Cl
HETATM    2  O   UNK N   1      17.941  15.904   5.720  0.00  0.00    -0.271 OA
HETATM    3  N   UNK N   1      19.009  15.246   3.887  0.00  0.00    -0.325 N 
HETATM    4  N   UNK N   1      21.025  16.972   5.306  0.00  0.00    -0.380 N 
ATOM      5  HN  UNK N   1      21.161  17.807   5.877  1.00  0.00     0.160 HD
HETATM    6  C   UNK N   1      21.375  15.793   3.194  0.00  0.00     0.020 A 
HETATM    7  C   UNK N   1      21.552  16.980   4.123  0.00  0.00     0.053 C 
HETATM    8  C   UNK N   1      20.178  15.000   3.118  0.00  0.00     0.047 A 
HETATM    9  C   UNK N   1      22.447  15.437   2.361  0.00  0.00     0.040 A 
HETATM   10  C   UNK N   1      20.268  15.902   5.889  0.00  0.00     0.223 C 
HETATM   11  C   UNK N   1      20.104  13.954   2.189  0.00  0.00     0.032 A 
HETATM   12  C   UNK N   1      19.001  15.711   5.153  0.00  0.00     0.239 C 
HETATM   13  C   UNK N   1      22.353  14.380   1.456  0.00  0.00     0.035 A 
HETATM   14  C   UNK N   1      21.179  13.643   1.365  0.00  0.00     0.026 A 
HETATM   15  H   UNK N   1      18.140  15.065   3.464  0.00  0.00     0.169 HD
ENDROOT
BRANCH   7  16
HETATM   16  C   UNK N   1      22.431  18.181   3.811  0.00  0.00     0.013 A 
HETATM   17  C   UNK N   1      23.833  18.332   4.082  0.00  0.00     0.046 A 
HETATM   18 Cl   UNK N   1      24.879  17.096   4.762  0.00  0.00    -0.083 Cl
HETATM   19  C   UNK N   1      24.488  19.513   3.705  0.00  0.00     0.025 A 
HETATM   20  C   UNK N   1      23.811  20.544   3.062  0.00  0.00     0.002 A 
HETATM   21  C   UNK N   1      22.464  20.402   2.763  0.00  0.00     0.001 A 
HETATM   22  C   UNK N   1      21.791  19.240   3.130  0.00  0.00     0.015 A 
ENDBRANCH   7  16
TORSDOF 1
ENDMDL
MODEL 9
REMARK VINA RESULT:      -6.2      4.379      6.992
REMARK  1 active torsions:
REMARK  status: ('A' for Active; 'I' for Inactive)
REMARK    1  A    between atoms: C_8  and  C_10 
ROOT
HETATM    1 Cl   UNK N   1      31.963  12.492   5.211  0.00  0.00    -0.084 Cl
HETATM    2  O   UNK N   1      35.524  17.592  10.344  0.00  0.00    -0.271 OA
HETATM    3  N   UNK N   1      34.745  15.754   9.370  0.00  0.00    -0.325 N 
HETATM    4  N   UNK N   1      33.027  17.947   8.230  0.00  0.00    -0.380 N 
ATOM      5  HN  UNK N   1      32.558  18.832   8.425  1.00  0.00     0.160 HD
HETATM    6  C   UNK N   1      32.883  15.571   7.674  0.00  0.00     0.020 A 
HETATM    7  C   UNK N   1      32.272  16.933   7.948  0.00  0.00     0.053 C 
HETATM    8  C   UNK N   1      34.044  15.058   8.350  0.00  0.00     0.047 A 
HETATM    9  C   UNK N   1      32.286  14.761   6.695  0.00  0.00     0.040 A 
HETATM   10  C   UNK N   1      34.461  17.943   8.297  0.00  0.00     0.223 C 
HETATM   11  C   UNK N   1      34.496  13.765   8.054  0.00  0.00     0.032 A 
HETATM   12  C   UNK N   1      34.919  17.090   9.414  0.00  0.00     0.239 C 
HETATM   13  C   UNK N   1      32.767  13.484   6.407  0.00  0.00     0.035 A 
HETATM   14  C   UNK N   1      33.868  12.984   7.091  0.00  0.00     0.026 A 
HETATM   15  H   UNK N   1      35.132  15.221  10.101  0.00  0.00     0.169 HD
ENDROOT
BRANCH   7  16
HETATM   16  C   UNK N   1      30.792  17.247   7.798  0.00  0.00     0.013 A 
HETATM   17  C   UNK N   1      30.075  17.523   6.585  0.00  0.00     0.046 A 
HETATM   18 Cl   UNK N   1      30.750  17.463   4.965  0.00  0.00    -0.083 Cl
HETATM   19  C   UNK N   1      28.697  17.777   6.637  0.00  0.00     0.025 A 
HETATM   20  C   UNK N   1      28.001  17.757   7.841  0.00  0.00     0.002 A 
HETATM   21  C   UNK N   1      28.671  17.460   9.019  0.00  0.00     0.001 A 
HETATM   22  C   UNK N   1      30.039  17.208   8.993  0.00  0.00     0.015 A 
ENDBRANCH   7  16
TORSDOF 1
ENDMDL
