MODEL 1
REMARK VINA RESULT:      -6.7      0.000      0.000
REMARK  3 active torsions:
REMARK  status: ('A' for Active; 'I' for Inactive)
REMARK    1  A    between atoms: C_7  and  O_2 
REMARK    2  A    between atoms: C_13  and  O_3 
REMARK    3  A    between atoms: O_4  and  C_21 
ROOT
HETATM    1  O   UNK N   1      29.009  24.960  -3.258  0.00  0.00    -0.339 OA
HETATM    2  N   UNK N   1      29.359  23.915  -8.249  0.00  0.00     0.092 N 
HETATM    3  C   UNK N   1      28.542  24.605  -5.516  0.00  0.00     0.054 C 
HETATM    4  C   UNK N   1      27.500  24.171  -6.556  0.00  0.00     0.103 C 
HETATM    5  C   UNK N   1      28.261  23.206  -7.546  0.00  0.00     0.262 C 
HETATM    6  C   UNK N   1      28.073  25.365  -4.226  0.00  0.00     0.174 C 
HETATM    7  C   UNK N   1      29.647  25.401  -6.241  0.00  0.00     0.050 C 
HETATM    8  C   UNK N   1      29.184  23.456  -4.874  0.00  0.00    -0.001 A 
HETATM    9  C   UNK N   1      26.309  23.533  -5.842  0.00  0.00     0.044 C 
HETATM   10  C   UNK N   1      26.654  24.903  -3.750  0.00  0.00     0.148 C 
HETATM   11  C   UNK N   1      28.877  21.952  -6.838  0.00  0.00     0.078 C 
HETATM   12  C   UNK N   1      25.698  24.587  -4.904  0.00  0.00     0.037 C 
HETATM   13  C   UNK N   1      30.320  24.576  -7.351  0.00  0.00     0.273 C 
HETATM   14  C   UNK N   1      29.437  22.231  -5.460  0.00  0.00    -0.046 A 
HETATM   15  C   UNK N   1      29.506  23.760  -3.603  0.00  0.00     0.110 A 
HETATM   16  C   UNK N   1      28.877  24.869  -9.241  0.00  0.00     0.310 C 
HETATM   17  C   UNK N   1      30.123  21.270  -4.697  0.00  0.00     0.011 A 
HETATM   18  C   UNK N   1      30.204  22.843  -2.812  0.00  0.00     0.099 A 
HETATM   19  C   UNK N   1      30.530  21.587  -3.375  0.00  0.00     0.040 A 
ENDROOT
BRANCH   4  20
HETATM   20  O   UNK N   1      27.012  25.286  -7.249  0.00  0.00    -0.386 OA
HETATM   21  H   UNK N   1      27.272  26.214  -7.132  0.00  0.00     0.210 HD
ENDBRANCH   4  20
BRANCH  10  22
HETATM   22  O   UNK N   1      26.707  23.790  -2.905  0.00  0.00    -0.393 OA
HETATM   23  H   UNK N   1      26.091  23.356  -2.293  0.00  0.00     0.210 HD
ENDBRANCH  10  22
BRANCH  18  24
HETATM   24  O   UNK N   1      30.531  23.133  -1.543  0.00  0.00    -0.358 OA
HETATM   25  H   UNK N   1      31.395  23.398  -1.296  0.00  0.00     0.217 HD
ENDBRANCH  18  24
TORSDOF 3
ENDMDL
MODEL 2
REMARK VINA RESULT:      -6.7     11.970     14.957
REMARK  3 active torsions:
REMARK  status: ('A' for Active; 'I' for Inactive)
REMARK    1  A    between atoms: C_7  and  O_2 
REMARK    2  A    between atoms: C_13  and  O_3 
REMARK    3  A    between atoms: O_4  and  C_21 
ROOT
HETATM    1  O   UNK N   1      29.803  15.876   5.455  0.00  0.00    -0.339 OA
HETATM    2  N   UNK N   1      33.959  15.590   8.416  0.00  0.00     0.092 N 
HETATM    3  C   UNK N   1      31.313  16.035   7.226  0.00  0.00     0.054 C 
HETATM    4  C   UNK N   1      31.751  16.819   8.470  0.00  0.00     0.103 C 
HETATM    5  C   UNK N   1      33.322  16.931   8.375  0.00  0.00     0.262 C 
HETATM    6  C   UNK N   1      29.790  15.958   6.858  0.00  0.00     0.174 C 
HETATM    7  C   UNK N   1      31.922  14.619   7.307  0.00  0.00     0.050 C 
HETATM    8  C   UNK N   1      31.808  16.651   5.992  0.00  0.00    -0.001 A 
HETATM    9  C   UNK N   1      31.023  18.162   8.502  0.00  0.00     0.044 C 
HETATM   10  C   UNK N   1      29.019  17.261   7.259  0.00  0.00     0.148 C 
HETATM   11  C   UNK N   1      33.814  17.655   7.075  0.00  0.00     0.078 C 
HETATM   12  C   UNK N   1      29.512  17.882   8.570  0.00  0.00     0.037 C 
HETATM   13  C   UNK N   1      33.457  14.654   7.397  0.00  0.00     0.273 C 
HETATM   14  C   UNK N   1      32.993  17.343   5.843  0.00  0.00    -0.046 A 
HETATM   15  C   UNK N   1      30.930  16.444   4.992  0.00  0.00     0.110 A 
HETATM   16  C   UNK N   1      33.889  14.968   9.733  0.00  0.00     0.310 C 
HETATM   17  C   UNK N   1      33.324  17.807   4.558  0.00  0.00     0.011 A 
HETATM   18  C   UNK N   1      31.224  16.872   3.694  0.00  0.00     0.099 A 
HETATM   19  C   UNK N   1      32.446  17.548   3.474  0.00  0.00     0.040 A 
ENDROOT
BRANCH   4  20
HETATM   20  O   UNK N   1      31.386  16.128   9.632  0.00  0.00    -0.386 OA
HETATM   21  H   UNK N   1      30.488  15.940   9.950  0.00  0.00     0.210 HD
ENDBRANCH   4  20
BRANCH  10  22
HETATM   22  O   UNK N   1      29.065  18.241   6.263  0.00  0.00    -0.393 OA
HETATM   23  H   UNK N   1      29.132  18.241   5.295  0.00  0.00     0.210 HD
ENDBRANCH  10  22
BRANCH  18  24
HETATM   24  O   UNK N   1      30.357  16.673   2.688  0.00  0.00    -0.358 OA
HETATM   25  H   UNK N   1      30.619  16.698   1.789  0.00  0.00     0.217 HD
ENDBRANCH  18  24
TORSDOF 3
ENDMDL
MODEL 3
REMARK VINA RESULT:      -6.5     12.352     15.044
REMARK  3 active torsions:
REMARK  status: ('A' for Active; 'I' for Inactive)
REMARK    1  A    between atoms: C_7  and  O_2 
REMARK    2  A    between atoms: C_13  and  O_3 
REMARK    3  A    between atoms: O_4  and  C_21 
ROOT
HETATM    1  O   UNK N   1      32.982  17.467   8.967  0.00  0.00    -0.339 OA
HETATM    2  N   UNK N   1      32.843  15.661   4.188  0.00  0.00     0.092 N 
HETATM    3  C   UNK N   1      32.339  16.915   6.794  0.00  0.00     0.054 C 
HETATM    4  C   UNK N   1      31.178  16.600   5.842  0.00  0.00     0.103 C 
HETATM    5  C   UNK N   1      31.641  15.347   5.001  0.00  0.00     0.262 C 
HETATM    6  C   UNK N   1      32.125  17.943   7.959  0.00  0.00     0.174 C 
HETATM    7  C   UNK N   1      33.568  17.306   5.946  0.00  0.00     0.050 C 
HETATM    8  C   UNK N   1      32.719  15.748   7.595  0.00  0.00    -0.001 A 
HETATM    9  C   UNK N   1      29.903  16.379   6.655  0.00  0.00     0.044 C 
HETATM   10  C   UNK N   1      30.660  17.912   8.514  0.00  0.00     0.148 C 
HETATM   11  C   UNK N   1      31.973  14.097   5.885  0.00  0.00     0.078 C 
HETATM   12  C   UNK N   1      29.604  17.674   7.430  0.00  0.00     0.037 C 
HETATM   13  C   UNK N   1      33.974  16.192   4.967  0.00  0.00     0.273 C 
HETATM   14  C   UNK N   1      32.646  14.428   7.199  0.00  0.00    -0.046 A 
HETATM   15  C   UNK N   1      33.163  16.146   8.802  0.00  0.00     0.110 A 
HETATM   16  C   UNK N   1      32.556  16.550   3.068  0.00  0.00     0.310 C 
HETATM   17  C   UNK N   1      33.118  13.450   8.091  0.00  0.00     0.011 A 
HETATM   18  C   UNK N   1      33.657  15.211   9.716  0.00  0.00     0.099 A 
HETATM   19  C   UNK N   1      33.650  13.846   9.346  0.00  0.00     0.040 A 
ENDROOT
BRANCH   4  20
HETATM   20  O   UNK N   1      30.938  17.689   4.993  0.00  0.00    -0.386 OA
HETATM   21  H   UNK N   1      30.888  18.627   5.236  0.00  0.00     0.210 HD
ENDBRANCH   4  20
BRANCH  10  22
HETATM   22  O   UNK N   1      30.486  16.953   9.516  0.00  0.00    -0.393 OA
HETATM   23  H   UNK N   1      30.851  16.074   9.704  0.00  0.00     0.210 HD
ENDBRANCH  10  22
BRANCH  18  24
HETATM   24  O   UNK N   1      34.102  15.593  10.923  0.00  0.00    -0.358 OA
HETATM   25  H   UNK N   1      34.965  15.933  11.055  0.00  0.00     0.217 HD
ENDBRANCH  18  24
TORSDOF 3
ENDMDL
MODEL 4
REMARK VINA RESULT:      -6.5     22.576     25.128
REMARK  3 active torsions:
REMARK  status: ('A' for Active; 'I' for Inactive)
REMARK    1  A    between atoms: C_7  and  O_2 
REMARK    2  A    between atoms: C_13  and  O_3 
REMARK    3  A    between atoms: O_4  and  C_21 
ROOT
HETATM    1  O   UNK N   1      37.046  12.750  13.433  0.00  0.00    -0.339 OA
HETATM    2  N   UNK N   1      36.294   8.678  16.428  0.00  0.00     0.092 N 
HETATM    3  C   UNK N   1      36.285  10.741  14.341  0.00  0.00     0.054 C 
HETATM    4  C   UNK N   1      35.117   9.753  14.467  0.00  0.00     0.103 C 
HETATM    5  C   UNK N   1      35.050   9.362  15.994  0.00  0.00     0.262 C 
HETATM    6  C   UNK N   1      36.480  11.538  13.004  0.00  0.00     0.174 C 
HETATM    7  C   UNK N   1      37.585  10.006  14.727  0.00  0.00     0.050 C 
HETATM    8  C   UNK N   1      36.139  11.876  15.255  0.00  0.00    -0.001 A 
HETATM    9  C   UNK N   1      33.845  10.402  13.924  0.00  0.00     0.044 C 
HETATM   10  C   UNK N   1      35.117  11.861  12.303  0.00  0.00     0.148 C 
HETATM   11  C   UNK N   1      34.826  10.592  16.939  0.00  0.00     0.078 C 
HETATM   12  C   UNK N   1      34.080  10.742  12.443  0.00  0.00     0.037 C 
HETATM   13  C   UNK N   1      37.525   9.437  16.156  0.00  0.00     0.273 C 
HETATM   14  C   UNK N   1      35.545  11.849  16.501  0.00  0.00    -0.046 A 
HETATM   15  C   UNK N   1      36.679  12.980  14.705  0.00  0.00     0.110 A 
HETATM   16  C   UNK N   1      36.418   7.328  15.889  0.00  0.00     0.310 C 
HETATM   17  C   UNK N   1      35.558  13.033  17.259  0.00  0.00     0.011 A 
HETATM   18  C   UNK N   1      36.730  14.176  15.428  0.00  0.00     0.099 A 
HETATM   19  C   UNK N   1      36.176  14.195  16.729  0.00  0.00     0.040 A 
ENDROOT
BRANCH   4  20
HETATM   20  O   UNK N   1      35.360   8.614  13.688  0.00  0.00    -0.386 OA
HETATM   21  H   UNK N   1      34.716   7.949  13.399  0.00  0.00     0.210 HD
ENDBRANCH   4  20
BRANCH  10  22
HETATM   22  O   UNK N   1      34.546  13.051  12.764  0.00  0.00    -0.393 OA
HETATM   23  H   UNK N   1      34.571  13.555  13.592  0.00  0.00     0.210 HD
ENDBRANCH  10  22
BRANCH  18  24
HETATM   24  O   UNK N   1      37.264  15.285  14.891  0.00  0.00    -0.358 OA
HETATM   25  H   UNK N   1      37.492  15.343  13.985  0.00  0.00     0.217 HD
ENDBRANCH  18  24
TORSDOF 3
ENDMDL
MODEL 5
REMARK VINA RESULT:      -6.4     11.973     13.930
REMARK  3 active torsions:
REMARK  status: ('A' for Active; 'I' for Inactive)
REMARK    1  A    between atoms: C_7  and  O_2 
REMARK    2  A    between atoms: C_13  and  O_3 
REMARK    3  A    between atoms: O_4  and  C_21 
ROOT
HETATM    1  O   UNK N   1      31.465  16.008   8.027  0.00  0.00    -0.339 OA
HETATM    2  N   UNK N   1      28.888  15.611   3.631  0.00  0.00     0.092 N 
HETATM    3  C   UNK N   1      30.863  15.961   5.774  0.00  0.00     0.054 C 
HETATM    4  C   UNK N   1      31.141  16.494   4.362  0.00  0.00     0.103 C 
HETATM    5  C   UNK N   1      29.727  16.830   3.746  0.00  0.00     0.262 C 
HETATM    6  C   UNK N   1      32.056  15.769   6.774  0.00  0.00     0.174 C 
HETATM    7  C   UNK N   1      30.050  14.656   5.647  0.00  0.00     0.050 C 
HETATM    8  C   UNK N   1      30.061  16.899   6.563  0.00  0.00    -0.001 A 
HETATM    9  C   UNK N   1      32.091  17.688   4.450  0.00  0.00     0.044 C 
HETATM   10  C   UNK N   1      33.184  16.835   6.560  0.00  0.00     0.148 C 
HETATM   11  C   UNK N   1      28.924  17.887   4.579  0.00  0.00     0.078 C 
HETATM   12  C   UNK N   1      33.403  17.203   5.089  0.00  0.00     0.037 C 
HETATM   13  C   UNK N   1      28.726  14.871   4.894  0.00  0.00     0.273 C 
HETATM   14  C   UNK N   1      29.095  17.756   6.076  0.00  0.00    -0.046 A 
HETATM   15  C   UNK N   1      30.398  16.809   7.863  0.00  0.00     0.110 A 
HETATM   16  C   UNK N   1      29.344  14.703   2.585  0.00  0.00     0.310 C 
HETATM   17  C   UNK N   1      28.385  18.538   7.005  0.00  0.00     0.011 A 
HETATM   18  C   UNK N   1      29.709  17.554   8.824  0.00  0.00     0.099 A 
HETATM   19  C   UNK N   1      28.677  18.417   8.388  0.00  0.00     0.040 A 
ENDROOT
BRANCH   4  20
HETATM   20  O   UNK N   1      31.783  15.516   3.591  0.00  0.00    -0.386 OA
HETATM   21  H   UNK N   1      32.528  14.953   3.854  0.00  0.00     0.210 HD
ENDBRANCH   4  20
BRANCH  10  22
HETATM   22  O   UNK N   1      32.955  18.012   7.279  0.00  0.00    -0.393 OA
HETATM   23  H   UNK N   1      33.465  18.551   7.905  0.00  0.00     0.210 HD
ENDBRANCH  10  22
BRANCH  18  24
HETATM   24  O   UNK N   1      30.035  17.475  10.124  0.00  0.00    -0.358 OA
HETATM   25  H   UNK N   1      29.633  16.861  10.706  0.00  0.00     0.217 HD
ENDBRANCH  18  24
TORSDOF 3
ENDMDL
MODEL 6
REMARK VINA RESULT:      -6.2     12.559     14.525
REMARK  3 active torsions:
REMARK  status: ('A' for Active; 'I' for Inactive)
REMARK    1  A    between atoms: C_7  and  O_2 
REMARK    2  A    between atoms: C_13  and  O_3 
REMARK    3  A    between atoms: O_4  and  C_21 
ROOT
HETATM    1  O   UNK N   1      30.920  16.089   8.359  0.00  0.00    -0.339 OA
HETATM    2  N   UNK N   1      32.902  15.093   3.755  0.00  0.00     0.092 N 
HETATM    3  C   UNK N   1      32.350  15.879   6.528  0.00  0.00     0.054 C 
HETATM    4  C   UNK N   1      33.576  16.432   5.789  0.00  0.00     0.103 C 
HETATM    5  C   UNK N   1      33.178  16.460   4.262  0.00  0.00     0.262 C 
HETATM    6  C   UNK N   1      32.294  15.954   8.094  0.00  0.00     0.174 C 
HETATM    7  C   UNK N   1      32.107  14.433   6.047  0.00  0.00     0.050 C 
HETATM    8  C   UNK N   1      31.139  16.646   6.226  0.00  0.00    -0.001 A 
HETATM    9  C   UNK N   1      33.943  17.797   6.371  0.00  0.00     0.044 C 
HETATM   10  C   UNK N   1      33.022  17.224   8.651  0.00  0.00     0.148 C 
HETATM   11  C   UNK N   1      31.920  17.345   3.966  0.00  0.00     0.078 C 
HETATM   12  C   UNK N   1      34.278  17.602   7.860  0.00  0.00     0.037 C 
HETATM   13  C   UNK N   1      31.886  14.359   4.526  0.00  0.00     0.273 C 
HETATM   14  C   UNK N   1      30.850  17.278   5.034  0.00  0.00    -0.046 A 
HETATM   15  C   UNK N   1      30.321  16.651   7.295  0.00  0.00     0.110 A 
HETATM   16  C   UNK N   1      34.106  14.280   3.626  0.00  0.00     0.310 C 
HETATM   17  C   UNK N   1      29.602  17.915   4.915  0.00  0.00     0.011 A 
HETATM   18  C   UNK N   1      29.064  17.256   7.219  0.00  0.00     0.099 A 
HETATM   19  C   UNK N   1      28.695  17.881   6.006  0.00  0.00     0.040 A 
ENDROOT
BRANCH   4  20
HETATM   20  O   UNK N   1      34.680  15.593   5.985  0.00  0.00    -0.386 OA
HETATM   21  H   UNK N   1      35.492  15.791   6.478  0.00  0.00     0.210 HD
ENDBRANCH   4  20
BRANCH  10  22
HETATM   22  O   UNK N   1      32.184  18.342   8.708  0.00  0.00    -0.393 OA
HETATM   23  H   UNK N   1      32.153  19.206   8.269  0.00  0.00     0.210 HD
ENDBRANCH  10  22
BRANCH  18  24
HETATM   24  O   UNK N   1      28.238  17.270   8.278  0.00  0.00    -0.358 OA
HETATM   25  H   UNK N   1      27.993  18.062   8.713  0.00  0.00     0.217 HD
ENDBRANCH  18  24
TORSDOF 3
ENDMDL
MODEL 7
REMARK VINA RESULT:      -6.0     14.727     17.245
REMARK  3 active torsions:
REMARK  status: ('A' for Active; 'I' for Inactive)
REMARK    1  A    between atoms: C_7  and  O_2 
REMARK    2  A    between atoms: C_13  and  O_3 
REMARK    3  A    between atoms: O_4  and  C_21 
ROOT
HETATM    1  O   UNK N   1      44.323  24.266   3.368  0.00  0.00    -0.339 OA
HETATM    2  N   UNK N   1      42.173  22.046  -0.702  0.00  0.00     0.092 N 
HETATM    3  C   UNK N   1      43.353  22.741   1.894  0.00  0.00     0.054 C 
HETATM    4  C   UNK N   1      43.249  21.276   1.451  0.00  0.00     0.103 C 
HETATM    5  C   UNK N   1      43.318  21.299  -0.125  0.00  0.00     0.262 C 
HETATM    6  C   UNK N   1      43.578  23.076   3.410  0.00  0.00     0.174 C 
HETATM    7  C   UNK N   1      42.125  23.500   1.349  0.00  0.00     0.050 C 
HETATM    8  C   UNK N   1      44.545  23.392   1.345  0.00  0.00    -0.001 A 
HETATM    9  C   UNK N   1      44.358  20.465   2.121  0.00  0.00     0.044 C 
HETATM   10  C   UNK N   1      44.443  21.988   4.133  0.00  0.00     0.148 C 
HETATM   11  C   UNK N   1      44.636  21.940  -0.677  0.00  0.00     0.078 C 
HETATM   12  C   UNK N   1      44.163  20.564   3.644  0.00  0.00     0.037 C 
HETATM   13  C   UNK N   1      42.027  23.416  -0.184  0.00  0.00     0.273 C 
HETATM   14  C   UNK N   1      45.137  23.119   0.128  0.00  0.00    -0.046 A 
HETATM   15  C   UNK N   1      44.999  24.321   2.208  0.00  0.00     0.110 A 
HETATM   16  C   UNK N   1      40.907  21.334  -0.575  0.00  0.00     0.310 C 
HETATM   17  C   UNK N   1      46.243  23.899  -0.252  0.00  0.00     0.011 A 
HETATM   18  C   UNK N   1      46.085  25.131   1.866  0.00  0.00     0.099 A 
HETATM   19  C   UNK N   1      46.703  24.927   0.611  0.00  0.00     0.040 A 
ENDROOT
BRANCH   4  20
HETATM   20  O   UNK N   1      42.030  20.728   1.873  0.00  0.00    -0.386 OA
HETATM   21  H   UNK N   1      41.397  21.109   2.501  0.00  0.00     0.210 HD
ENDBRANCH   4  20
BRANCH  10  22
HETATM   22  O   UNK N   1      45.815  22.231   4.022  0.00  0.00    -0.393 OA
HETATM   23  H   UNK N   1      46.607  21.963   4.514  0.00  0.00     0.210 HD
ENDBRANCH  10  22
BRANCH  18  24
HETATM   24  O   UNK N   1      46.549  26.061   2.717  0.00  0.00    -0.358 OA
HETATM   25  H   UNK N   1      47.058  26.793   2.431  0.00  0.00     0.217 HD
ENDBRANCH  18  24
TORSDOF 3
ENDMDL
MODEL 8
REMARK VINA RESULT:      -5.9     11.188     13.130
REMARK  3 active torsions:
REMARK  status: ('A' for Active; 'I' for Inactive)
REMARK    1  A    between atoms: C_7  and  O_2 
REMARK    2  A    between atoms: C_13  and  O_3 
REMARK    3  A    between atoms: O_4  and  C_21 
ROOT
HETATM    1  O   UNK N   1      25.758  17.899   3.634  0.00  0.00    -0.339 OA
HETATM    2  N   UNK N   1      30.244  16.970   5.901  0.00  0.00     0.092 N 
HETATM    3  C   UNK N   1      27.493  16.957   4.876  0.00  0.00     0.054 C 
HETATM    4  C   UNK N   1      27.882  16.086   6.078  0.00  0.00     0.103 C 
HETATM    5  C   UNK N   1      29.064  16.848   6.794  0.00  0.00     0.262 C 
HETATM    6  C   UNK N   1      26.178  16.636   4.084  0.00  0.00     0.174 C 
HETATM    7  C   UNK N   1      28.700  17.025   3.917  0.00  0.00     0.050 C 
HETATM    8  C   UNK N   1      27.179  18.331   5.278  0.00  0.00    -0.001 A 
HETATM    9  C   UNK N   1      26.653  15.859   6.957  0.00  0.00     0.044 C 
HETATM   10  C   UNK N   1      25.057  16.054   5.010  0.00  0.00     0.148 C 
HETATM   11  C   UNK N   1      28.674  18.288   7.271  0.00  0.00     0.078 C 
HETATM   12  C   UNK N   1      25.593  15.134   6.111  0.00  0.00     0.037 C 
HETATM   13  C   UNK N   1      29.952  17.598   4.602  0.00  0.00     0.273 C 
HETATM   14  C   UNK N   1      27.750  19.025   6.326  0.00  0.00    -0.046 A 
HETATM   15  C   UNK N   1      26.237  18.842   4.464  0.00  0.00     0.110 A 
HETATM   16  C   UNK N   1      30.931  15.701   5.691  0.00  0.00     0.310 C 
HETATM   17  C   UNK N   1      27.360  20.362   6.514  0.00  0.00     0.011 A 
HETATM   18  C   UNK N   1      25.830  20.172   4.603  0.00  0.00     0.099 A 
HETATM   19  C   UNK N   1      26.414  20.946   5.632  0.00  0.00     0.040 A 
ENDROOT
BRANCH   4  20
HETATM   20  O   UNK N   1      28.314  14.826   5.644  0.00  0.00    -0.386 OA
HETATM   21  H   UNK N   1      28.977  14.631   4.964  0.00  0.00     0.210 HD
ENDBRANCH   4  20
BRANCH  10  22
HETATM   22  O   UNK N   1      24.284  17.053   5.610  0.00  0.00    -0.393 OA
HETATM   23  H   UNK N   1      24.178  18.011   5.492  0.00  0.00     0.210 HD
ENDBRANCH  10  22
BRANCH  18  24
HETATM   24  O   UNK N   1      24.890  20.695   3.799  0.00  0.00    -0.358 OA
HETATM   25  H   UNK N   1      24.240  20.167   3.378  0.00  0.00     0.217 HD
ENDBRANCH  18  24
TORSDOF 3
ENDMDL
MODEL 9
REMARK VINA RESULT:      -5.9     19.093     21.633
REMARK  3 active torsions:
REMARK  status: ('A' for Active; 'I' for Inactive)
REMARK    1  A    between atoms: C_7  and  O_2 
REMARK    2  A    between atoms: C_13  and  O_3 
REMARK    3  A    between atoms: O_4  and  C_21 
ROOT
HETATM    1  O   UNK N   1      35.828  13.968  13.032  0.00  0.00    -0.339 OA
HETATM    2  N   UNK N   1      37.211  10.148   9.932  0.00  0.00     0.092 N 
HETATM    3  C   UNK N   1      36.268  12.637  11.168  0.00  0.00     0.054 C 
HETATM    4  C   UNK N   1      35.887  12.291   9.723  0.00  0.00     0.103 C 
HETATM    5  C   UNK N   1      35.868  10.714   9.652  0.00  0.00     0.262 C 
HETATM    6  C   UNK N   1      36.131  14.118  11.668  0.00  0.00     0.174 C 
HETATM    7  C   UNK N   1      37.692  12.107  11.434  0.00  0.00     0.050 C 
HETATM    8  C   UNK N   1      35.376  11.994  12.136  0.00  0.00    -0.001 A 
HETATM    9  C   UNK N   1      34.554  12.954   9.378  0.00  0.00     0.044 C 
HETATM   10  C   UNK N   1      34.934  14.864  10.985  0.00  0.00     0.148 C 
HETATM   11  C   UNK N   1      34.854  10.061  10.652  0.00  0.00     0.078 C 
HETATM   12  C   UNK N   1      34.733  14.476   9.517  0.00  0.00     0.037 C 
HETATM   13  C   UNK N   1      37.794  10.588  11.210  0.00  0.00     0.273 C 
HETATM   14  C   UNK N   1      34.758  10.769  11.986  0.00  0.00    -0.046 A 
HETATM   15  C   UNK N   1      35.238  12.776  13.223  0.00  0.00     0.110 A 
HETATM   16  C   UNK N   1      38.162  10.378   8.851  0.00  0.00     0.310 C 
HETATM   17  C   UNK N   1      33.986  10.289  13.059  0.00  0.00     0.011 A 
HETATM   18  C   UNK N   1      34.494  12.334  14.321  0.00  0.00     0.099 A 
HETATM   19  C   UNK N   1      33.875  11.065  14.242  0.00  0.00     0.040 A 
ENDROOT
BRANCH   4  20
HETATM   20  O   UNK N   1      36.841  12.802   8.834  0.00  0.00    -0.386 OA
HETATM   21  H   UNK N   1      37.661  13.272   9.054  0.00  0.00     0.210 HD
ENDBRANCH   4  20
BRANCH  10  22
HETATM   22  O   UNK N   1      33.726  14.673  11.662  0.00  0.00    -0.393 OA
HETATM   23  H   UNK N   1      33.435  14.722  12.586  0.00  0.00     0.210 HD
ENDBRANCH  10  22
BRANCH  18  24
HETATM   24  O   UNK N   1      34.348  13.104  15.411  0.00  0.00    -0.358 OA
HETATM   25  H   UNK N   1      34.919  13.040  16.151  0.00  0.00     0.217 HD
ENDBRANCH  18  24
TORSDOF 3
ENDMDL
