MODEL 1
REMARK VINA RESULT:      -7.8      0.000      0.000
REMARK  1 active torsions:
REMARK  status: ('A' for Active; 'I' for Inactive)
REMARK    1  A    between atoms: C_12  and  O_1 
ROOT
HETATM    1  O   UNK N   1      33.360  15.802   2.234  0.00  0.00    -0.157 OA
HETATM    2  N   UNK N   1      34.004  15.129   3.149  0.00  0.00    -0.244 N 
ATOM      3  HN  UNK N   1      34.668  14.368   3.003  1.00  0.00     0.196 HD
HETATM    4  N   UNK N   1      32.564  16.712   2.735  0.00  0.00    -0.244 N 
ATOM      5  HN  UNK N   1      31.959  17.352   2.221  1.00  0.00     0.196 HD
HETATM    6  C   UNK N   1      34.436  15.546  10.135  0.00  0.00     0.001 C 
HETATM    7  C   UNK N   1      35.092  14.162  10.128  0.00  0.00    -0.009 C 
HETATM    8  C   UNK N   1      34.127  16.012   8.698  0.00  0.00    -0.005 C 
HETATM    9  C   UNK N   1      33.122  14.999   8.076  0.00  0.00    -0.001 C 
HETATM   10  C   UNK N   1      32.751  15.390   6.621  0.00  0.00    -0.031 C 
HETATM   11  C   UNK N   1      35.432  13.998  11.615  0.00  0.00     0.062 C 
HETATM   12  C   UNK N   1      34.114  13.135   9.549  0.00  0.00     0.013 C 
HETATM   13  C   UNK N   1      33.684  13.554   8.134  0.00  0.00     0.007 C 
HETATM   14  C   UNK N   1      32.258  16.884   6.555  0.00  0.00     0.000 C 
HETATM   15  C   UNK N   1      35.404  16.377  10.968  0.00  0.00     0.009 C 
HETATM   16  C   UNK N   1      33.532  17.420   8.660  0.00  0.00     0.006 C 
HETATM   17  C   UNK N   1      35.999  15.376  11.984  0.00  0.00     0.038 C 
HETATM   18  C   UNK N   1      33.278  17.828   7.204  0.00  0.00     0.006 C 
HETATM   19  C   UNK N   1      33.972  15.189   5.688  0.00  0.00     0.071 C 
HETATM   20  C   UNK N   1      36.389  14.153   9.288  0.00  0.00     0.018 C 
HETATM   21  C   UNK N   1      31.620  14.468   6.148  0.00  0.00     0.016 C 
HETATM   22  C   UNK N   1      31.932  17.370   5.114  0.00  0.00     0.066 C 
HETATM   23  C   UNK N   1      36.419  12.876  11.908  0.00  0.00     0.046 C 
HETATM   24  C   UNK N   1      33.609  15.646   4.321  0.00  0.00     0.059 A 
HETATM   25  C   UNK N   1      32.709  16.627   4.066  0.00  0.00     0.059 A 
ENDROOT
BRANCH  11  26
HETATM   26  O   UNK N   1      34.272  13.776  12.366  0.00  0.00    -0.389 OA
HETATM   27  H   UNK N   1      33.651  13.646  13.100  0.00  0.00     0.210 HD
ENDBRANCH  11  26
TORSDOF 1
ENDMDL
MODEL 2
REMARK VINA RESULT:      -7.7      6.957      9.783
REMARK  1 active torsions:
REMARK  status: ('A' for Active; 'I' for Inactive)
REMARK    1  A    between atoms: C_12  and  O_1 
ROOT
HETATM    1  O   UNK N   1      38.057  12.386  11.304  0.00  0.00    -0.157 OA
HETATM    2  N   UNK N   1      38.001  11.474  12.237  0.00  0.00    -0.244 N 
ATOM      3  HN  UNK N   1      38.454  10.560  12.236  1.00  0.00     0.196 HD
HETATM    4  N   UNK N   1      37.354  13.452  11.589  0.00  0.00    -0.244 N 
ATOM      5  HN  UNK N   1      37.242  14.288  11.015  1.00  0.00     0.196 HD
HETATM    6  C   UNK N   1      35.080  11.163  18.605  0.00  0.00     0.001 C 
HETATM    7  C   UNK N   1      35.315   9.651  18.585  0.00  0.00    -0.009 C 
HETATM    8  C   UNK N   1      35.624  11.819  17.319  0.00  0.00    -0.005 C 
HETATM    9  C   UNK N   1      34.842  11.219  16.114  0.00  0.00    -0.001 C 
HETATM   10  C   UNK N   1      35.324  11.823  14.768  0.00  0.00    -0.031 C 
HETATM   11  C   UNK N   1      34.845   9.268  19.994  0.00  0.00     0.062 C 
HETATM   12  C   UNK N   1      34.532   9.026  17.427  0.00  0.00     0.013 C 
HETATM   13  C   UNK N   1      34.951   9.672  16.096  0.00  0.00     0.007 C 
HETATM   14  C   UNK N   1      35.287  13.397  14.821  0.00  0.00     0.000 C 
HETATM   15  C   UNK N   1      35.688  11.585  19.938  0.00  0.00     0.009 C 
HETATM   16  C   UNK N   1      35.468  13.340  17.331  0.00  0.00     0.006 C 
HETATM   17  C   UNK N   1      35.465  10.369  20.866  0.00  0.00     0.038 C 
HETATM   18  C   UNK N   1      36.053  13.923  16.041  0.00  0.00     0.006 C 
HETATM   19  C   UNK N   1      36.759  11.333  14.449  0.00  0.00     0.071 C 
HETATM   20  C   UNK N   1      36.814   9.311  18.422  0.00  0.00     0.018 C 
HETATM   21  C   UNK N   1      34.384  11.337  13.658  0.00  0.00     0.016 C 
HETATM   22  C   UNK N   1      35.823  14.076  13.529  0.00  0.00     0.066 C 
HETATM   23  C   UNK N   1      35.275   7.876  20.438  0.00  0.00     0.046 C 
HETATM   24  C   UNK N   1      37.220  11.990  13.198  0.00  0.00     0.059 A 
HETATM   25  C   UNK N   1      36.812  13.218  12.794  0.00  0.00     0.059 A 
ENDROOT
BRANCH  11  26
HETATM   26  O   UNK N   1      33.451   9.354  20.090  0.00  0.00    -0.389 OA
HETATM   27  H   UNK N   1      32.551   9.575  20.378  0.00  0.00     0.210 HD
ENDBRANCH  11  26
TORSDOF 1
ENDMDL
MODEL 3
REMARK VINA RESULT:      -7.6      4.335      6.100
REMARK  1 active torsions:
REMARK  status: ('A' for Active; 'I' for Inactive)
REMARK    1  A    between atoms: C_12  and  O_1 
ROOT
HETATM    1  O   UNK N   1      24.453  15.934   6.080  0.00  0.00    -0.157 OA
HETATM    2  N   UNK N   1      25.538  15.688   6.764  0.00  0.00    -0.244 N 
ATOM      3  HN  UNK N   1      25.610  15.181   7.647  1.00  0.00     0.196 HD
HETATM    4  N   UNK N   1      24.681  16.623   4.991  0.00  0.00    -0.244 N 
ATOM      5  HN  UNK N   1      23.994  16.937   4.305  1.00  0.00     0.196 HD
HETATM    6  C   UNK N   1      32.363  16.908   5.718  0.00  0.00     0.001 C 
HETATM    7  C   UNK N   1      32.600  16.571   7.193  0.00  0.00    -0.009 C 
HETATM    8  C   UNK N   1      30.873  16.751   5.352  0.00  0.00    -0.005 C 
HETATM    9  C   UNK N   1      30.064  17.759   6.219  0.00  0.00    -0.001 C 
HETATM   10  C   UNK N   1      28.544  17.673   5.918  0.00  0.00    -0.031 C 
HETATM   11  C   UNK N   1      34.130  16.648   7.264  0.00  0.00     0.062 C 
HETATM   12  C   UNK N   1      31.839  17.567   8.074  0.00  0.00     0.013 C 
HETATM   13  C   UNK N   1      30.341  17.541   7.730  0.00  0.00     0.007 C 
HETATM   14  C   UNK N   1      28.275  17.815   4.372  0.00  0.00     0.000 C 
HETATM   15  C   UNK N   1      33.377  16.023   5.001  0.00  0.00     0.009 C 
HETATM   16  C   UNK N   1      30.608  17.014   3.870  0.00  0.00     0.006 C 
HETATM   17  C   UNK N   1      34.563  15.916   5.985  0.00  0.00     0.038 C 
HETATM   18  C   UNK N   1      29.118  16.813   3.574  0.00  0.00     0.006 C 
HETATM   19  C   UNK N   1      27.974  16.329   6.438  0.00  0.00     0.071 C 
HETATM   20  C   UNK N   1      32.129  15.138   7.530  0.00  0.00     0.018 C 
HETATM   21  C   UNK N   1      27.841  18.819   6.655  0.00  0.00     0.016 C 
HETATM   22  C   UNK N   1      26.776  17.668   3.985  0.00  0.00     0.066 C 
HETATM   23  C   UNK N   1      34.728  16.017   8.515  0.00  0.00     0.046 C 
HETATM   24  C   UNK N   1      26.538  16.243   6.064  0.00  0.00     0.059 A 
HETATM   25  C   UNK N   1      26.006  16.829   4.964  0.00  0.00     0.059 A 
ENDROOT
BRANCH  11  26
HETATM   26  O   UNK N   1      34.563  17.977   7.187  0.00  0.00    -0.389 OA
HETATM   27  H   UNK N   1      34.693  18.897   6.909  0.00  0.00     0.210 HD
ENDBRANCH  11  26
TORSDOF 1
ENDMDL
MODEL 4
REMARK VINA RESULT:      -7.5      7.876     11.832
REMARK  1 active torsions:
REMARK  status: ('A' for Active; 'I' for Inactive)
REMARK    1  A    between atoms: C_12  and  O_1 
ROOT
HETATM    1  O   UNK N   1      33.116   8.192  20.664  0.00  0.00    -0.157 OA
HETATM    2  N   UNK N   1      33.236   8.179  19.363  0.00  0.00    -0.244 N 
ATOM      3  HN  UNK N   1      32.847   7.495  18.714  1.00  0.00     0.196 HD
HETATM    4  N   UNK N   1      33.744   9.195  21.225  0.00  0.00    -0.244 N 
ATOM      5  HN  UNK N   1      33.797   9.408  22.220  1.00  0.00     0.196 HD
HETATM    6  C   UNK N   1      36.178  12.487  14.678  0.00  0.00     0.001 C 
HETATM    7  C   UNK N   1      36.048  11.369  13.641  0.00  0.00    -0.009 C 
HETATM    8  C   UNK N   1      35.589  12.048  16.034  0.00  0.00    -0.005 C 
HETATM    9  C   UNK N   1      36.409  10.823  16.533  0.00  0.00    -0.001 C 
HETATM   10  C   UNK N   1      35.885  10.308  17.899  0.00  0.00    -0.031 C 
HETATM   11  C   UNK N   1      36.546  12.087  12.380  0.00  0.00     0.062 C 
HETATM   12  C   UNK N   1      36.871  10.158  14.089  0.00  0.00     0.013 C 
HETATM   13  C   UNK N   1      36.407   9.687  15.476  0.00  0.00     0.007 C 
HETATM   14  C   UNK N   1      35.813  11.484  18.945  0.00  0.00     0.000 C 
HETATM   15  C   UNK N   1      35.544  13.681  13.972  0.00  0.00     0.009 C 
HETATM   16  C   UNK N   1      35.639  13.164  17.078  0.00  0.00     0.006 C 
HETATM   17  C   UNK N   1      35.851  13.453  12.475  0.00  0.00     0.038 C 
HETATM   18  C   UNK N   1      35.013  12.667  18.386  0.00  0.00     0.006 C 
HETATM   19  C   UNK N   1      34.487   9.663  17.724  0.00  0.00     0.071 C 
HETATM   20  C   UNK N   1      34.576  10.936  13.453  0.00  0.00     0.018 C 
HETATM   21  C   UNK N   1      36.855   9.239  18.415  0.00  0.00     0.016 C 
HETATM   22  C   UNK N   1      35.230  11.058  20.322  0.00  0.00     0.066 C 
HETATM   23  C   UNK N   1      36.214  11.365  11.080  0.00  0.00     0.046 C 
HETATM   24  C   UNK N   1      33.980   9.253  19.060  0.00  0.00     0.059 A 
HETATM   25  C   UNK N   1      34.301   9.882  20.217  0.00  0.00     0.059 A 
ENDROOT
BRANCH  11  26
HETATM   26  O   UNK N   1      37.930  12.284  12.436  0.00  0.00    -0.389 OA
HETATM   27  H   UNK N   1      38.890  12.148  12.400  0.00  0.00     0.210 HD
ENDBRANCH  11  26
TORSDOF 1
ENDMDL
MODEL 5
REMARK VINA RESULT:      -7.3      3.670      6.337
REMARK  1 active torsions:
REMARK  status: ('A' for Active; 'I' for Inactive)
REMARK    1  A    between atoms: C_12  and  O_1 
ROOT
HETATM    1  O   UNK N   1      34.395  17.126   8.916  0.00  0.00    -0.157 OA
HETATM    2  N   UNK N   1      34.465  16.889  10.199  0.00  0.00    -0.244 N 
ATOM      3  HN  UNK N   1      34.354  17.561  10.958  1.00  0.00     0.196 HD
HETATM    4  N   UNK N   1      34.598  16.057   8.188  0.00  0.00    -0.244 N 
ATOM      5  HN  UNK N   1      34.598  15.997   7.170  1.00  0.00     0.196 HD
HETATM    6  C   UNK N   1      35.310  11.101  14.066  0.00  0.00     0.001 C 
HETATM    7  C   UNK N   1      35.594  12.005  15.269  0.00  0.00    -0.009 C 
HETATM    8  C   UNK N   1      34.989  11.941  12.813  0.00  0.00    -0.005 C 
HETATM    9  C   UNK N   1      36.242  12.806  12.488  0.00  0.00    -0.001 C 
HETATM   10  C   UNK N   1      36.011  13.690  11.235  0.00  0.00    -0.031 C 
HETATM   11  C   UNK N   1      35.724  10.963  16.387  0.00  0.00     0.062 C 
HETATM   12  C   UNK N   1      36.842  12.848  14.992  0.00  0.00     0.013 C 
HETATM   13  C   UNK N   1      36.649  13.673  13.709  0.00  0.00     0.007 C 
HETATM   14  C   UNK N   1      35.519  12.815  10.020  0.00  0.00     0.000 C 
HETATM   15  C   UNK N   1      34.234  10.159  14.595  0.00  0.00     0.009 C 
HETATM   16  C   UNK N   1      34.634  11.072  11.606  0.00  0.00     0.006 C 
HETATM   17  C   UNK N   1      34.553  10.013  16.100  0.00  0.00     0.038 C 
HETATM   18  C   UNK N   1      34.300  11.971  10.411  0.00  0.00     0.006 C 
HETATM   19  C   UNK N   1      34.974  14.798  11.549  0.00  0.00     0.071 C 
HETATM   20  C   UNK N   1      34.404  12.947  15.564  0.00  0.00     0.018 C 
HETATM   21  C   UNK N   1      37.341  14.358  10.864  0.00  0.00     0.016 C 
HETATM   22  C   UNK N   1      35.199  13.644   8.744  0.00  0.00     0.066 C 
HETATM   23  C   UNK N   1      35.657  11.546  17.792  0.00  0.00     0.046 C 
HETATM   24  C   UNK N   1      34.716  15.576  10.309  0.00  0.00     0.059 A 
HETATM   25  C   UNK N   1      34.804  15.059   9.059  0.00  0.00     0.059 A 
ENDROOT
BRANCH  11  26
HETATM   26  O   UNK N   1      36.921  10.249  16.260  0.00  0.00    -0.389 OA
HETATM   27  H   UNK N   1      37.572   9.545  16.111  0.00  0.00     0.210 HD
ENDBRANCH  11  26
TORSDOF 1
ENDMDL
MODEL 6
REMARK VINA RESULT:      -7.2      2.353      3.426
REMARK  1 active torsions:
REMARK  status: ('A' for Active; 'I' for Inactive)
REMARK    1  A    between atoms: C_12  and  O_1 
ROOT
HETATM    1  O   UNK N   1      29.321  17.394   6.400  0.00  0.00    -0.157 OA
HETATM    2  N   UNK N   1      29.926  16.766   7.372  0.00  0.00    -0.244 N 
ATOM      3  HN  UNK N   1      29.517  16.448   8.251  1.00  0.00     0.196 HD
HETATM    4  N   UNK N   1      30.120  17.686   5.405  0.00  0.00    -0.244 N 
ATOM      5  HN  UNK N   1      29.878  18.176   4.544  1.00  0.00     0.196 HD
HETATM    6  C   UNK N   1      36.415  14.275   8.296  0.00  0.00     0.001 C 
HETATM    7  C   UNK N   1      36.092  14.121   9.785  0.00  0.00    -0.009 C 
HETATM    8  C   UNK N   1      35.194  14.812   7.523  0.00  0.00    -0.005 C 
HETATM    9  C   UNK N   1      34.850  16.218   8.095  0.00  0.00    -0.001 C 
HETATM   10  C   UNK N   1      33.626  16.840   7.374  0.00  0.00    -0.031 C 
HETATM   11  C   UNK N   1      37.373  13.445  10.290  0.00  0.00     0.062 C 
HETATM   12  C   UNK N   1      35.779  15.494  10.385  0.00  0.00     0.013 C 
HETATM   13  C   UNK N   1      34.614  16.150   9.627  0.00  0.00     0.007 C 
HETATM   14  C   UNK N   1      33.838  16.832   5.813  0.00  0.00     0.000 C 
HETATM   15  C   UNK N   1      36.955  12.899   7.922  0.00  0.00     0.009 C 
HETATM   16  C   UNK N   1      35.457  14.915   6.020  0.00  0.00     0.006 C 
HETATM   17  C   UNK N   1      37.646  12.391   9.207  0.00  0.00     0.038 C 
HETATM   18  C   UNK N   1      34.196  15.426   5.315  0.00  0.00     0.006 C 
HETATM   19  C   UNK N   1      32.338  16.060   7.742  0.00  0.00     0.071 C 
HETATM   20  C   UNK N   1      34.882  13.185  10.009  0.00  0.00     0.018 C 
HETATM   21  C   UNK N   1      33.472  18.290   7.850  0.00  0.00     0.016 C 
HETATM   22  C   UNK N   1      32.619  17.378   5.016  0.00  0.00     0.066 C 
HETATM   23  C   UNK N   1      37.246  12.825  11.674  0.00  0.00     0.046 C 
HETATM   24  C   UNK N   1      31.199  16.630   6.975  0.00  0.00     0.059 A 
HETATM   25  C   UNK N   1      31.323  17.206   5.754  0.00  0.00     0.059 A 
ENDROOT
BRANCH  11  26
HETATM   26  O   UNK N   1      38.437  14.355  10.307  0.00  0.00    -0.389 OA
HETATM   27  H   UNK N   1      39.324  14.748  10.285  0.00  0.00     0.210 HD
ENDBRANCH  11  26
TORSDOF 1
ENDMDL
MODEL 7
REMARK VINA RESULT:      -7.1      3.350      7.069
REMARK  1 active torsions:
REMARK  status: ('A' for Active; 'I' for Inactive)
REMARK    1  A    between atoms: C_12  and  O_1 
ROOT
HETATM    1  O   UNK N   1      35.718  14.012   8.756  0.00  0.00    -0.157 OA
HETATM    2  N   UNK N   1      34.766  13.824   7.881  0.00  0.00    -0.244 N 
ATOM      3  HN  UNK N   1      34.628  13.009   7.284  1.00  0.00     0.196 HD
HETATM    4  N   UNK N   1      35.636  15.171   9.359  0.00  0.00    -0.244 N 
ATOM      5  HN  UNK N   1      36.265  15.540  10.072  1.00  0.00     0.196 HD
HETATM    6  C   UNK N   1      29.098  17.477   5.960  0.00  0.00     0.001 C 
HETATM    7  C   UNK N   1      28.988  16.569   4.732  0.00  0.00    -0.009 C 
HETATM    8  C   UNK N   1      30.284  17.055   6.850  0.00  0.00    -0.005 C 
HETATM    9  C   UNK N   1      31.586  17.209   6.011  0.00  0.00    -0.001 C 
HETATM   10  C   UNK N   1      32.840  16.803   6.830  0.00  0.00    -0.031 C 
HETATM   11  C   UNK N   1      27.682  17.080   4.112  0.00  0.00     0.062 C 
HETATM   12  C   UNK N   1      30.244  16.722   3.869  0.00  0.00     0.013 C 
HETATM   13  C   UNK N   1      31.497  16.393   4.695  0.00  0.00     0.007 C 
HETATM   14  C   UNK N   1      32.881  17.577   8.203  0.00  0.00     0.000 C 
HETATM   15  C   UNK N   1      27.695  17.417   6.554  0.00  0.00     0.009 C 
HETATM   16  C   UNK N   1      30.385  17.898   8.122  0.00  0.00     0.006 C 
HETATM   17  C   UNK N   1      26.765  17.230   5.334  0.00  0.00     0.038 C 
HETATM   18  C   UNK N   1      31.563  17.405   8.969  0.00  0.00     0.006 C 
HETATM   19  C   UNK N   1      32.841  15.274   7.079  0.00  0.00     0.071 C 
HETATM   20  C   UNK N   1      28.832  15.085   5.137  0.00  0.00     0.018 C 
HETATM   21  C   UNK N   1      34.086  17.166   6.014  0.00  0.00     0.016 C 
HETATM   22  C   UNK N   1      34.076  17.170   9.111  0.00  0.00     0.066 C 
HETATM   23  C   UNK N   1      27.087  16.152   3.061  0.00  0.00     0.046 C 
HETATM   24  C   UNK N   1      34.009  14.930   7.931  0.00  0.00     0.059 A 
HETATM   25  C   UNK N   1      34.552  15.770   8.846  0.00  0.00     0.059 A 
ENDROOT
BRANCH  11  26
HETATM   26  O   UNK N   1      27.870  18.341   3.535  0.00  0.00    -0.389 OA
HETATM   27  H   UNK N   1      28.219  19.218   3.311  0.00  0.00     0.210 HD
ENDBRANCH  11  26
TORSDOF 1
ENDMDL
MODEL 8
REMARK VINA RESULT:      -6.9     13.839     17.304
REMARK  1 active torsions:
REMARK  status: ('A' for Active; 'I' for Inactive)
REMARK    1  A    between atoms: C_12  and  O_1 
ROOT
HETATM    1  O   UNK N   1      34.836  22.004  -4.825  0.00  0.00    -0.157 OA
HETATM    2  N   UNK N   1      33.997  23.005  -4.873  0.00  0.00    -0.244 N 
ATOM      3  HN  UNK N   1      34.200  23.989  -4.699  1.00  0.00     0.196 HD
HETATM    4  N   UNK N   1      34.272  20.852  -5.083  0.00  0.00    -0.244 N 
ATOM      5  HN  UNK N   1      34.721  19.936  -5.098  1.00  0.00     0.196 HD
HETATM    6  C   UNK N   1      27.224  23.632  -6.576  0.00  0.00     0.001 C 
HETATM    7  C   UNK N   1      27.247  25.029  -5.950  0.00  0.00    -0.009 C 
HETATM    8  C   UNK N   1      28.618  22.976  -6.502  0.00  0.00    -0.005 C 
HETATM    9  C   UNK N   1      28.995  22.831  -4.999  0.00  0.00    -0.001 C 
HETATM   10  C   UNK N   1      30.391  22.177  -4.825  0.00  0.00    -0.031 C 
HETATM   11  C   UNK N   1      25.830  25.515  -6.281  0.00  0.00     0.062 C 
HETATM   12  C   UNK N   1      27.585  24.917  -4.461  0.00  0.00     0.013 C 
HETATM   13  C   UNK N   1      28.933  24.203  -4.277  0.00  0.00     0.007 C 
HETATM   14  C   UNK N   1      30.474  20.824  -5.627  0.00  0.00     0.000 C 
HETATM   15  C   UNK N   1      26.622  23.886  -7.953  0.00  0.00     0.009 C 
HETATM   16  C   UNK N   1      28.652  21.605  -7.178  0.00  0.00     0.006 C 
HETATM   17  C   UNK N   1      25.654  25.072  -7.740  0.00  0.00     0.038 C 
HETATM   18  C   UNK N   1      30.069  21.028  -7.092  0.00  0.00     0.006 C 
HETATM   19  C   UNK N   1      31.498  23.150  -5.303  0.00  0.00     0.071 C 
HETATM   20  C   UNK N   1      28.288  25.942  -6.637  0.00  0.00     0.018 C 
HETATM   21  C   UNK N   1      30.605  21.889  -3.334  0.00  0.00     0.016 C 
HETATM   22  C   UNK N   1      31.870  20.143  -5.556  0.00  0.00     0.066 C 
HETATM   23  C   UNK N   1      25.630  27.015  -6.110  0.00  0.00     0.046 C 
HETATM   24  C   UNK N   1      32.814  22.466  -5.199  0.00  0.00     0.059 A 
HETATM   25  C   UNK N   1      32.981  21.127  -5.323  0.00  0.00     0.059 A 
ENDROOT
BRANCH  11  26
HETATM   26  O   UNK N   1      24.883  24.849  -5.493  0.00  0.00    -0.389 OA
HETATM   27  H   UNK N   1      24.148  24.288  -5.200  0.00  0.00     0.210 HD
ENDBRANCH  11  26
TORSDOF 1
ENDMDL
MODEL 9
REMARK VINA RESULT:      -6.7      2.923      6.724
REMARK  1 active torsions:
REMARK  status: ('A' for Active; 'I' for Inactive)
REMARK    1  A    between atoms: C_12  and  O_1 
ROOT
HETATM    1  O   UNK N   1      34.949  13.202  12.739  0.00  0.00    -0.157 OA
HETATM    2  N   UNK N   1      34.376  12.884  11.609  0.00  0.00    -0.244 N 
ATOM      3  HN  UNK N   1      33.913  12.005  11.378  1.00  0.00     0.196 HD
HETATM    4  N   UNK N   1      35.471  14.403  12.727  0.00  0.00    -0.244 N 
ATOM      5  HN  UNK N   1      35.972  14.864  13.486  1.00  0.00     0.196 HD
HETATM    6  C   UNK N   1      33.136  16.311   5.619  0.00  0.00     0.001 C 
HETATM    7  C   UNK N   1      32.802  14.963   4.974  0.00  0.00    -0.009 C 
HETATM    8  C   UNK N   1      33.484  16.133   7.110  0.00  0.00    -0.005 C 
HETATM    9  C   UNK N   1      34.745  15.225   7.198  0.00  0.00    -0.001 C 
HETATM   10  C   UNK N   1      35.172  14.988   8.671  0.00  0.00    -0.031 C 
HETATM   11  C   UNK N   1      32.352  15.415   3.579  0.00  0.00     0.062 C 
HETATM   12  C   UNK N   1      34.035  14.056   5.017  0.00  0.00     0.013 C 
HETATM   13  C   UNK N   1      34.509  13.876   6.468  0.00  0.00     0.007 C 
HETATM   14  C   UNK N   1      35.331  16.360   9.430  0.00  0.00     0.000 C 
HETATM   15  C   UNK N   1      31.928  17.168   5.260  0.00  0.00     0.009 C 
HETATM   16  C   UNK N   1      33.758  17.467   7.806  0.00  0.00     0.006 C 
HETATM   17  C   UNK N   1      31.463  16.627   3.889  0.00  0.00     0.038 C 
HETATM   18  C   UNK N   1      34.067  17.216   9.286  0.00  0.00     0.006 C 
HETATM   19  C   UNK N   1      34.128  14.098   9.391  0.00  0.00     0.071 C 
HETATM   20  C   UNK N   1      31.633  14.260   5.700  0.00  0.00     0.018 C 
HETATM   21  C   UNK N   1      36.520  14.257   8.671  0.00  0.00     0.016 C 
HETATM   22  C   UNK N   1      35.691  16.201  10.935  0.00  0.00     0.066 C 
HETATM   23  C   UNK N   1      31.609  14.347   2.787  0.00  0.00     0.046 C 
HETATM   24  C   UNK N   1      34.524  13.956  10.817  0.00  0.00     0.059 A 
HETATM   25  C   UNK N   1      35.210  14.899  11.509  0.00  0.00     0.059 A 
ENDROOT
BRANCH  11  26
HETATM   26  O   UNK N   1      33.448  15.846   2.821  0.00  0.00    -0.389 OA
HETATM   27  H   UNK N   1      34.220  15.870   2.234  0.00  0.00     0.210 HD
ENDBRANCH  11  26
TORSDOF 1
ENDMDL
