REMARK  1 active torsions:
REMARK  status: ('A' for Active; 'I' for Inactive)
REMARK    1  A    between atoms: C_12  and  O_1 
ROOT
HETATM    1  O   UNK N   1      -0.506   1.175  -1.375  0.00  0.00    -0.157 OA
HETATM    2  N   UNK N   1       0.476   0.330  -1.543  0.00  0.00    -0.244 N 
ATOM      3  HN  UNK N   1       0.435  -0.581  -2.000  1.00  0.00     0.196 HD
HETATM    4  N   UNK N   1      -0.144   2.258  -0.735  0.00  0.00    -0.244 N 
ATOM      5  HN  UNK N   1      -0.734   3.051  -0.484  1.00  0.00     0.196 HD
HETATM    6  C   UNK N   1       7.340   0.460  -0.116  0.00  0.00     0.001 C 
HETATM    7  C   UNK N   1       7.371  -1.050  -0.366  0.00  0.00    -0.009 C 
HETATM    8  C   UNK N   1       5.924   1.025  -0.349  0.00  0.00    -0.005 C 
HETATM    9  C   UNK N   1       4.967   0.342   0.671  0.00  0.00    -0.001 C 
HETATM   10  C   UNK N   1       3.510   0.851   0.510  0.00  0.00    -0.031 C 
HETATM   11  C   UNK N   1       8.872  -1.334  -0.227  0.00  0.00     0.062 C 
HETATM   12  C   UNK N   1       6.461  -1.755   0.644  0.00  0.00     0.013 C 
HETATM   13  C   UNK N   1       5.030  -1.203   0.542  0.00  0.00     0.007 C 
HETATM   14  C   UNK N   1       3.463   2.425   0.561  0.00  0.00     0.000 C 
HETATM   15  C   UNK N   1       8.473   0.974  -0.997  0.00  0.00     0.009 C 
HETATM   16  C   UNK N   1       5.868   2.543  -0.174  0.00  0.00     0.006 C 
HETATM   17  C   UNK N   1       9.507  -0.174  -1.007  0.00  0.00     0.038 C 
HETATM   18  C   UNK N   1       4.443   3.036  -0.448  0.00  0.00     0.006 C 
HETATM   19  C   UNK N   1       2.913   0.342  -0.826  0.00  0.00     0.071 C 
HETATM   20  C   UNK N   1       6.901  -1.398  -1.797  0.00  0.00     0.018 C 
HETATM   21  C   UNK N   1       2.673   0.288   1.665  0.00  0.00     0.016 C 
HETATM   22  C   UNK N   1       2.041   3.013   0.337  0.00  0.00     0.066 C 
HETATM   23  C   UNK N   1       9.302  -2.691  -0.768  0.00  0.00     0.046 C 
HETATM   24  C   UNK N   1       1.549   0.911  -0.987  0.00  0.00     0.059 A 
HETATM   25  C   UNK N   1       1.164   2.107  -0.479  0.00  0.00     0.059 A 
ENDROOT
BRANCH  11  26
HETATM   26  O   UNK N   1       9.270  -1.244   1.112  0.00  0.00    -0.389 OA
HETATM   27  H   UNK N   1       9.462  -1.451   2.040  0.00  0.00     0.210 HD
ENDBRANCH  11  26
TORSDOF 1
