MODEL 1
REMARK VINA RESULT:      -6.6      0.000      0.000
REMARK  5 active torsions:
REMARK  status: ('A' for Active; 'I' for Inactive)
REMARK    1  A    between atoms: C_12  and  O_1 
REMARK    2  A    between atoms: O_1  and  C_15 
REMARK    3  A    between atoms: O_2  and  C_14 
REMARK    4  A    between atoms: C_8  and  C_14 
REMARK    5  A    between atoms: C_15  and  C_16 
ROOT
HETATM    1  N   UNK N   1      35.841   9.711  12.148  0.00  0.00     0.094 N 
HETATM    2  C   UNK N   1      35.768  11.011  11.472  0.00  0.00     0.239 C 
HETATM    3  C   UNK N   1      34.487   9.556  12.691  0.00  0.00     0.225 C 
HETATM    4  C   UNK N   1      35.758  12.183  12.502  0.00  0.00     0.146 C 
HETATM    5  C   UNK N   1      34.443  10.927  10.714  0.00  0.00     0.039 C 
HETATM    6  C   UNK N   1      33.589   9.964  11.532  0.00  0.00     0.038 C 
HETATM    7  C   UNK N   1      34.246  10.483  13.911  0.00  0.00     0.069 C 
HETATM    8  C   UNK N   1      34.777  11.898  13.646  0.00  0.00     0.150 C 
HETATM    9  C   UNK N   1      36.899   9.607  13.155  0.00  0.00     0.310 C 
ENDROOT
BRANCH   8  10
HETATM   10  O   UNK N   1      34.629  12.897  14.590  0.00  0.00    -0.311 OA
BRANCH  10  11
HETATM   11  C   UNK N   1      35.536  13.341  15.487  0.00  0.00     0.293 C 
HETATM   12  O   UNK N   1      36.359  14.208  15.183  0.00  0.00    -0.259 OA
BRANCH  11  13
HETATM   13  C   UNK N   1      35.500  12.800  16.860  0.00  0.00     0.039 A 
HETATM   14  C   UNK N   1      35.757  11.430  17.058  0.00  0.00     0.017 A 
HETATM   15  C   UNK N   1      35.683  10.874  18.336  0.00  0.00     0.001 A 
HETATM   16  C   UNK N   1      35.352  11.678  19.430  0.00  0.00     0.000 A 
HETATM   17  C   UNK N   1      35.101  13.041  19.243  0.00  0.00     0.001 A 
HETATM   18  C   UNK N   1      35.171  13.599  17.961  0.00  0.00     0.017 A 
ENDBRANCH  11  13
ENDBRANCH  10  11
ENDBRANCH   8  10
BRANCH   4  19
HETATM   19  C   UNK N   1      35.456  13.552  11.911  0.00  0.00     0.148 C 
HETATM   20  O   UNK N   1      36.330  14.220  11.382  0.00  0.00    -0.650 OA
BRANCH  19  21
HETATM   21  O   UNK N   1      34.196  14.027  11.947  0.00  0.00    -0.776 OA
HETATM   22  H   UNK N   1      33.507  13.562  11.515  0.00  0.00     0.167 HD
ENDBRANCH  19  21
ENDBRANCH   4  19
TORSDOF 5
ENDMDL
MODEL 2
REMARK VINA RESULT:      -6.5      5.219      8.796
REMARK  5 active torsions:
REMARK  status: ('A' for Active; 'I' for Inactive)
REMARK    1  A    between atoms: C_12  and  O_1 
REMARK    2  A    between atoms: O_1  and  C_15 
REMARK    3  A    between atoms: O_2  and  C_14 
REMARK    4  A    between atoms: C_8  and  C_14 
REMARK    5  A    between atoms: C_15  and  C_16 
ROOT
HETATM    1  N   UNK N   1      36.489  14.076  10.140  0.00  0.00     0.094 N 
HETATM    2  C   UNK N   1      35.071  13.715  10.026  0.00  0.00     0.239 C 
HETATM    3  C   UNK N   1      36.477  15.095  11.195  0.00  0.00     0.225 C 
HETATM    4  C   UNK N   1      34.260  14.835   9.304  0.00  0.00     0.146 C 
HETATM    5  C   UNK N   1      34.638  13.568  11.485  0.00  0.00     0.039 C 
HETATM    6  C   UNK N   1      35.570  14.494  12.260  0.00  0.00     0.038 C 
HETATM    7  C   UNK N   1      35.894  16.441  10.689  0.00  0.00     0.069 C 
HETATM    8  C   UNK N   1      34.620  16.218   9.863  0.00  0.00     0.150 C 
HETATM    9  C   UNK N   1      37.105  14.524   8.889  0.00  0.00     0.310 C 
ENDROOT
BRANCH   8  10
HETATM   10  O   UNK N   1      33.915  17.290   9.348  0.00  0.00    -0.311 OA
BRANCH  10  11
HETATM   11  C   UNK N   1      34.088  17.913   8.162  0.00  0.00     0.293 C 
HETATM   12  O   UNK N   1      35.009  18.715   7.995  0.00  0.00    -0.259 OA
BRANCH  11  13
HETATM   13  C   UNK N   1      33.177  17.583   7.047  0.00  0.00     0.039 A 
HETATM   14  C   UNK N   1      33.697  17.516   5.742  0.00  0.00     0.017 A 
HETATM   15  C   UNK N   1      32.856  17.256   4.658  0.00  0.00     0.001 A 
HETATM   16  C   UNK N   1      31.488  17.061   4.867  0.00  0.00     0.000 A 
HETATM   17  C   UNK N   1      30.964  17.121   6.162  0.00  0.00     0.001 A 
HETATM   18  C   UNK N   1      31.806  17.385   7.249  0.00  0.00     0.017 A 
ENDBRANCH  11  13
ENDBRANCH  10  11
ENDBRANCH   8  10
BRANCH   4  19
HETATM   19  C   UNK N   1      32.750  14.657   9.341  0.00  0.00     0.148 C 
HETATM   20  O   UNK N   1      32.180  13.924   8.549  0.00  0.00    -0.650 OA
BRANCH  19  21
HETATM   21  O   UNK N   1      32.028  15.298  10.281  0.00  0.00    -0.776 OA
HETATM   22  H   UNK N   1      32.167  16.211  10.437  0.00  0.00     0.167 HD
ENDBRANCH  19  21
ENDBRANCH   4  19
TORSDOF 5
ENDMDL
MODEL 3
REMARK VINA RESULT:      -6.4      1.456      1.809
REMARK  5 active torsions:
REMARK  status: ('A' for Active; 'I' for Inactive)
REMARK    1  A    between atoms: C_12  and  O_1 
REMARK    2  A    between atoms: O_1  and  C_15 
REMARK    3  A    between atoms: O_2  and  C_14 
REMARK    4  A    between atoms: C_8  and  C_14 
REMARK    5  A    between atoms: C_15  and  C_16 
ROOT
HETATM    1  N   UNK N   1      36.413  11.693  10.197  0.00  0.00     0.094 N 
HETATM    2  C   UNK N   1      35.742  12.982   9.995  0.00  0.00     0.239 C 
HETATM    3  C   UNK N   1      35.382  10.898  10.873  0.00  0.00     0.225 C 
HETATM    4  C   UNK N   1      35.631  13.776  11.334  0.00  0.00     0.146 C 
HETATM    5  C   UNK N   1      34.364  12.573   9.476  0.00  0.00     0.039 C 
HETATM    6  C   UNK N   1      34.123  11.188  10.069  0.00  0.00     0.038 C 
HETATM    7  C   UNK N   1      35.191  11.339  12.349  0.00  0.00     0.069 C 
HETATM    8  C   UNK N   1      35.142  12.867  12.469  0.00  0.00     0.150 C 
HETATM    9  C   UNK N   1      37.678  11.773  10.931  0.00  0.00     0.310 C 
ENDROOT
BRANCH   8  10
HETATM   10  O   UNK N   1      34.938  13.474  13.695  0.00  0.00    -0.311 OA
BRANCH  10  11
HETATM   11  C   UNK N   1      35.840  13.707  14.673  0.00  0.00     0.293 C 
HETATM   12  O   UNK N   1      36.708  14.572  14.543  0.00  0.00    -0.259 OA
BRANCH  11  13
HETATM   13  C   UNK N   1      35.743  12.933  15.927  0.00  0.00     0.039 A 
HETATM   14  C   UNK N   1      36.141  11.584  15.926  0.00  0.00     0.017 A 
HETATM   15  C   UNK N   1      36.017  10.808  17.080  0.00  0.00     0.001 A 
HETATM   16  C   UNK N   1      35.495  11.372  18.247  0.00  0.00     0.000 A 
HETATM   17  C   UNK N   1      35.102  12.714  18.259  0.00  0.00     0.001 A 
HETATM   18  C   UNK N   1      35.222  13.491  17.101  0.00  0.00     0.017 A 
ENDBRANCH  11  13
ENDBRANCH  10  11
ENDBRANCH   8  10
BRANCH   4  19
HETATM   19  C   UNK N   1      34.754  15.016  11.272  0.00  0.00     0.148 C 
HETATM   20  O   UNK N   1      35.237  16.127  11.124  0.00  0.00    -0.650 OA
BRANCH  19  21
HETATM   21  O   UNK N   1      33.415  14.888  11.354  0.00  0.00    -0.776 OA
HETATM   22  H   UNK N   1      32.919  14.654  10.594  0.00  0.00     0.167 HD
ENDBRANCH  19  21
ENDBRANCH   4  19
TORSDOF 5
ENDMDL
MODEL 4
REMARK VINA RESULT:      -6.2     23.397     25.719
REMARK  5 active torsions:
REMARK  status: ('A' for Active; 'I' for Inactive)
REMARK    1  A    between atoms: C_12  and  O_1 
REMARK    2  A    between atoms: O_1  and  C_15 
REMARK    3  A    between atoms: O_2  and  C_14 
REMARK    4  A    between atoms: C_8  and  C_14 
REMARK    5  A    between atoms: C_15  and  C_16 
ROOT
HETATM    1  N   UNK N   1      27.403  27.874  -5.214  0.00  0.00     0.094 N 
HETATM    2  C   UNK N   1      27.664  26.900  -4.148  0.00  0.00     0.239 C 
HETATM    3  C   UNK N   1      25.938  27.890  -5.282  0.00  0.00     0.225 C 
HETATM    4  C   UNK N   1      27.405  25.443  -4.641  0.00  0.00     0.146 C 
HETATM    5  C   UNK N   1      26.666  27.306  -3.064  0.00  0.00     0.039 C 
HETATM    6  C   UNK N   1      25.514  27.957  -3.822  0.00  0.00     0.038 C 
HETATM    7  C   UNK N   1      25.378  26.604  -5.947  0.00  0.00     0.069 C 
HETATM    8  C   UNK N   1      26.080  25.351  -5.406  0.00  0.00     0.150 C 
HETATM    9  C   UNK N   1      28.053  27.569  -6.491  0.00  0.00     0.310 C 
ENDROOT
BRANCH   8  10
HETATM   10  O   UNK N   1      25.705  24.091  -5.836  0.00  0.00    -0.311 OA
BRANCH  10  11
HETATM   11  C   UNK N   1      25.867  23.543  -7.060  0.00  0.00     0.293 C 
HETATM   12  O   UNK N   1      25.190  23.920  -8.019  0.00  0.00    -0.259 OA
BRANCH  11  13
HETATM   13  C   UNK N   1      26.904  22.508  -7.242  0.00  0.00     0.039 A 
HETATM   14  C   UNK N   1      28.137  22.657  -6.581  0.00  0.00     0.017 A 
HETATM   15  C   UNK N   1      29.159  21.724  -6.769  0.00  0.00     0.001 A 
HETATM   16  C   UNK N   1      28.960  20.633  -7.619  0.00  0.00     0.000 A 
HETATM   17  C   UNK N   1      27.736  20.474  -8.276  0.00  0.00     0.001 A 
HETATM   18  C   UNK N   1      26.712  21.411  -8.091  0.00  0.00     0.017 A 
ENDBRANCH  11  13
ENDBRANCH  10  11
ENDBRANCH   8  10
BRANCH   4  19
HETATM   19  C   UNK N   1      27.428  24.385  -3.549  0.00  0.00     0.148 C 
HETATM   20  O   UNK N   1      28.481  23.959  -3.102  0.00  0.00    -0.650 OA
BRANCH  19  21
HETATM   21  O   UNK N   1      26.266  23.926  -3.043  0.00  0.00    -0.776 OA
HETATM   22  H   UNK N   1      25.451  24.267  -3.356  0.00  0.00     0.167 HD
ENDBRANCH  19  21
ENDBRANCH   4  19
TORSDOF 5
ENDMDL
MODEL 5
REMARK VINA RESULT:      -6.1     23.937     25.519
REMARK  5 active torsions:
REMARK  status: ('A' for Active; 'I' for Inactive)
REMARK    1  A    between atoms: C_12  and  O_1 
REMARK    2  A    between atoms: O_1  and  C_15 
REMARK    3  A    between atoms: O_2  and  C_14 
REMARK    4  A    between atoms: C_8  and  C_14 
REMARK    5  A    between atoms: C_15  and  C_16 
ROOT
HETATM    1  N   UNK N   1      28.954  23.297  -8.210  0.00  0.00     0.094 N 
HETATM    2  C   UNK N   1      27.630  22.774  -8.563  0.00  0.00     0.239 C 
HETATM    3  C   UNK N   1      29.305  22.509  -7.024  0.00  0.00     0.225 C 
HETATM    4  C   UNK N   1      26.539  23.287  -7.572  0.00  0.00     0.146 C 
HETATM    5  C   UNK N   1      27.818  21.262  -8.449  0.00  0.00     0.039 C 
HETATM    6  C   UNK N   1      28.928  21.087  -7.417  0.00  0.00     0.038 C 
HETATM    7  C   UNK N   1      28.496  22.954  -5.777  0.00  0.00     0.069 C 
HETATM    8  C   UNK N   1      27.014  23.154  -6.120  0.00  0.00     0.150 C 
HETATM    9  C   UNK N   1      29.000  24.745  -7.995  0.00  0.00     0.310 C 
ENDROOT
BRANCH   8  10
HETATM   10  O   UNK N   1      26.104  23.514  -5.142  0.00  0.00    -0.311 OA
BRANCH  10  11
HETATM   11  C   UNK N   1      26.300  24.315  -4.072  0.00  0.00     0.293 C 
HETATM   12  O   UNK N   1      26.694  23.854  -2.998  0.00  0.00    -0.259 OA
BRANCH  11  13
HETATM   13  C   UNK N   1      26.075  25.766  -4.221  0.00  0.00     0.039 A 
HETATM   14  C   UNK N   1      26.572  26.637  -3.234  0.00  0.00     0.017 A 
HETATM   15  C   UNK N   1      26.335  28.010  -3.316  0.00  0.00     0.001 A 
HETATM   16  C   UNK N   1      25.599  28.528  -4.384  0.00  0.00     0.000 A 
HETATM   17  C   UNK N   1      25.106  27.671  -5.373  0.00  0.00     0.001 A 
HETATM   18  C   UNK N   1      25.339  26.294  -5.289  0.00  0.00     0.017 A 
ENDBRANCH  11  13
ENDBRANCH  10  11
ENDBRANCH   8  10
BRANCH   4  19
HETATM   19  C   UNK N   1      25.179  22.621  -7.718  0.00  0.00     0.148 C 
HETATM   20  O   UNK N   1      24.470  22.836  -8.688  0.00  0.00    -0.650 OA
BRANCH  19  21
HETATM   21  O   UNK N   1      24.757  21.757  -6.773  0.00  0.00    -0.776 OA
HETATM   22  H   UNK N   1      24.751  22.014  -5.872  0.00  0.00     0.167 HD
ENDBRANCH  19  21
ENDBRANCH   4  19
TORSDOF 5
ENDMDL
MODEL 6
REMARK VINA RESULT:      -6.1      3.554      7.061
REMARK  5 active torsions:
REMARK  status: ('A' for Active; 'I' for Inactive)
REMARK    1  A    between atoms: C_12  and  O_1 
REMARK    2  A    between atoms: O_1  and  C_15 
REMARK    3  A    between atoms: O_2  and  C_14 
REMARK    4  A    between atoms: C_8  and  C_14 
REMARK    5  A    between atoms: C_15  and  C_16 
ROOT
HETATM    1  N   UNK N   1      35.747  11.235  10.665  0.00  0.00     0.094 N 
HETATM    2  C   UNK N   1      36.064  11.885  11.942  0.00  0.00     0.239 C 
HETATM    3  C   UNK N   1      36.404  12.111   9.689  0.00  0.00     0.225 C 
HETATM    4  C   UNK N   1      35.220  13.183  12.139  0.00  0.00     0.146 C 
HETATM    5  C   UNK N   1      37.552  12.206  11.802  0.00  0.00     0.039 C 
HETATM    6  C   UNK N   1      37.774  12.364  10.302  0.00  0.00     0.038 C 
HETATM    7  C   UNK N   1      35.639  13.449   9.509  0.00  0.00     0.069 C 
HETATM    8  C   UNK N   1      35.222  14.035  10.864  0.00  0.00     0.150 C 
HETATM    9  C   UNK N   1      34.317  11.040  10.419  0.00  0.00     0.310 C 
ENDROOT
BRANCH   8  10
HETATM   10  O   UNK N   1      34.562  15.248  10.936  0.00  0.00    -0.311 OA
BRANCH  10  11
HETATM   11  C   UNK N   1      34.825  16.385  10.256  0.00  0.00     0.293 C 
HETATM   12  O   UNK N   1      35.750  17.127  10.593  0.00  0.00    -0.259 OA
BRANCH  11  13
HETATM   13  C   UNK N   1      34.008  16.707   9.068  0.00  0.00     0.039 A 
HETATM   14  C   UNK N   1      32.826  15.978   8.838  0.00  0.00     0.017 A 
HETATM   15  C   UNK N   1      32.056  16.221   7.700  0.00  0.00     0.001 A 
HETATM   16  C   UNK N   1      32.457  17.193   6.780  0.00  0.00     0.000 A 
HETATM   17  C   UNK N   1      33.628  17.925   7.003  0.00  0.00     0.001 A 
HETATM   18  C   UNK N   1      34.403  17.680   8.142  0.00  0.00     0.017 A 
ENDBRANCH  11  13
ENDBRANCH  10  11
ENDBRANCH   8  10
BRANCH   4  19
HETATM   19  C   UNK N   1      35.637  14.045  13.320  0.00  0.00     0.148 C 
HETATM   20  O   UNK N   1      35.331  13.745  14.463  0.00  0.00    -0.650 OA
BRANCH  19  21
HETATM   21  O   UNK N   1      36.383  15.147  13.107  0.00  0.00    -0.776 OA
HETATM   22  H   UNK N   1      36.421  15.820  13.758  0.00  0.00     0.167 HD
ENDBRANCH  19  21
ENDBRANCH   4  19
TORSDOF 5
ENDMDL
MODEL 7
REMARK VINA RESULT:      -6.1     21.589     23.880
REMARK  5 active torsions:
REMARK  status: ('A' for Active; 'I' for Inactive)
REMARK    1  A    between atoms: C_12  and  O_1 
REMARK    2  A    between atoms: O_1  and  C_15 
REMARK    3  A    between atoms: O_2  and  C_14 
REMARK    4  A    between atoms: C_8  and  C_14 
REMARK    5  A    between atoms: C_15  and  C_16 
ROOT
HETATM    1  N   UNK N   1      28.082  24.665  -7.108  0.00  0.00     0.094 N 
HETATM    2  C   UNK N   1      27.153  25.007  -6.025  0.00  0.00     0.239 C 
HETATM    3  C   UNK N   1      28.112  23.200  -7.053  0.00  0.00     0.225 C 
HETATM    4  C   UNK N   1      27.817  24.808  -4.628  0.00  0.00     0.146 C 
HETATM    5  C   UNK N   1      26.002  24.024  -6.239  0.00  0.00     0.039 C 
HETATM    6  C   UNK N   1      26.645  22.818  -6.916  0.00  0.00     0.038 C 
HETATM    7  C   UNK N   1      28.918  22.686  -5.831  0.00  0.00     0.069 C 
HETATM    8  C   UNK N   1      28.556  23.465  -4.560  0.00  0.00     0.150 C 
HETATM    9  C   UNK N   1      29.402  25.290  -6.999  0.00  0.00     0.310 C 
ENDROOT
BRANCH   8  10
HETATM   10  O   UNK N   1      29.131  23.142  -3.345  0.00  0.00    -0.311 OA
BRANCH  10  11
HETATM   11  C   UNK N   1      30.327  23.535  -2.855  0.00  0.00     0.293 C 
HETATM   12  O   UNK N   1      30.752  23.090  -1.787  0.00  0.00    -0.259 OA
BRANCH  11  13
HETATM   13  C   UNK N   1      31.142  24.480  -3.645  0.00  0.00     0.039 A 
HETATM   14  C   UNK N   1      32.142  23.970  -4.493  0.00  0.00     0.017 A 
HETATM   15  C   UNK N   1      32.964  24.836  -5.216  0.00  0.00     0.001 A 
HETATM   16  C   UNK N   1      32.796  26.218  -5.101  0.00  0.00     0.000 A 
HETATM   17  C   UNK N   1      31.801  26.733  -4.264  0.00  0.00     0.001 A 
HETATM   18  C   UNK N   1      30.978  25.866  -3.535  0.00  0.00     0.017 A 
ENDBRANCH  11  13
ENDBRANCH  10  11
ENDBRANCH   8  10
BRANCH   4  19
HETATM   19  C   UNK N   1      26.867  24.917  -3.446  0.00  0.00     0.148 C 
HETATM   20  O   UNK N   1      26.326  25.974  -3.164  0.00  0.00    -0.650 OA
BRANCH  19  21
HETATM   21  O   UNK N   1      26.592  23.822  -2.710  0.00  0.00    -0.776 OA
HETATM   22  H   UNK N   1      25.901  23.843  -2.077  0.00  0.00     0.167 HD
ENDBRANCH  19  21
ENDBRANCH   4  19
TORSDOF 5
ENDMDL
MODEL 8
REMARK VINA RESULT:      -6.1     21.247     24.082
REMARK  5 active torsions:
REMARK  status: ('A' for Active; 'I' for Inactive)
REMARK    1  A    between atoms: C_12  and  O_1 
REMARK    2  A    between atoms: O_1  and  C_15 
REMARK    3  A    between atoms: O_2  and  C_14 
REMARK    4  A    between atoms: C_8  and  C_14 
REMARK    5  A    between atoms: C_15  and  C_16 
ROOT
HETATM    1  N   UNK N   1      30.941  24.206  -6.516  0.00  0.00     0.094 N 
HETATM    2  C   UNK N   1      31.279  23.318  -5.397  0.00  0.00     0.239 C 
HETATM    3  C   UNK N   1      31.074  25.539  -5.918  0.00  0.00     0.225 C 
HETATM    4  C   UNK N   1      30.121  23.258  -4.354  0.00  0.00     0.146 C 
HETATM    5  C   UNK N   1      32.526  23.975  -4.806  0.00  0.00     0.039 C 
HETATM    6  C   UNK N   1      32.383  25.454  -5.146  0.00  0.00     0.038 C 
HETATM    7  C   UNK N   1      29.901  25.857  -4.954  0.00  0.00     0.069 C 
HETATM    8  C   UNK N   1      29.596  24.664  -4.038  0.00  0.00     0.150 C 
HETATM    9  C   UNK N   1      29.630  23.953  -7.118  0.00  0.00     0.310 C 
ENDROOT
BRANCH   8  10
HETATM   10  O   UNK N   1      28.609  24.748  -3.073  0.00  0.00    -0.311 OA
BRANCH  10  11
HETATM   11  C   UNK N   1      27.283  24.539  -3.212  0.00  0.00     0.293 C 
HETATM   12  O   UNK N   1      26.742  23.546  -2.721  0.00  0.00    -0.259 OA
BRANCH  11  13
HETATM   13  C   UNK N   1      26.477  25.545  -3.932  0.00  0.00     0.039 A 
HETATM   14  C   UNK N   1      25.930  25.210  -5.184  0.00  0.00     0.017 A 
HETATM   15  C   UNK N   1      25.205  26.152  -5.915  0.00  0.00     0.001 A 
HETATM   16  C   UNK N   1      25.018  27.439  -5.404  0.00  0.00     0.000 A 
HETATM   17  C   UNK N   1      25.553  27.779  -4.157  0.00  0.00     0.001 A 
HETATM   18  C   UNK N   1      26.284  26.836  -3.425  0.00  0.00     0.017 A 
ENDBRANCH  11  13
ENDBRANCH  10  11
ENDBRANCH   8  10
BRANCH   4  19
HETATM   19  C   UNK N   1      30.466  22.548  -3.054  0.00  0.00     0.148 C 
HETATM   20  O   UNK N   1      30.664  21.344  -3.024  0.00  0.00    -0.650 OA
BRANCH  19  21
HETATM   21  O   UNK N   1      30.583  23.262  -1.917  0.00  0.00    -0.776 OA
HETATM   22  H   UNK N   1      31.422  23.575  -1.644  0.00  0.00     0.167 HD
ENDBRANCH  19  21
ENDBRANCH   4  19
TORSDOF 5
ENDMDL
MODEL 9
REMARK VINA RESULT:      -5.8      7.186     10.065
REMARK  5 active torsions:
REMARK  status: ('A' for Active; 'I' for Inactive)
REMARK    1  A    between atoms: C_12  and  O_1 
REMARK    2  A    between atoms: O_1  and  C_15 
REMARK    3  A    between atoms: O_2  and  C_14 
REMARK    4  A    between atoms: C_8  and  C_14 
REMARK    5  A    between atoms: C_15  and  C_16 
ROOT
HETATM    1  N   UNK N   1      33.945  13.788   7.781  0.00  0.00     0.094 N 
HETATM    2  C   UNK N   1      34.757  14.998   7.952  0.00  0.00     0.239 C 
HETATM    3  C   UNK N   1      33.188  14.081   6.559  0.00  0.00     0.225 C 
HETATM    4  C   UNK N   1      33.890  16.193   8.456  0.00  0.00     0.146 C 
HETATM    5  C   UNK N   1      35.290  15.254   6.542  0.00  0.00     0.039 C 
HETATM    6  C   UNK N   1      34.239  14.650   5.616  0.00  0.00     0.038 C 
HETATM    7  C   UNK N   1      32.069  15.126   6.811  0.00  0.00     0.069 C 
HETATM    8  C   UNK N   1      32.584  16.296   7.658  0.00  0.00     0.150 C 
HETATM    9  C   UNK N   1      33.105  13.451   8.932  0.00  0.00     0.310 C 
ENDROOT
BRANCH   8  10
HETATM   10  O   UNK N   1      31.758  17.362   7.968  0.00  0.00    -0.311 OA
BRANCH  10  11
HETATM   11  C   UNK N   1      30.457  17.334   8.327  0.00  0.00     0.293 C 
HETATM   12  O   UNK N   1      30.103  16.824   9.392  0.00  0.00    -0.259 OA
BRANCH  11  13
HETATM   13  C   UNK N   1      29.461  17.965   7.438  0.00  0.00     0.039 A 
HETATM   14  C   UNK N   1      29.432  17.597   6.080  0.00  0.00     0.017 A 
HETATM   15  C   UNK N   1      28.538  18.209   5.200  0.00  0.00     0.001 A 
HETATM   16  C   UNK N   1      27.664  19.195   5.666  0.00  0.00     0.000 A 
HETATM   17  C   UNK N   1      27.684  19.564   7.015  0.00  0.00     0.001 A 
HETATM   18  C   UNK N   1      28.583  18.953   7.898  0.00  0.00     0.017 A 
ENDBRANCH  11  13
ENDBRANCH  10  11
ENDBRANCH   8  10
BRANCH   4  19
HETATM   19  C   UNK N   1      34.592  17.542   8.446  0.00  0.00     0.148 C 
HETATM   20  O   UNK N   1      35.224  17.935   9.414  0.00  0.00    -0.650 OA
BRANCH  19  21
HETATM   21  O   UNK N   1      34.540  18.310   7.340  0.00  0.00    -0.776 OA
HETATM   22  H   UNK N   1      35.159  18.181   6.649  0.00  0.00     0.167 HD
ENDBRANCH  19  21
ENDBRANCH   4  19
TORSDOF 5
ENDMDL
