MODEL 1
REMARK VINA RESULT:      -4.8      0.000      0.000
REMARK  6 active torsions:
REMARK  status: ('A' for Active; 'I' for Inactive)
REMARK    1  A    between atoms: O_1  and  C_11 
REMARK    2  A    between atoms: O_2  and  C_12 
REMARK    3  A    between atoms: O_3  and  C_13 
REMARK    4  A    between atoms: N_4  and  C_6 
REMARK    5  A    between atoms: C_5  and  C_6 
REMARK    6  A    between atoms: C_5  and  C_7 
ROOT
HETATM    1  C   UNK N   1      25.860  27.310  -4.348  0.00  0.00    -0.051 A 
HETATM    2  C   UNK N   1      26.268  26.296  -3.487  0.00  0.00     0.047 A 
HETATM    3  C   UNK N   1      25.526  26.998  -5.663  0.00  0.00     0.047 A 
HETATM    4  C   UNK N   1      25.600  25.684  -6.141  0.00  0.00     0.104 A 
HETATM    5  C   UNK N   1      26.340  24.962  -3.914  0.00  0.00     0.104 A 
HETATM    6  C   UNK N   1      26.019  24.641  -5.262  0.00  0.00     0.135 A 
ENDROOT
BRANCH   1   7
HETATM    7  C   UNK N   1      25.869  28.745  -3.905  0.00  0.00     0.062 C 
BRANCH   7   8
HETATM    8  C   UNK N   1      27.262  29.313  -3.643  0.00  0.00     0.074 C 
HETATM    9  C   UNK N   1      27.414  30.659  -4.333  0.00  0.00     0.032 C 
BRANCH   8  10
HETATM   10  N   UNK N   1      27.430  29.512  -2.216  0.00  0.00    -0.426 N 
HETATM   11  H   UNK N   1      28.336  29.796  -1.844  0.00  0.00     0.150 HD
HETATM   12  H   UNK N   1      26.642  29.367  -1.585  0.00  0.00     0.150 HD
ENDBRANCH   8  10
ENDBRANCH   7   8
ENDBRANCH   1   7
BRANCH   5  13
HETATM   13  O   UNK N   1      26.718  23.994  -3.042  0.00  0.00    -0.353 OA
HETATM   14  C   UNK N   1      28.033  23.687  -2.768  0.00  0.00     0.210 C 
ENDBRANCH   5  13
BRANCH   4  15
HETATM   15  O   UNK N   1      25.276  25.481  -7.447  0.00  0.00    -0.353 OA
HETATM   16  C   UNK N   1      25.934  26.011  -8.535  0.00  0.00     0.210 C 
ENDBRANCH   4  15
BRANCH   6  17
HETATM   17  O   UNK N   1      26.100  23.366  -5.742  0.00  0.00    -0.351 OA
HETATM   18  C   UNK N   1      27.126  22.847  -6.497  0.00  0.00     0.210 C 
ENDBRANCH   6  17
TORSDOF 6
ENDMDL
MODEL 2
REMARK VINA RESULT:      -4.8     13.992     16.221
REMARK  6 active torsions:
REMARK  status: ('A' for Active; 'I' for Inactive)
REMARK    1  A    between atoms: O_1  and  C_11 
REMARK    2  A    between atoms: O_2  and  C_12 
REMARK    3  A    between atoms: O_3  and  C_13 
REMARK    4  A    between atoms: N_4  and  C_6 
REMARK    5  A    between atoms: C_5  and  C_6 
REMARK    6  A    between atoms: C_5  and  C_7 
ROOT
HETATM    1  C   UNK N   1      30.571  17.225   7.285  0.00  0.00    -0.051 A 
HETATM    2  C   UNK N   1      30.837  16.768   5.998  0.00  0.00     0.047 A 
HETATM    3  C   UNK N   1      31.631  17.528   8.136  0.00  0.00     0.047 A 
HETATM    4  C   UNK N   1      32.961  17.375   7.725  0.00  0.00     0.104 A 
HETATM    5  C   UNK N   1      32.153  16.617   5.535  0.00  0.00     0.104 A 
HETATM    6  C   UNK N   1      33.239  16.906   6.407  0.00  0.00     0.135 A 
ENDROOT
BRANCH   1   7
HETATM    7  C   UNK N   1      29.162  17.302   7.798  0.00  0.00     0.062 C 
BRANCH   7   8
HETATM    8  C   UNK N   1      28.631  18.723   7.967  0.00  0.00     0.074 C 
HETATM    9  C   UNK N   1      27.976  19.193   6.678  0.00  0.00     0.032 C 
BRANCH   8  10
HETATM   10  N   UNK N   1      27.629  18.731   9.016  0.00  0.00    -0.426 N 
HETATM   11  H   UNK N   1      27.407  17.869   9.515  0.00  0.00     0.150 HD
HETATM   12  H   UNK N   1      27.147  19.597   9.254  0.00  0.00     0.150 HD
ENDBRANCH   8  10
ENDBRANCH   7   8
ENDBRANCH   1   7
BRANCH   5  13
HETATM   13  O   UNK N   1      32.376  16.193   4.266  0.00  0.00    -0.353 OA
HETATM   14  C   UNK N   1      32.428  17.038   3.179  0.00  0.00     0.210 C 
ENDBRANCH   5  13
BRANCH   4  15
HETATM   15  O   UNK N   1      33.928  17.674   8.636  0.00  0.00    -0.353 OA
HETATM   16  C   UNK N   1      34.525  16.787   9.503  0.00  0.00     0.210 C 
ENDBRANCH   4  15
BRANCH   6  17
HETATM   17  O   UNK N   1      34.538  16.748   6.022  0.00  0.00    -0.351 OA
HETATM   18  C   UNK N   1      35.243  15.567   6.009  0.00  0.00     0.210 C 
ENDBRANCH   6  17
TORSDOF 6
ENDMDL
MODEL 3
REMARK VINA RESULT:      -4.8      0.138      3.131
REMARK  6 active torsions:
REMARK  status: ('A' for Active; 'I' for Inactive)
REMARK    1  A    between atoms: O_1  and  C_11 
REMARK    2  A    between atoms: O_2  and  C_12 
REMARK    3  A    between atoms: O_3  and  C_13 
REMARK    4  A    between atoms: N_4  and  C_6 
REMARK    5  A    between atoms: C_5  and  C_6 
REMARK    6  A    between atoms: C_5  and  C_7 
ROOT
HETATM    1  C   UNK N   1      25.932  27.310  -4.326  0.00  0.00    -0.051 A 
HETATM    2  C   UNK N   1      25.562  27.048  -5.642  0.00  0.00     0.047 A 
HETATM    3  C   UNK N   1      26.320  26.256  -3.502  0.00  0.00     0.047 A 
HETATM    4  C   UNK N   1      26.339  24.936  -3.968  0.00  0.00     0.104 A 
HETATM    5  C   UNK N   1      25.582  25.745  -6.160  0.00  0.00     0.104 A 
HETATM    6  C   UNK N   1      25.959  24.663  -5.316  0.00  0.00     0.135 A 
ENDROOT
BRANCH   1   7
HETATM    7  C   UNK N   1      25.825  28.695  -3.758  0.00  0.00     0.062 C 
BRANCH   7   8
HETATM    8  C   UNK N   1      27.164  29.407  -3.580  0.00  0.00     0.074 C 
HETATM    9  C   UNK N   1      27.098  30.802  -4.179  0.00  0.00     0.032 C 
BRANCH   8  10
HETATM   10  N   UNK N   1      27.445  29.534  -2.162  0.00  0.00    -0.426 N 
HETATM   11  H   UNK N   1      28.315  29.163  -1.780  0.00  0.00     0.150 HD
HETATM   12  H   UNK N   1      26.773  29.993  -1.548  0.00  0.00     0.150 HD
ENDBRANCH   8  10
ENDBRANCH   7   8
ENDBRANCH   1   7
BRANCH   5  13
HETATM   13  O   UNK N   1      25.240  25.529  -7.454  0.00  0.00    -0.353 OA
HETATM   14  C   UNK N   1      26.023  25.907  -8.523  0.00  0.00     0.210 C 
ENDBRANCH   5  13
BRANCH   4  15
HETATM   15  O   UNK N   1      26.710  23.972  -3.082  0.00  0.00    -0.353 OA
HETATM   16  C   UNK N   1      28.002  23.644  -2.739  0.00  0.00     0.210 C 
ENDBRANCH   4  15
BRANCH   6  17
HETATM   17  O   UNK N   1      25.968  23.371  -5.756  0.00  0.00    -0.351 OA
HETATM   18  C   UNK N   1      26.956  22.775  -6.505  0.00  0.00     0.210 C 
ENDBRANCH   6  17
TORSDOF 6
ENDMDL
MODEL 4
REMARK VINA RESULT:      -4.8     13.936     15.826
REMARK  6 active torsions:
REMARK  status: ('A' for Active; 'I' for Inactive)
REMARK    1  A    between atoms: O_1  and  C_11 
REMARK    2  A    between atoms: O_2  and  C_12 
REMARK    3  A    between atoms: O_3  and  C_13 
REMARK    4  A    between atoms: N_4  and  C_6 
REMARK    5  A    between atoms: C_5  and  C_6 
REMARK    6  A    between atoms: C_5  and  C_7 
ROOT
HETATM    1  C   UNK N   1      30.270  17.261   6.891  0.00  0.00    -0.051 A 
HETATM    2  C   UNK N   1      31.112  17.026   7.973  0.00  0.00     0.047 A 
HETATM    3  C   UNK N   1      30.810  17.348   5.610  0.00  0.00     0.047 A 
HETATM    4  C   UNK N   1      32.185  17.210   5.388  0.00  0.00     0.104 A 
HETATM    5  C   UNK N   1      32.495  16.862   7.799  0.00  0.00     0.104 A 
HETATM    6  C   UNK N   1      33.053  16.970   6.495  0.00  0.00     0.135 A 
ENDROOT
BRANCH   1   7
HETATM    7  C   UNK N   1      28.805  17.519   7.098  0.00  0.00     0.062 C 
BRANCH   7   8
HETATM    8  C   UNK N   1      28.495  18.801   7.866  0.00  0.00     0.074 C 
HETATM    9  C   UNK N   1      27.742  19.774   6.975  0.00  0.00     0.032 C 
BRANCH   8  10
HETATM   10  N   UNK N   1      27.653  18.478   9.003  0.00  0.00    -0.426 N 
HETATM   11  H   UNK N   1      27.518  17.505   9.277  0.00  0.00     0.150 HD
HETATM   12  H   UNK N   1      27.195  19.224   9.526  0.00  0.00     0.150 HD
ENDBRANCH   8  10
ENDBRANCH   7   8
ENDBRANCH   1   7
BRANCH   5  13
HETATM   13  O   UNK N   1      33.284  16.609   8.873  0.00  0.00    -0.353 OA
HETATM   14  C   UNK N   1      33.467  15.351   9.403  0.00  0.00     0.210 C 
ENDBRANCH   5  13
BRANCH   4  15
HETATM   15  O   UNK N   1      32.621  17.334   4.105  0.00  0.00    -0.353 OA
HETATM   16  C   UNK N   1      32.655  16.331   3.162  0.00  0.00     0.210 C 
ENDBRANCH   4  15
BRANCH   6  17
HETATM   17  O   UNK N   1      34.394  16.851   6.269  0.00  0.00    -0.351 OA
HETATM   18  C   UNK N   1      35.071  15.684   5.999  0.00  0.00     0.210 C 
ENDBRANCH   6  17
TORSDOF 6
ENDMDL
MODEL 5
REMARK VINA RESULT:      -4.8     14.703     16.146
REMARK  6 active torsions:
REMARK  status: ('A' for Active; 'I' for Inactive)
REMARK    1  A    between atoms: O_1  and  C_11 
REMARK    2  A    between atoms: O_2  and  C_12 
REMARK    3  A    between atoms: O_3  and  C_13 
REMARK    4  A    between atoms: N_4  and  C_6 
REMARK    5  A    between atoms: C_5  and  C_6 
REMARK    6  A    between atoms: C_5  and  C_7 
ROOT
HETATM    1  C   UNK N   1      33.214  17.606   7.302  0.00  0.00    -0.051 A 
HETATM    2  C   UNK N   1      31.912  17.439   7.765  0.00  0.00     0.047 A 
HETATM    3  C   UNK N   1      33.465  17.554   5.934  0.00  0.00     0.047 A 
HETATM    4  C   UNK N   1      32.436  17.330   5.012  0.00  0.00     0.104 A 
HETATM    5  C   UNK N   1      30.844  17.231   6.879  0.00  0.00     0.104 A 
HETATM    6  C   UNK N   1      31.100  17.158   5.481  0.00  0.00     0.135 A 
ENDROOT
BRANCH   1   7
HETATM    7  C   UNK N   1      34.360  17.742   8.263  0.00  0.00     0.062 C 
BRANCH   7   8
HETATM    8  C   UNK N   1      34.378  16.695   9.373  0.00  0.00     0.074 C 
HETATM    9  C   UNK N   1      35.103  15.445   8.901  0.00  0.00     0.032 C 
BRANCH   8  10
HETATM   10  N   UNK N   1      35.092  17.231  10.517  0.00  0.00    -0.426 N 
HETATM   11  H   UNK N   1      34.929  18.193  10.814  0.00  0.00     0.150 HD
HETATM   12  H   UNK N   1      35.756  16.646  11.023  0.00  0.00     0.150 HD
ENDBRANCH   8  10
ENDBRANCH   7   8
ENDBRANCH   1   7
BRANCH   5  13
HETATM   13  O   UNK N   1      29.584  17.097   7.362  0.00  0.00    -0.353 OA
HETATM   14  C   UNK N   1      28.769  18.165   7.669  0.00  0.00     0.210 C 
ENDBRANCH   5  13
BRANCH   4  15
HETATM   15  O   UNK N   1      32.783  17.274   3.697  0.00  0.00    -0.353 OA
HETATM   16  C   UNK N   1      33.256  16.164   3.033  0.00  0.00     0.210 C 
ENDBRANCH   4  15
BRANCH   6  17
HETATM   17  O   UNK N   1      30.106  16.927   4.575  0.00  0.00    -0.351 OA
HETATM   18  C   UNK N   1      29.665  15.695   4.150  0.00  0.00     0.210 C 
ENDBRANCH   6  17
TORSDOF 6
ENDMDL
MODEL 6
REMARK VINA RESULT:      -4.8     14.489     16.280
REMARK  6 active torsions:
REMARK  status: ('A' for Active; 'I' for Inactive)
REMARK    1  A    between atoms: O_1  and  C_11 
REMARK    2  A    between atoms: O_2  and  C_12 
REMARK    3  A    between atoms: O_3  and  C_13 
REMARK    4  A    between atoms: N_4  and  C_6 
REMARK    5  A    between atoms: C_5  and  C_6 
REMARK    6  A    between atoms: C_5  and  C_7 
ROOT
HETATM    1  C   UNK N   1      33.286  17.475   7.273  0.00  0.00    -0.051 A 
HETATM    2  C   UNK N   1      33.555  17.478   5.908  0.00  0.00     0.047 A 
HETATM    3  C   UNK N   1      31.970  17.353   7.711  0.00  0.00     0.047 A 
HETATM    4  C   UNK N   1      30.908  17.240   6.805  0.00  0.00     0.104 A 
HETATM    5  C   UNK N   1      32.527  17.348   4.962  0.00  0.00     0.104 A 
HETATM    6  C   UNK N   1      31.179  17.243   5.404  0.00  0.00     0.135 A 
ENDROOT
BRANCH   1   7
HETATM    7  C   UNK N   1      34.383  17.701   8.273  0.00  0.00     0.062 C 
BRANCH   7   8
HETATM    8  C   UNK N   1      34.401  16.698   9.424  0.00  0.00     0.074 C 
HETATM    9  C   UNK N   1      35.111  15.424   8.996  0.00  0.00     0.032 C 
BRANCH   8  10
HETATM   10  N   UNK N   1      35.128  17.272  10.540  0.00  0.00    -0.426 N 
HETATM   11  H   UNK N   1      34.696  17.316  11.463  0.00  0.00     0.150 HD
HETATM   12  H   UNK N   1      36.072  17.633  10.401  0.00  0.00     0.150 HD
ENDBRANCH   8  10
ENDBRANCH   7   8
ENDBRANCH   1   7
BRANCH   5  13
HETATM   13  O   UNK N   1      32.827  17.329   3.640  0.00  0.00    -0.353 OA
HETATM   14  C   UNK N   1      33.244  16.200   2.969  0.00  0.00     0.210 C 
ENDBRANCH   5  13
BRANCH   4  15
HETATM   15  O   UNK N   1      29.655  17.148   7.328  0.00  0.00    -0.353 OA
HETATM   16  C   UNK N   1      28.995  18.136   8.023  0.00  0.00     0.210 C 
ENDBRANCH   4  15
BRANCH   6  17
HETATM   17  O   UNK N   1      30.136  17.145   4.530  0.00  0.00    -0.351 OA
HETATM   18  C   UNK N   1      29.613  15.980   4.018  0.00  0.00     0.210 C 
ENDBRANCH   6  17
TORSDOF 6
ENDMDL
MODEL 7
REMARK VINA RESULT:      -4.3     11.324     14.562
REMARK  6 active torsions:
REMARK  status: ('A' for Active; 'I' for Inactive)
REMARK    1  A    between atoms: O_1  and  C_11 
REMARK    2  A    between atoms: O_2  and  C_12 
REMARK    3  A    between atoms: O_3  and  C_13 
REMARK    4  A    between atoms: N_4  and  C_6 
REMARK    5  A    between atoms: C_5  and  C_6 
REMARK    6  A    between atoms: C_5  and  C_7 
ROOT
HETATM    1  C   UNK N   1      28.307  18.221   5.542  0.00  0.00    -0.051 A 
HETATM    2  C   UNK N   1      29.401  17.738   4.831  0.00  0.00     0.047 A 
HETATM    3  C   UNK N   1      28.313  18.159   6.934  0.00  0.00     0.047 A 
HETATM    4  C   UNK N   1      29.395  17.611   7.633  0.00  0.00     0.104 A 
HETATM    5  C   UNK N   1      30.517  17.197   5.488  0.00  0.00     0.104 A 
HETATM    6  C   UNK N   1      30.519  17.113   6.908  0.00  0.00     0.135 A 
ENDROOT
BRANCH   1   7
HETATM    7  C   UNK N   1      27.084  18.718   4.827  0.00  0.00     0.062 C 
BRANCH   7   8
HETATM    8  C   UNK N   1      27.106  20.211   4.506  0.00  0.00     0.074 C 
HETATM    9  C   UNK N   1      26.366  20.476   3.205  0.00  0.00     0.032 C 
BRANCH   8  10
HETATM   10  N   UNK N   1      26.431  20.932   5.569  0.00  0.00    -0.426 N 
HETATM   11  H   UNK N   1      26.968  21.520   6.207  0.00  0.00     0.150 HD
HETATM   12  H   UNK N   1      25.421  20.851   5.678  0.00  0.00     0.150 HD
ENDBRANCH   8  10
ENDBRANCH   7   8
ENDBRANCH   1   7
BRANCH   5  13
HETATM   13  O   UNK N   1      31.577  16.758   4.765  0.00  0.00    -0.353 OA
HETATM   14  C   UNK N   1      32.444  17.596   4.099  0.00  0.00     0.210 C 
ENDBRANCH   5  13
BRANCH   4  15
HETATM   15  O   UNK N   1      29.299  17.572   8.990  0.00  0.00    -0.353 OA
HETATM   16  C   UNK N   1      29.636  18.590   9.854  0.00  0.00     0.210 C 
ENDBRANCH   4  15
BRANCH   6  17
HETATM   17  O   UNK N   1      31.562  16.570   7.600  0.00  0.00    -0.351 OA
HETATM   18  C   UNK N   1      32.665  17.245   8.068  0.00  0.00     0.210 C 
ENDBRANCH   6  17
TORSDOF 6
ENDMDL
MODEL 8
REMARK VINA RESULT:      -4.3      3.700      6.131
REMARK  6 active torsions:
REMARK  status: ('A' for Active; 'I' for Inactive)
REMARK    1  A    between atoms: O_1  and  C_11 
REMARK    2  A    between atoms: O_2  and  C_12 
REMARK    3  A    between atoms: O_3  and  C_13 
REMARK    4  A    between atoms: N_4  and  C_6 
REMARK    5  A    between atoms: C_5  and  C_6 
REMARK    6  A    between atoms: C_5  and  C_7 
ROOT
HETATM    1  C   UNK N   1      26.939  23.114  -6.432  0.00  0.00    -0.051 A 
HETATM    2  C   UNK N   1      26.459  23.899  -5.389  0.00  0.00     0.047 A 
HETATM    3  C   UNK N   1      28.237  22.614  -6.371  0.00  0.00     0.047 A 
HETATM    4  C   UNK N   1      29.074  22.892  -5.282  0.00  0.00     0.104 A 
HETATM    5  C   UNK N   1      27.252  24.189  -4.269  0.00  0.00     0.104 A 
HETATM    6  C   UNK N   1      28.586  23.697  -4.211  0.00  0.00     0.135 A 
ENDROOT
BRANCH   1   7
HETATM    7  C   UNK N   1      26.112  22.881  -7.663  0.00  0.00     0.062 C 
BRANCH   7   8
HETATM    8  C   UNK N   1      25.621  21.445  -7.829  0.00  0.00     0.074 C 
HETATM    9  C   UNK N   1      24.380  21.216  -6.982  0.00  0.00     0.032 C 
BRANCH   8  10
HETATM   10  N   UNK N   1      25.270  21.224  -9.220  0.00  0.00    -0.426 N 
HETATM   11  H   UNK N   1      24.313  20.976  -9.471  0.00  0.00     0.150 HD
HETATM   12  H   UNK N   1      25.980  21.318  -9.945  0.00  0.00     0.150 HD
ENDBRANCH   8  10
ENDBRANCH   7   8
ENDBRANCH   1   7
BRANCH   5  13
HETATM   13  O   UNK N   1      26.744  24.936  -3.258  0.00  0.00    -0.353 OA
HETATM   14  C   UNK N   1      26.448  26.277  -3.376  0.00  0.00     0.210 C 
ENDBRANCH   5  13
BRANCH   4  15
HETATM   15  O   UNK N   1      30.333  22.378  -5.324  0.00  0.00    -0.353 OA
HETATM   16  C   UNK N   1      30.673  21.054  -5.158  0.00  0.00     0.210 C 
ENDBRANCH   4  15
BRANCH   6  17
HETATM   17  O   UNK N   1      29.414  23.972  -3.162  0.00  0.00    -0.351 OA
HETATM   18  C   UNK N   1      29.680  23.141  -2.098  0.00  0.00     0.210 C 
ENDBRANCH   6  17
TORSDOF 6
ENDMDL
MODEL 9
REMARK VINA RESULT:      -4.3     11.743     14.715
REMARK  6 active torsions:
REMARK  status: ('A' for Active; 'I' for Inactive)
REMARK    1  A    between atoms: O_1  and  C_11 
REMARK    2  A    between atoms: O_2  and  C_12 
REMARK    3  A    between atoms: O_3  and  C_13 
REMARK    4  A    between atoms: N_4  and  C_6 
REMARK    5  A    between atoms: C_5  and  C_6 
REMARK    6  A    between atoms: C_5  and  C_7 
ROOT
HETATM    1  C   UNK N   1      28.832  17.754   5.674  0.00  0.00    -0.051 A 
HETATM    2  C   UNK N   1      28.974  17.815   7.057  0.00  0.00     0.047 A 
HETATM    3  C   UNK N   1      29.936  17.434   4.887  0.00  0.00     0.047 A 
HETATM    4  C   UNK N   1      31.189  17.182   5.458  0.00  0.00     0.104 A 
HETATM    5  C   UNK N   1      30.205  17.552   7.677  0.00  0.00     0.104 A 
HETATM    6  C   UNK N   1      31.340  17.245   6.875  0.00  0.00     0.135 A 
ENDROOT
BRANCH   1   7
HETATM    7  C   UNK N   1      27.533  18.121   5.018  0.00  0.00     0.062 C 
BRANCH   7   8
HETATM    8  C   UNK N   1      27.200  19.610   5.073  0.00  0.00     0.074 C 
HETATM    9  C   UNK N   1      26.889  20.127   3.677  0.00  0.00     0.032 C 
BRANCH   8  10
HETATM   10  N   UNK N   1      26.024  19.800   5.901  0.00  0.00    -0.426 N 
HETATM   11  H   UNK N   1      25.701  19.047   6.509  0.00  0.00     0.150 HD
HETATM   12  H   UNK N   1      25.520  20.686   5.874  0.00  0.00     0.150 HD
ENDBRANCH   8  10
ENDBRANCH   7   8
ENDBRANCH   1   7
BRANCH   5  13
HETATM   13  O   UNK N   1      30.303  17.596   9.028  0.00  0.00    -0.353 OA
HETATM   14  C   UNK N   1      29.626  18.506   9.811  0.00  0.00     0.210 C 
ENDBRANCH   5  13
BRANCH   4  15
HETATM   15  O   UNK N   1      32.212  16.901   4.605  0.00  0.00    -0.353 OA
HETATM   16  C   UNK N   1      32.345  15.757   3.850  0.00  0.00     0.210 C 
ENDBRANCH   4  15
BRANCH   6  17
HETATM   17  O   UNK N   1      32.569  17.009   7.419  0.00  0.00    -0.351 OA
HETATM   18  C   UNK N   1      33.528  17.955   7.698  0.00  0.00     0.210 C 
ENDBRANCH   6  17
TORSDOF 6
ENDMDL
