REMARK  9 active torsions:
REMARK  status: ('A' for Active; 'I' for Inactive)
REMARK    1  A    between atoms: O_1  and  C_11 
REMARK    2  A    between atoms: O_1  and  C_19 
REMARK    3  A    between atoms: O_3  and  C_15 
REMARK    4  A    between atoms: O_3  and  C_20 
REMARK    5  A    between atoms: N_4  and  C_12 
REMARK    6  A    between atoms: C_5  and  C_10 
REMARK    7  A    between atoms: C_5  and  C_11 
REMARK    8  A    between atoms: C_12  and  C_15 
REMARK    9  A    between atoms: C_20  and  C_22 
ROOT
HETATM    1  N   UNK N   1       4.831   0.803   0.246  0.00  0.00     0.090 N 
HETATM    2  C   UNK N   1       4.204   3.531  -0.150  0.00  0.00     0.078 C 
HETATM    3  C   UNK N   1       3.747   2.877   1.173  0.00  0.00     0.055 C 
HETATM    4  C   UNK N   1       4.087   2.545  -1.333  0.00  0.00     0.055 C 
HETATM    5  C   UNK N   1       4.313   1.474   1.447  0.00  0.00     0.274 C 
HETATM    6  C   UNK N   1       4.007   1.070  -0.931  0.00  0.00     0.274 C 
ENDROOT
BRANCH   2   7
HETATM    7  C   UNK N   1       5.682   3.959   0.010  0.00  0.00    -0.040 A 
HETATM    8  C   UNK N   1       6.081   5.308  -0.018  0.00  0.00     0.008 A 
HETATM    9  C   UNK N   1       7.417   5.673   0.165  0.00  0.00     0.001 A 
HETATM   10  C   UNK N   1       8.385   4.693   0.381  0.00  0.00     0.000 A 
HETATM   11  C   UNK N   1       8.016   3.349   0.409  0.00  0.00     0.001 A 
HETATM   12  C   UNK N   1       6.679   2.988   0.228  0.00  0.00     0.008 A 
ENDBRANCH   2   7
BRANCH   2  13
HETATM   13  C   UNK N   1       3.203   4.668  -0.453  0.00  0.00     0.272 C 
HETATM   14  O   UNK N   1       3.601   5.804  -0.662  0.00  0.00    -0.264 OA
BRANCH  13  15
HETATM   15  O   UNK N   1       1.858   4.458  -0.510  0.00  0.00    -0.321 OA
BRANCH  15  16
HETATM   16  C   UNK N   1       1.231   3.257  -0.271  0.00  0.00     0.174 C 
HETATM   17  C   UNK N   1      -0.250   3.499  -0.068  0.00  0.00     0.034 C 
ENDBRANCH  15  16
ENDBRANCH  13  15
ENDBRANCH   2  13
BRANCH   1  18
HETATM   18  C   UNK N   1       4.930  -0.639   0.491  0.00  0.00     0.298 C 
BRANCH  18  19
HETATM   19  C   UNK N   1       3.582  -1.287   0.811  0.00  0.00     0.198 C 
BRANCH  19  20
HETATM   20  O   UNK N   1       2.886  -1.543  -0.373  0.00  0.00    -0.385 OA
BRANCH  20  21
HETATM   21  C   UNK N   1       1.756  -2.270   0.014  0.00  0.00     0.206 C 
BRANCH  21  22
HETATM   22  C   UNK N   1       1.982  -3.749  -0.080  0.00  0.00    -0.035 A 
HETATM   23  C   UNK N   1       3.223  -4.275  -0.473  0.00  0.00     0.009 A 
HETATM   24  C   UNK N   1       3.413  -5.657  -0.535  0.00  0.00     0.001 A 
HETATM   25  C   UNK N   1       2.365  -6.521  -0.206  0.00  0.00     0.000 A 
HETATM   26  C   UNK N   1       1.127  -6.002   0.184  0.00  0.00     0.001 A 
HETATM   27  C   UNK N   1       0.937  -4.618   0.248  0.00  0.00     0.009 A 
ENDBRANCH  21  22
ENDBRANCH  20  21
ENDBRANCH  19  20
ENDBRANCH  18  19
ENDBRANCH   1  18
TORSDOF 9
