MODEL 1
REMARK VINA RESULT:      -6.1      0.000      0.000
REMARK  9 active torsions:
REMARK  status: ('A' for Active; 'I' for Inactive)
REMARK    1  A    between atoms: O_1  and  C_11 
REMARK    2  A    between atoms: O_1  and  C_19 
REMARK    3  A    between atoms: O_3  and  C_15 
REMARK    4  A    between atoms: O_3  and  C_20 
REMARK    5  A    between atoms: N_4  and  C_12 
REMARK    6  A    between atoms: C_5  and  C_10 
REMARK    7  A    between atoms: C_5  and  C_11 
REMARK    8  A    between atoms: C_12  and  C_15 
REMARK    9  A    between atoms: C_20  and  C_22 
ROOT
HETATM    1  N   UNK N   1      30.765  26.425  -5.638  0.00  0.00     0.090 N 
HETATM    2  C   UNK N   1      30.345  24.160  -4.000  0.00  0.00     0.078 C 
HETATM    3  C   UNK N   1      30.523  25.525  -3.300  0.00  0.00     0.055 C 
HETATM    4  C   UNK N   1      31.258  24.042  -5.240  0.00  0.00     0.055 C 
HETATM    5  C   UNK N   1      30.508  26.751  -4.228  0.00  0.00     0.274 C 
HETATM    6  C   UNK N   1      31.772  25.376  -5.785  0.00  0.00     0.274 C 
ENDROOT
BRANCH   2   7
HETATM    7  C   UNK N   1      28.868  24.034  -4.443  0.00  0.00    -0.040 A 
HETATM    8  C   UNK N   1      28.502  23.518  -5.699  0.00  0.00     0.008 A 
HETATM    9  C   UNK N   1      27.160  23.380  -6.063  0.00  0.00     0.001 A 
HETATM   10  C   UNK N   1      26.154  23.757  -5.175  0.00  0.00     0.000 A 
HETATM   11  C   UNK N   1      26.491  24.276  -3.926  0.00  0.00     0.001 A 
HETATM   12  C   UNK N   1      27.833  24.410  -3.564  0.00  0.00     0.008 A 
ENDBRANCH   2   7
BRANCH   2  13
HETATM   13  C   UNK N   1      30.844  23.084  -3.009  0.00  0.00     0.272 C 
HETATM   14  O   UNK N   1      30.706  23.239  -1.805  0.00  0.00    -0.264 OA
BRANCH  13  15
HETATM   15  O   UNK N   1      31.441  21.932  -3.425  0.00  0.00    -0.321 OA
BRANCH  15  16
HETATM   16  C   UNK N   1      30.779  20.782  -3.789  0.00  0.00     0.174 C 
HETATM   17  C   UNK N   1      31.336  20.280  -5.105  0.00  0.00     0.034 C 
ENDBRANCH  15  16
ENDBRANCH  13  15
ENDBRANCH   2  13
BRANCH   1  18
HETATM   18  C   UNK N   1      31.170  27.635  -6.358  0.00  0.00     0.298 C 
BRANCH  18  19
HETATM   19  C   UNK N   1      30.645  28.920  -5.716  0.00  0.00     0.198 C 
BRANCH  19  20
HETATM   20  O   UNK N   1      29.495  29.348  -6.383  0.00  0.00    -0.385 OA
BRANCH  20  21
HETATM   21  C   UNK N   1      28.521  29.485  -5.389  0.00  0.00     0.206 C 
BRANCH  21  22
HETATM   22  C   UNK N   1      27.355  28.572  -5.618  0.00  0.00    -0.035 A 
HETATM   23  C   UNK N   1      26.280  28.519  -4.715  0.00  0.00     0.009 A 
HETATM   24  C   UNK N   1      25.197  27.673  -4.961  0.00  0.00     0.001 A 
HETATM   25  C   UNK N   1      25.180  26.875  -6.108  0.00  0.00     0.000 A 
HETATM   26  C   UNK N   1      26.248  26.924  -7.009  0.00  0.00     0.001 A 
HETATM   27  C   UNK N   1      27.333  27.772  -6.764  0.00  0.00     0.009 A 
ENDBRANCH  21  22
ENDBRANCH  20  21
ENDBRANCH  19  20
ENDBRANCH  18  19
ENDBRANCH   1  18
TORSDOF 9
ENDMDL
MODEL 2
REMARK VINA RESULT:      -6.1      1.703      3.904
REMARK  9 active torsions:
REMARK  status: ('A' for Active; 'I' for Inactive)
REMARK    1  A    between atoms: O_1  and  C_11 
REMARK    2  A    between atoms: O_1  and  C_19 
REMARK    3  A    between atoms: O_3  and  C_15 
REMARK    4  A    between atoms: O_3  and  C_20 
REMARK    5  A    between atoms: N_4  and  C_12 
REMARK    6  A    between atoms: C_5  and  C_10 
REMARK    7  A    between atoms: C_5  and  C_11 
REMARK    8  A    between atoms: C_12  and  C_15 
REMARK    9  A    between atoms: C_20  and  C_22 
ROOT
HETATM    1  N   UNK N   1      27.534  24.459  -5.356  0.00  0.00     0.090 N 
HETATM    2  C   UNK N   1      29.698  23.811  -3.657  0.00  0.00     0.078 C 
HETATM    3  C   UNK N   1      29.551  23.005  -4.967  0.00  0.00     0.055 C 
HETATM    4  C   UNK N   1      28.320  24.137  -3.041  0.00  0.00     0.055 C 
HETATM    5  C   UNK N   1      28.514  23.547  -5.964  0.00  0.00     0.274 C 
HETATM    6  C   UNK N   1      27.143  24.031  -4.015  0.00  0.00     0.274 C 
ENDROOT
BRANCH   2   7
HETATM    7  C   UNK N   1      30.433  25.132  -3.984  0.00  0.00    -0.040 A 
HETATM    8  C   UNK N   1      29.874  26.392  -3.705  0.00  0.00     0.008 A 
HETATM    9  C   UNK N   1      30.572  27.572  -3.977  0.00  0.00     0.001 A 
HETATM   10  C   UNK N   1      31.848  27.515  -4.535  0.00  0.00     0.000 A 
HETATM   11  C   UNK N   1      32.423  26.278  -4.825  0.00  0.00     0.001 A 
HETATM   12  C   UNK N   1      31.723  25.101  -4.550  0.00  0.00     0.008 A 
ENDBRANCH   2   7
BRANCH   2  13
HETATM   13  C   UNK N   1      30.401  22.884  -2.641  0.00  0.00     0.272 C 
HETATM   14  O   UNK N   1      30.426  23.172  -1.454  0.00  0.00    -0.264 OA
BRANCH  13  15
HETATM   15  O   UNK N   1      31.005  21.720  -3.013  0.00  0.00    -0.321 OA
BRANCH  15  16
HETATM   16  C   UNK N   1      32.355  21.466  -2.937  0.00  0.00     0.174 C 
HETATM   17  C   UNK N   1      32.985  21.708  -4.293  0.00  0.00     0.034 C 
ENDBRANCH  15  16
ENDBRANCH  13  15
ENDBRANCH   2  13
BRANCH   1  18
HETATM   18  C   UNK N   1      26.359  24.570  -6.226  0.00  0.00     0.298 C 
BRANCH  18  19
HETATM   19  C   UNK N   1      25.208  25.344  -5.583  0.00  0.00     0.198 C 
BRANCH  19  20
HETATM   20  O   UNK N   1      25.194  26.657  -6.060  0.00  0.00    -0.385 OA
BRANCH  20  21
HETATM   21  C   UNK N   1      25.591  27.447  -4.976  0.00  0.00     0.206 C 
BRANCH  21  22
HETATM   22  C   UNK N   1      26.647  28.438  -5.363  0.00  0.00    -0.035 A 
HETATM   23  C   UNK N   1      26.867  29.602  -4.609  0.00  0.00     0.009 A 
HETATM   24  C   UNK N   1      27.870  30.501  -4.980  0.00  0.00     0.001 A 
HETATM   25  C   UNK N   1      28.657  30.242  -6.106  0.00  0.00     0.000 A 
HETATM   26  C   UNK N   1      28.440  29.086  -6.860  0.00  0.00     0.001 A 
HETATM   27  C   UNK N   1      27.438  28.185  -6.488  0.00  0.00     0.009 A 
ENDBRANCH  21  22
ENDBRANCH  20  21
ENDBRANCH  19  20
ENDBRANCH  18  19
ENDBRANCH   1  18
TORSDOF 9
ENDMDL
MODEL 3
REMARK VINA RESULT:      -6.1     12.266     14.820
REMARK  9 active torsions:
REMARK  status: ('A' for Active; 'I' for Inactive)
REMARK    1  A    between atoms: O_1  and  C_11 
REMARK    2  A    between atoms: O_1  and  C_19 
REMARK    3  A    between atoms: O_3  and  C_15 
REMARK    4  A    between atoms: O_3  and  C_20 
REMARK    5  A    between atoms: N_4  and  C_12 
REMARK    6  A    between atoms: C_5  and  C_10 
REMARK    7  A    between atoms: C_5  and  C_11 
REMARK    8  A    between atoms: C_12  and  C_15 
REMARK    9  A    between atoms: C_20  and  C_22 
ROOT
HETATM    1  N   UNK N   1      31.634  17.840   8.224  0.00  0.00     0.090 N 
HETATM    2  C   UNK N   1      33.592  16.240   6.959  0.00  0.00     0.078 C 
HETATM    3  C   UNK N   1      32.677  15.560   8.002  0.00  0.00     0.055 C 
HETATM    4  C   UNK N   1      33.946  17.684   7.380  0.00  0.00     0.055 C 
HETATM    5  C   UNK N   1      31.483  16.401   8.483  0.00  0.00     0.274 C 
HETATM    6  C   UNK N   1      33.009  18.293   8.426  0.00  0.00     0.274 C 
ENDROOT
BRANCH   2   7
HETATM    7  C   UNK N   1      32.839  16.275   5.609  0.00  0.00    -0.040 A 
HETATM    8  C   UNK N   1      32.007  15.223   5.185  0.00  0.00     0.008 A 
HETATM    9  C   UNK N   1      31.307  15.293   3.977  0.00  0.00     0.001 A 
HETATM   10  C   UNK N   1      31.426  16.421   3.166  0.00  0.00     0.000 A 
HETATM   11  C   UNK N   1      32.248  17.475   3.561  0.00  0.00     0.001 A 
HETATM   12  C   UNK N   1      32.943  17.403   4.770  0.00  0.00     0.008 A 
ENDBRANCH   2   7
BRANCH   2  13
HETATM   13  C   UNK N   1      34.927  15.464   6.965  0.00  0.00     0.272 C 
HETATM   14  O   UNK N   1      35.284  14.852   7.961  0.00  0.00    -0.264 OA
BRANCH  13  15
HETATM   15  O   UNK N   1      35.748  15.418   5.879  0.00  0.00    -0.321 OA
BRANCH  15  16
HETATM   16  C   UNK N   1      36.236  14.270   5.300  0.00  0.00     0.174 C 
HETATM   17  C   UNK N   1      35.292  13.823   4.203  0.00  0.00     0.034 C 
ENDBRANCH  15  16
ENDBRANCH  13  15
ENDBRANCH   2  13
BRANCH   1  18
HETATM   18  C   UNK N   1      30.711  18.594   9.078  0.00  0.00     0.298 C 
BRANCH  18  19
HETATM   19  C   UNK N   1      29.606  17.724   9.681  0.00  0.00     0.198 C 
BRANCH  19  20
HETATM   20  O   UNK N   1      28.355  18.246   9.344  0.00  0.00    -0.385 OA
BRANCH  20  21
HETATM   21  C   UNK N   1      27.927  17.496   8.245  0.00  0.00     0.206 C 
BRANCH  21  22
HETATM   22  C   UNK N   1      28.032  18.267   6.964  0.00  0.00    -0.035 A 
HETATM   23  C   UNK N   1      28.587  17.694   5.809  0.00  0.00     0.009 A 
HETATM   24  C   UNK N   1      28.657  18.428   4.624  0.00  0.00     0.001 A 
HETATM   25  C   UNK N   1      28.173  19.739   4.585  0.00  0.00     0.000 A 
HETATM   26  C   UNK N   1      27.622  20.315   5.733  0.00  0.00     0.001 A 
HETATM   27  C   UNK N   1      27.550  19.579   6.920  0.00  0.00     0.009 A 
ENDBRANCH  21  22
ENDBRANCH  20  21
ENDBRANCH  19  20
ENDBRANCH  18  19
ENDBRANCH   1  18
TORSDOF 9
ENDMDL
MODEL 4
REMARK VINA RESULT:      -5.9     18.206     22.260
REMARK  9 active torsions:
REMARK  status: ('A' for Active; 'I' for Inactive)
REMARK    1  A    between atoms: O_1  and  C_11 
REMARK    2  A    between atoms: O_1  and  C_19 
REMARK    3  A    between atoms: O_3  and  C_15 
REMARK    4  A    between atoms: O_3  and  C_20 
REMARK    5  A    between atoms: N_4  and  C_12 
REMARK    6  A    between atoms: C_5  and  C_10 
REMARK    7  A    between atoms: C_5  and  C_11 
REMARK    8  A    between atoms: C_12  and  C_15 
REMARK    9  A    between atoms: C_20  and  C_22 
ROOT
HETATM    1  N   UNK N   1      35.918  12.951  11.547  0.00  0.00     0.090 N 
HETATM    2  C   UNK N   1      35.270  15.277  10.077  0.00  0.00     0.078 C 
HETATM    3  C   UNK N   1      36.764  14.996  10.349  0.00  0.00     0.055 C 
HETATM    4  C   UNK N   1      34.394  14.872  11.283  0.00  0.00     0.055 C 
HETATM    5  C   UNK N   1      37.081  13.611  10.937  0.00  0.00     0.274 C 
HETATM    6  C   UNK N   1      35.059  13.896  12.258  0.00  0.00     0.274 C 
ENDROOT
BRANCH   2   7
HETATM    7  C   UNK N   1      34.842  14.452   8.840  0.00  0.00    -0.040 A 
HETATM    8  C   UNK N   1      33.632  13.736   8.796  0.00  0.00     0.008 A 
HETATM    9  C   UNK N   1      33.250  13.027   7.654  0.00  0.00     0.001 A 
HETATM   10  C   UNK N   1      34.073  13.021   6.528  0.00  0.00     0.000 A 
HETATM   11  C   UNK N   1      35.279  13.720   6.548  0.00  0.00     0.001 A 
HETATM   12  C   UNK N   1      35.657  14.429   7.691  0.00  0.00     0.008 A 
ENDBRANCH   2   7
BRANCH   2  13
HETATM   13  C   UNK N   1      35.121  16.809   9.948  0.00  0.00     0.272 C 
HETATM   14  O   UNK N   1      35.914  17.556  10.502  0.00  0.00    -0.264 OA
BRANCH  13  15
HETATM   15  O   UNK N   1      34.126  17.386   9.219  0.00  0.00    -0.321 OA
BRANCH  15  16
HETATM   16  C   UNK N   1      34.312  18.227   8.146  0.00  0.00     0.174 C 
HETATM   17  C   UNK N   1      33.828  17.542   6.885  0.00  0.00     0.034 C 
ENDBRANCH  15  16
ENDBRANCH  13  15
ENDBRANCH   2  13
BRANCH   1  18
HETATM   18  C   UNK N   1      36.371  11.887  12.448  0.00  0.00     0.298 C 
BRANCH  18  19
HETATM   19  C   UNK N   1      35.235  10.984  12.931  0.00  0.00     0.198 C 
BRANCH  19  20
HETATM   20  O   UNK N   1      35.489  10.560  14.237  0.00  0.00    -0.385 OA
BRANCH  20  21
HETATM   21  C   UNK N   1      36.334  11.532  14.782  0.00  0.00     0.206 C 
BRANCH  21  22
HETATM   22  C   UNK N   1      35.908  11.934  16.162  0.00  0.00    -0.035 A 
HETATM   23  C   UNK N   1      35.845  11.001  17.209  0.00  0.00     0.009 A 
HETATM   24  C   UNK N   1      35.463  11.405  18.490  0.00  0.00     0.001 A 
HETATM   25  C   UNK N   1      35.140  12.743  18.732  0.00  0.00     0.000 A 
HETATM   26  C   UNK N   1      35.199  13.676  17.692  0.00  0.00     0.001 A 
HETATM   27  C   UNK N   1      35.584  13.271  16.410  0.00  0.00     0.009 A 
ENDBRANCH  21  22
ENDBRANCH  20  21
ENDBRANCH  19  20
ENDBRANCH  18  19
ENDBRANCH   1  18
TORSDOF 9
ENDMDL
MODEL 5
REMARK VINA RESULT:      -5.8      2.480      7.019
REMARK  9 active torsions:
REMARK  status: ('A' for Active; 'I' for Inactive)
REMARK    1  A    between atoms: O_1  and  C_11 
REMARK    2  A    between atoms: O_1  and  C_19 
REMARK    3  A    between atoms: O_3  and  C_15 
REMARK    4  A    between atoms: O_3  and  C_20 
REMARK    5  A    between atoms: N_4  and  C_12 
REMARK    6  A    between atoms: C_5  and  C_10 
REMARK    7  A    between atoms: C_5  and  C_11 
REMARK    8  A    between atoms: C_12  and  C_15 
REMARK    9  A    between atoms: C_20  and  C_22 
ROOT
HETATM    1  N   UNK N   1      29.229  24.752  -4.039  0.00  0.00     0.090 N 
HETATM    2  C   UNK N   1      26.876  25.090  -5.570  0.00  0.00     0.078 C 
HETATM    3  C   UNK N   1      26.771  24.261  -4.271  0.00  0.00     0.055 C 
HETATM    4  C   UNK N   1      28.220  24.841  -6.288  0.00  0.00     0.055 C 
HETATM    5  C   UNK N   1      28.006  24.305  -3.357  0.00  0.00     0.274 C 
HETATM    6  C   UNK N   1      29.315  24.238  -5.404  0.00  0.00     0.274 C 
ENDROOT
BRANCH   2   7
HETATM    7  C   UNK N   1      26.771  26.588  -5.195  0.00  0.00    -0.040 A 
HETATM    8  C   UNK N   1      25.929  27.047  -4.166  0.00  0.00     0.008 A 
HETATM    9  C   UNK N   1      25.878  28.400  -3.820  0.00  0.00     0.001 A 
HETATM   10  C   UNK N   1      26.672  29.324  -4.498  0.00  0.00     0.000 A 
HETATM   11  C   UNK N   1      27.512  28.894  -5.524  0.00  0.00     0.001 A 
HETATM   12  C   UNK N   1      27.562  27.541  -5.866  0.00  0.00     0.008 A 
ENDBRANCH   2   7
BRANCH   2  13
HETATM   13  C   UNK N   1      25.786  24.559  -6.526  0.00  0.00     0.272 C 
HETATM   14  O   UNK N   1      25.313  25.282  -7.390  0.00  0.00    -0.264 OA
BRANCH  13  15
HETATM   15  O   UNK N   1      25.318  23.281  -6.459  0.00  0.00    -0.321 OA
BRANCH  15  16
HETATM   16  C   UNK N   1      25.820  22.214  -7.168  0.00  0.00     0.174 C 
HETATM   17  C   UNK N   1      24.673  21.343  -7.637  0.00  0.00     0.034 C 
ENDBRANCH  15  16
ENDBRANCH  13  15
ENDBRANCH   2  13
BRANCH   1  18
HETATM   18  C   UNK N   1      30.404  24.351  -3.260  0.00  0.00     0.298 C 
BRANCH  18  19
HETATM   19  C   UNK N   1      30.097  23.264  -2.229  0.00  0.00     0.198 C 
BRANCH  19  20
HETATM   20  O   UNK N   1      31.139  22.334  -2.195  0.00  0.00    -0.385 OA
BRANCH  20  21
HETATM   21  C   UNK N   1      30.887  21.459  -3.256  0.00  0.00     0.206 C 
BRANCH  21  22
HETATM   22  C   UNK N   1      32.152  20.905  -3.838  0.00  0.00    -0.035 A 
HETATM   23  C   UNK N   1      32.152  20.212  -5.059  0.00  0.00     0.009 A 
HETATM   24  C   UNK N   1      33.348  19.721  -5.588  0.00  0.00     0.001 A 
HETATM   25  C   UNK N   1      34.548  19.919  -4.901  0.00  0.00     0.000 A 
HETATM   26  C   UNK N   1      34.553  20.606  -3.684  0.00  0.00     0.001 A 
HETATM   27  C   UNK N   1      33.356  21.099  -3.154  0.00  0.00     0.009 A 
ENDBRANCH  21  22
ENDBRANCH  20  21
ENDBRANCH  19  20
ENDBRANCH  18  19
ENDBRANCH   1  18
TORSDOF 9
ENDMDL
MODEL 6
REMARK VINA RESULT:      -5.8     15.005     19.007
REMARK  9 active torsions:
REMARK  status: ('A' for Active; 'I' for Inactive)
REMARK    1  A    between atoms: O_1  and  C_11 
REMARK    2  A    between atoms: O_1  and  C_19 
REMARK    3  A    between atoms: O_3  and  C_15 
REMARK    4  A    between atoms: O_3  and  C_20 
REMARK    5  A    between atoms: N_4  and  C_12 
REMARK    6  A    between atoms: C_5  and  C_10 
REMARK    7  A    between atoms: C_5  and  C_11 
REMARK    8  A    between atoms: C_12  and  C_15 
REMARK    9  A    between atoms: C_20  and  C_22 
ROOT
HETATM    1  N   UNK N   1      34.160  16.007   8.626  0.00  0.00     0.090 N 
HETATM    2  C   UNK N   1      31.748  16.802   7.385  0.00  0.00     0.078 C 
HETATM    3  C   UNK N   1      32.633  17.908   8.002  0.00  0.00     0.055 C 
HETATM    4  C   UNK N   1      31.774  15.519   8.244  0.00  0.00     0.055 C 
HETATM    5  C   UNK N   1      34.035  17.461   8.448  0.00  0.00     0.274 C 
HETATM    6  C   UNK N   1      32.957  15.419   9.210  0.00  0.00     0.274 C 
ENDROOT
BRANCH   2   7
HETATM    7  C   UNK N   1      32.294  16.479   5.974  0.00  0.00    -0.040 A 
HETATM    8  C   UNK N   1      32.561  15.163   5.554  0.00  0.00     0.008 A 
HETATM    9  C   UNK N   1      33.019  14.893   4.263  0.00  0.00     0.001 A 
HETATM   10  C   UNK N   1      33.221  15.937   3.361  0.00  0.00     0.000 A 
HETATM   11  C   UNK N   1      32.968  17.250   3.754  0.00  0.00     0.001 A 
HETATM   12  C   UNK N   1      32.508  17.517   5.045  0.00  0.00     0.008 A 
ENDBRANCH   2   7
BRANCH   2  13
HETATM   13  C   UNK N   1      30.292  17.314   7.442  0.00  0.00     0.272 C 
HETATM   14  O   UNK N   1      29.433  16.821   6.726  0.00  0.00    -0.264 OA
BRANCH  13  15
HETATM   15  O   UNK N   1      29.903  18.312   8.285  0.00  0.00    -0.321 OA
BRANCH  15  16
HETATM   16  C   UNK N   1      28.801  18.273   9.107  0.00  0.00     0.174 C 
HETATM   17  C   UNK N   1      29.012  17.221  10.176  0.00  0.00     0.034 C 
ENDBRANCH  15  16
ENDBRANCH  13  15
ENDBRANCH   2  13
BRANCH   1  18
HETATM   18  C   UNK N   1      35.334  15.712   9.454  0.00  0.00     0.298 C 
BRANCH  18  19
HETATM   19  C   UNK N   1      35.306  16.421  10.809  0.00  0.00     0.198 C 
BRANCH  19  20
HETATM   20  O   UNK N   1      36.086  15.716  11.729  0.00  0.00    -0.385 OA
BRANCH  20  21
HETATM   21  C   UNK N   1      35.444  14.484  11.888  0.00  0.00     0.206 C 
BRANCH  21  22
HETATM   22  C   UNK N   1      35.682  13.899  13.247  0.00  0.00    -0.035 A 
HETATM   23  C   UNK N   1      36.543  14.516  14.168  0.00  0.00     0.009 A 
HETATM   24  C   UNK N   1      36.734  13.961  15.435  0.00  0.00     0.001 A 
HETATM   25  C   UNK N   1      36.066  12.785  15.789  0.00  0.00     0.000 A 
HETATM   26  C   UNK N   1      35.209  12.165  14.875  0.00  0.00     0.001 A 
HETATM   27  C   UNK N   1      35.017  12.722  13.607  0.00  0.00     0.009 A 
ENDBRANCH  21  22
ENDBRANCH  20  21
ENDBRANCH  19  20
ENDBRANCH  18  19
ENDBRANCH   1  18
TORSDOF 9
ENDMDL
MODEL 7
REMARK VINA RESULT:      -5.8     10.743     14.227
REMARK  9 active torsions:
REMARK  status: ('A' for Active; 'I' for Inactive)
REMARK    1  A    between atoms: O_1  and  C_11 
REMARK    2  A    between atoms: O_1  and  C_19 
REMARK    3  A    between atoms: O_3  and  C_15 
REMARK    4  A    between atoms: O_3  and  C_20 
REMARK    5  A    between atoms: N_4  and  C_12 
REMARK    6  A    between atoms: C_5  and  C_10 
REMARK    7  A    between atoms: C_5  and  C_11 
REMARK    8  A    between atoms: C_12  and  C_15 
REMARK    9  A    between atoms: C_20  and  C_22 
ROOT
HETATM    1  N   UNK N   1      27.820  16.054   3.830  0.00  0.00     0.090 N 
HETATM    2  C   UNK N   1      27.623  18.292   5.546  0.00  0.00     0.078 C 
HETATM    3  C   UNK N   1      28.941  18.106   4.761  0.00  0.00     0.055 C 
HETATM    4  C   UNK N   1      27.044  16.934   5.999  0.00  0.00     0.055 C 
HETATM    5  C   UNK N   1      28.914  17.023   3.671  0.00  0.00     0.274 C 
HETATM    6  C   UNK N   1      27.580  15.722   5.233  0.00  0.00     0.274 C 
ENDROOT
BRANCH   2   7
HETATM    7  C   UNK N   1      26.604  18.994   4.617  0.00  0.00    -0.040 A 
HETATM    8  C   UNK N   1      25.236  18.668   4.620  0.00  0.00     0.008 A 
HETATM    9  C   UNK N   1      24.328  19.341   3.798  0.00  0.00     0.001 A 
HETATM   10  C   UNK N   1      24.772  20.358   2.954  0.00  0.00     0.000 A 
HETATM   11  C   UNK N   1      26.124  20.697   2.929  0.00  0.00     0.001 A 
HETATM   12  C   UNK N   1      27.028  20.024   3.754  0.00  0.00     0.008 A 
ENDBRANCH   2   7
BRANCH   2  13
HETATM   13  C   UNK N   1      27.982  19.048   6.845  0.00  0.00     0.272 C 
HETATM   14  O   UNK N   1      27.347  20.036   7.182  0.00  0.00    -0.264 OA
BRANCH  13  15
HETATM   15  O   UNK N   1      28.996  18.649   7.663  0.00  0.00    -0.321 OA
BRANCH  15  16
HETATM   16  C   UNK N   1      28.932  18.591   9.036  0.00  0.00     0.174 C 
HETATM   17  C   UNK N   1      28.242  17.309   9.450  0.00  0.00     0.034 C 
ENDBRANCH  15  16
ENDBRANCH  13  15
ENDBRANCH   2  13
BRANCH   1  18
HETATM   18  C   UNK N   1      28.115  14.845   3.056  0.00  0.00     0.298 C 
BRANCH  18  19
HETATM   19  C   UNK N   1      29.610  14.650   2.796  0.00  0.00     0.198 C 
BRANCH  19  20
HETATM   20  O   UNK N   1      30.145  13.771   3.741  0.00  0.00    -0.385 OA
BRANCH  20  21
HETATM   21  C   UNK N   1      31.491  14.133   3.859  0.00  0.00     0.206 C 
BRANCH  21  22
HETATM   22  C   UNK N   1      31.696  15.200   4.891  0.00  0.00    -0.035 A 
HETATM   23  C   UNK N   1      32.469  16.341   4.620  0.00  0.00     0.009 A 
HETATM   24  C   UNK N   1      32.629  17.329   5.593  0.00  0.00     0.001 A 
HETATM   25  C   UNK N   1      32.020  17.184   6.842  0.00  0.00     0.000 A 
HETATM   26  C   UNK N   1      31.252  16.049   7.118  0.00  0.00     0.001 A 
HETATM   27  C   UNK N   1      31.089  15.060   6.143  0.00  0.00     0.009 A 
ENDBRANCH  21  22
ENDBRANCH  20  21
ENDBRANCH  19  20
ENDBRANCH  18  19
ENDBRANCH   1  18
TORSDOF 9
ENDMDL
MODEL 8
REMARK VINA RESULT:      -5.7     16.131     19.373
REMARK  9 active torsions:
REMARK  status: ('A' for Active; 'I' for Inactive)
REMARK    1  A    between atoms: O_1  and  C_11 
REMARK    2  A    between atoms: O_1  and  C_19 
REMARK    3  A    between atoms: O_3  and  C_15 
REMARK    4  A    between atoms: O_3  and  C_20 
REMARK    5  A    between atoms: N_4  and  C_12 
REMARK    6  A    between atoms: C_5  and  C_10 
REMARK    7  A    between atoms: C_5  and  C_11 
REMARK    8  A    between atoms: C_12  and  C_15 
REMARK    9  A    between atoms: C_20  and  C_22 
ROOT
HETATM    1  N   UNK N   1      35.004  15.601   9.170  0.00  0.00     0.090 N 
HETATM    2  C   UNK N   1      35.769  14.270  11.543  0.00  0.00     0.078 C 
HETATM    3  C   UNK N   1      34.385  13.930  10.947  0.00  0.00     0.055 C 
HETATM    4  C   UNK N   1      36.101  15.769  11.372  0.00  0.00     0.055 C 
HETATM    5  C   UNK N   1      34.114  14.492   9.542  0.00  0.00     0.274 C 
HETATM    6  C   UNK N   1      35.279  16.487  10.299  0.00  0.00     0.274 C 
ENDROOT
BRANCH   2   7
HETATM    7  C   UNK N   1      36.833  13.427  10.802  0.00  0.00    -0.040 A 
HETATM    8  C   UNK N   1      37.928  14.011  10.140  0.00  0.00     0.008 A 
HETATM    9  C   UNK N   1      38.897  13.228   9.508  0.00  0.00     0.001 A 
HETATM   10  C   UNK N   1      38.789  11.837   9.525  0.00  0.00     0.000 A 
HETATM   11  C   UNK N   1      37.711  11.234  10.171  0.00  0.00     0.001 A 
HETATM   12  C   UNK N   1      36.747  12.021  10.804  0.00  0.00     0.008 A 
ENDBRANCH   2   7
BRANCH   2  13
HETATM   13  C   UNK N   1      35.667  14.037  13.067  0.00  0.00     0.272 C 
HETATM   14  O   UNK N   1      36.391  14.648  13.837  0.00  0.00    -0.264 OA
BRANCH  13  15
HETATM   15  O   UNK N   1      34.774  13.163  13.611  0.00  0.00    -0.321 OA
BRANCH  15  16
HETATM   16  C   UNK N   1      35.099  11.979  14.231  0.00  0.00     0.174 C 
HETATM   17  C   UNK N   1      33.836  11.181  14.477  0.00  0.00     0.034 C 
ENDBRANCH  15  16
ENDBRANCH  13  15
ENDBRANCH   2  13
BRANCH   1  18
HETATM   18  C   UNK N   1      34.416  16.351   8.055  0.00  0.00     0.298 C 
BRANCH  18  19
HETATM   19  C   UNK N   1      34.367  17.859   8.307  0.00  0.00     0.198 C 
BRANCH  19  20
HETATM   20  O   UNK N   1      33.171  18.384   7.810  0.00  0.00    -0.385 OA
BRANCH  20  21
HETATM   21  C   UNK N   1      32.332  17.280   7.629  0.00  0.00     0.206 C 
BRANCH  21  22
HETATM   22  C   UNK N   1      30.908  17.596   7.977  0.00  0.00    -0.035 A 
HETATM   23  C   UNK N   1      29.848  17.199   7.147  0.00  0.00     0.009 A 
HETATM   24  C   UNK N   1      28.529  17.489   7.503  0.00  0.00     0.001 A 
HETATM   25  C   UNK N   1      28.263  18.178   8.689  0.00  0.00     0.000 A 
HETATM   26  C   UNK N   1      29.315  18.577   9.518  0.00  0.00     0.001 A 
HETATM   27  C   UNK N   1      30.636  18.285   9.163  0.00  0.00     0.009 A 
ENDBRANCH  21  22
ENDBRANCH  20  21
ENDBRANCH  19  20
ENDBRANCH  18  19
ENDBRANCH   1  18
TORSDOF 9
ENDMDL
MODEL 9
REMARK VINA RESULT:      -5.7      2.880      6.412
REMARK  9 active torsions:
REMARK  status: ('A' for Active; 'I' for Inactive)
REMARK    1  A    between atoms: O_1  and  C_11 
REMARK    2  A    between atoms: O_1  and  C_19 
REMARK    3  A    between atoms: O_3  and  C_15 
REMARK    4  A    between atoms: O_3  and  C_20 
REMARK    5  A    between atoms: N_4  and  C_12 
REMARK    6  A    between atoms: C_5  and  C_10 
REMARK    7  A    between atoms: C_5  and  C_11 
REMARK    8  A    between atoms: C_12  and  C_15 
REMARK    9  A    between atoms: C_20  and  C_22 
ROOT
HETATM    1  N   UNK N   1      26.972  25.673  -7.378  0.00  0.00     0.090 N 
HETATM    2  C   UNK N   1      26.715  26.775  -4.787  0.00  0.00     0.078 C 
HETATM    3  C   UNK N   1      25.484  26.057  -5.385  0.00  0.00     0.055 C 
HETATM    4  C   UNK N   1      27.490  27.555  -5.872  0.00  0.00     0.055 C 
HETATM    5  C   UNK N   1      25.741  25.273  -6.682  0.00  0.00     0.274 C 
HETATM    6  C   UNK N   1      27.199  27.115  -7.308  0.00  0.00     0.274 C 
ENDROOT
BRANCH   2   7
HETATM    7  C   UNK N   1      27.645  25.703  -4.171  0.00  0.00    -0.040 A 
HETATM    8  C   UNK N   1      27.148  24.605  -3.444  0.00  0.00     0.008 A 
HETATM    9  C   UNK N   1      28.004  23.630  -2.927  0.00  0.00     0.001 A 
HETATM   10  C   UNK N   1      29.380  23.733  -3.127  0.00  0.00     0.000 A 
HETATM   11  C   UNK N   1      29.898  24.814  -3.840  0.00  0.00     0.001 A 
HETATM   12  C   UNK N   1      29.038  25.786  -4.357  0.00  0.00     0.008 A 
ENDBRANCH   2   7
BRANCH   2  13
HETATM   13  C   UNK N   1      26.176  27.842  -3.809  0.00  0.00     0.272 C 
HETATM   14  O   UNK N   1      25.110  28.399  -4.026  0.00  0.00    -0.264 OA
BRANCH  13  15
HETATM   15  O   UNK N   1      26.846  28.197  -2.677  0.00  0.00    -0.321 OA
BRANCH  15  16
HETATM   16  C   UNK N   1      27.549  29.367  -2.504  0.00  0.00     0.174 C 
HETATM   17  C   UNK N   1      29.020  29.106  -2.751  0.00  0.00     0.034 C 
ENDBRANCH  15  16
ENDBRANCH  13  15
ENDBRANCH   2  13
BRANCH   1  18
HETATM   18  C   UNK N   1      26.917  25.225  -8.773  0.00  0.00     0.298 C 
BRANCH  18  19
HETATM   19  C   UNK N   1      25.879  24.128  -9.010  0.00  0.00     0.198 C 
BRANCH  19  20
HETATM   20  O   UNK N   1      26.520  22.932  -9.342  0.00  0.00    -0.385 OA
BRANCH  20  21
HETATM   21  C   UNK N   1      26.314  22.087  -8.247  0.00  0.00     0.206 C 
BRANCH  21  22
HETATM   22  C   UNK N   1      27.606  21.585  -7.676  0.00  0.00    -0.035 A 
HETATM   23  C   UNK N   1      28.210  20.413  -8.158  0.00  0.00     0.009 A 
HETATM   24  C   UNK N   1      29.423  19.976  -7.622  0.00  0.00     0.001 A 
HETATM   25  C   UNK N   1      30.039  20.706  -6.602  0.00  0.00     0.000 A 
HETATM   26  C   UNK N   1      29.440  21.872  -6.117  0.00  0.00     0.001 A 
HETATM   27  C   UNK N   1      28.226  22.311  -6.655  0.00  0.00     0.009 A 
ENDBRANCH  21  22
ENDBRANCH  20  21
ENDBRANCH  19  20
ENDBRANCH  18  19
ENDBRANCH   1  18
TORSDOF 9
ENDMDL
