MODEL 1
REMARK VINA RESULT:      -7.4      0.000      0.000
REMARK  1 active torsions:
REMARK  status: ('A' for Active; 'I' for Inactive)
REMARK    1  A    between atoms: C_11  and  O_2 
ROOT
HETATM    1 Cl   UNK N   1      34.937  12.573  19.746  0.00  0.00    -0.080 Cl
HETATM    2  O   UNK N   1      34.905   9.585  19.758  0.00  0.00    -0.291 OA
HETATM    3  C   UNK N   1      36.620  13.478  13.173  0.00  0.00     0.001 C 
HETATM    4  C   UNK N   1      36.554  12.472  12.029  0.00  0.00    -0.014 C 
HETATM    5  C   UNK N   1      35.964  12.930  14.452  0.00  0.00    -0.004 C 
HETATM    6  C   UNK N   1      36.654  11.601  14.863  0.00  0.00     0.002 C 
HETATM    7  C   UNK N   1      35.880  10.956  16.042  0.00  0.00    -0.014 C 
HETATM    8  C   UNK N   1      37.362  11.232  12.411  0.00  0.00     0.012 C 
HETATM    9  C   UNK N   1      36.759  10.604  13.678  0.00  0.00     0.007 C 
HETATM   10  C   UNK N   1      37.085  13.291  10.858  0.00  0.00     0.126 C 
HETATM   11  C   UNK N   1      36.006  14.727  12.561  0.00  0.00     0.008 C 
HETATM   12  C   UNK N   1      36.138  13.929  15.594  0.00  0.00     0.010 C 
HETATM   13  C   UNK N   1      36.439  14.670  11.084  0.00  0.00     0.033 C 
HETATM   14  C   UNK N   1      35.647  11.939  17.190  0.00  0.00    -0.046 C 
HETATM   15  C   UNK N   1      35.622  13.438  16.949  0.00  0.00     0.037 C 
HETATM   16  C   UNK N   1      35.117  12.046  11.683  0.00  0.00     0.018 C 
HETATM   17  C   UNK N   1      36.648   9.735  16.565  0.00  0.00     0.022 C 
HETATM   18  C   UNK N   1      34.500  10.487  15.559  0.00  0.00     0.020 C 
HETATM   19  C   UNK N   1      35.892   9.029  17.697  0.00  0.00     0.086 C 
HETATM   20  C   UNK N   1      35.338  11.467  18.425  0.00  0.00     0.083 C 
HETATM   21  C   UNK N   1      35.340  10.005  18.698  0.00  0.00     0.171 C 
ENDROOT
BRANCH  10  22
HETATM   22  O   UNK N   1      38.473  13.437  10.937  0.00  0.00    -0.395 OA
HETATM   23  H   UNK N   1      39.390  13.705  10.769  0.00  0.00     0.210 HD
ENDBRANCH  10  22
TORSDOF 1
ENDMDL
MODEL 2
REMARK VINA RESULT:      -7.3     25.714     27.674
REMARK  1 active torsions:
REMARK  status: ('A' for Active; 'I' for Inactive)
REMARK    1  A    between atoms: C_11  and  O_2 
ROOT
HETATM    1 Cl   UNK N   1      25.695  23.704 -11.488  0.00  0.00    -0.080 Cl
HETATM    2  O   UNK N   1      26.065  20.923 -10.458  0.00  0.00    -0.291 OA
HETATM    3  C   UNK N   1      26.392  27.021  -5.541  0.00  0.00     0.001 C 
HETATM    4  C   UNK N   1      26.979  26.508  -4.231  0.00  0.00    -0.014 C 
HETATM    5  C   UNK N   1      26.603  26.021  -6.691  0.00  0.00    -0.004 C 
HETATM    6  C   UNK N   1      25.970  24.654  -6.316  0.00  0.00     0.002 C 
HETATM    7  C   UNK N   1      26.338  23.597  -7.390  0.00  0.00    -0.014 C 
HETATM    8  C   UNK N   1      26.236  25.237  -3.818  0.00  0.00     0.012 C 
HETATM    9  C   UNK N   1      26.412  24.168  -4.910  0.00  0.00     0.007 C 
HETATM   10  C   UNK N   1      26.813  27.716  -3.317  0.00  0.00     0.126 C 
HETATM   11  C   UNK N   1      27.036  28.390  -5.688  0.00  0.00     0.008 C 
HETATM   12  C   UNK N   1      25.918  26.531  -7.957  0.00  0.00     0.010 C 
HETATM   13  C   UNK N   1      27.172  28.895  -4.240  0.00  0.00     0.033 C 
HETATM   14  C   UNK N   1      26.028  24.080  -8.808  0.00  0.00    -0.046 C 
HETATM   15  C   UNK N   1      25.965  25.559  -9.139  0.00  0.00     0.037 C 
HETATM   16  C   UNK N   1      28.483  26.199  -4.325  0.00  0.00     0.018 C 
HETATM   17  C   UNK N   1      25.579  22.291  -7.119  0.00  0.00     0.022 C 
HETATM   18  C   UNK N   1      27.843  23.301  -7.330  0.00  0.00     0.020 C 
HETATM   19  C   UNK N   1      25.954  21.196  -8.124  0.00  0.00     0.086 C 
HETATM   20  C   UNK N   1      25.925  23.176  -9.816  0.00  0.00     0.083 C 
HETATM   21  C   UNK N   1      25.994  21.717  -9.535  0.00  0.00     0.171 C 
ENDROOT
BRANCH  10  22
HETATM   22  O   UNK N   1      25.482  27.861  -2.915  0.00  0.00    -0.395 OA
HETATM   23  H   UNK N   1      24.629  27.747  -2.467  0.00  0.00     0.210 HD
ENDBRANCH  10  22
TORSDOF 1
ENDMDL
MODEL 3
REMARK VINA RESULT:      -7.2     20.811     24.032
REMARK  1 active torsions:
REMARK  status: ('A' for Active; 'I' for Inactive)
REMARK    1  A    between atoms: C_11  and  O_2 
ROOT
HETATM    1 Cl   UNK N   1      26.188  25.565  -3.754  0.00  0.00    -0.080 Cl
HETATM    2  O   UNK N   1      25.433  25.376  -6.639  0.00  0.00    -0.291 OA
HETATM    3  C   UNK N   1      31.548  21.310  -3.893  0.00  0.00     0.001 C 
HETATM    4  C   UNK N   1      32.328  20.805  -5.102  0.00  0.00    -0.014 C 
HETATM    5  C   UNK N   1      30.541  22.406  -4.281  0.00  0.00    -0.004 C 
HETATM    6  C   UNK N   1      29.568  21.861  -5.361  0.00  0.00     0.002 C 
HETATM    7  C   UNK N   1      28.671  23.013  -5.885  0.00  0.00    -0.014 C 
HETATM    8  C   UNK N   1      31.356  20.148  -6.081  0.00  0.00     0.012 C 
HETATM    9  C   UNK N   1      30.318  21.185  -6.540  0.00  0.00     0.007 C 
HETATM   10  C   UNK N   1      33.357  19.888  -4.451  0.00  0.00     0.126 C 
HETATM   11  C   UNK N   1      32.648  21.695  -2.916  0.00  0.00     0.008 C 
HETATM   12  C   UNK N   1      29.717  22.812  -3.061  0.00  0.00     0.010 C 
HETATM   13  C   UNK N   1      33.764  20.671  -3.189  0.00  0.00     0.033 C 
HETATM   14  C   UNK N   1      28.000  23.787  -4.749  0.00  0.00    -0.046 C 
HETATM   15  C   UNK N   1      28.602  23.818  -3.356  0.00  0.00     0.037 C 
HETATM   16  C   UNK N   1      33.095  21.921  -5.832  0.00  0.00     0.018 C 
HETATM   17  C   UNK N   1      27.596  22.453  -6.825  0.00  0.00     0.022 C 
HETATM   18  C   UNK N   1      29.526  24.016  -6.674  0.00  0.00     0.020 C 
HETATM   19  C   UNK N   1      26.719  23.565  -7.413  0.00  0.00     0.086 C 
HETATM   20  C   UNK N   1      26.914  24.557  -5.013  0.00  0.00     0.083 C 
HETATM   21  C   UNK N   1      26.302  24.563  -6.368  0.00  0.00     0.171 C 
ENDROOT
BRANCH  10  22
HETATM   22  O   UNK N   1      32.774  18.682  -4.053  0.00  0.00    -0.395 OA
HETATM   23  H   UNK N   1      32.587  17.740  -3.919  0.00  0.00     0.210 HD
ENDBRANCH  10  22
TORSDOF 1
ENDMDL
MODEL 4
REMARK VINA RESULT:      -7.1     21.315     25.144
REMARK  1 active torsions:
REMARK  status: ('A' for Active; 'I' for Inactive)
REMARK    1  A    between atoms: C_11  and  O_2 
ROOT
HETATM    1 Cl   UNK N   1      32.234  19.745  -4.464  0.00  0.00    -0.080 Cl
HETATM    2  O   UNK N   1      32.314  21.690  -2.196  0.00  0.00    -0.291 OA
HETATM    3  C   UNK N   1      27.217  22.693  -8.069  0.00  0.00     0.001 C 
HETATM    4  C   UNK N   1      26.662  24.108  -7.942  0.00  0.00    -0.014 C 
HETATM    5  C   UNK N   1      28.474  22.495  -7.204  0.00  0.00    -0.004 C 
HETATM    6  C   UNK N   1      28.142  22.812  -5.722  0.00  0.00     0.002 C 
HETATM    7  C   UNK N   1      29.445  22.789  -4.880  0.00  0.00    -0.014 C 
HETATM    8  C   UNK N   1      26.214  24.338  -6.499  0.00  0.00     0.012 C 
HETATM    9  C   UNK N   1      27.421  24.178  -5.561  0.00  0.00     0.007 C 
HETATM   10  C   UNK N   1      25.565  24.111  -9.000  0.00  0.00     0.126 C 
HETATM   11  C   UNK N   1      27.377  22.526  -9.571  0.00  0.00     0.008 C 
HETATM   12  C   UNK N   1      28.938  21.042  -7.287  0.00  0.00     0.010 C 
HETATM   13  C   UNK N   1      26.209  23.335 -10.163  0.00  0.00     0.033 C 
HETATM   14  C   UNK N   1      30.252  21.509  -5.096  0.00  0.00    -0.046 C 
HETATM   15  C   UNK N   1      30.118  20.701  -6.374  0.00  0.00     0.037 C 
HETATM   16  C   UNK N   1      27.682  25.192  -8.328  0.00  0.00     0.018 C 
HETATM   17  C   UNK N   1      29.106  22.933  -3.390  0.00  0.00     0.022 C 
HETATM   18  C   UNK N   1      30.343  23.967  -5.285  0.00  0.00     0.020 C 
HETATM   19  C   UNK N   1      30.369  22.973  -2.521  0.00  0.00     0.086 C 
HETATM   20  C   UNK N   1      31.193  21.148  -4.186  0.00  0.00     0.083 C 
HETATM   21  C   UNK N   1      31.364  21.921  -2.927  0.00  0.00     0.171 C 
ENDROOT
BRANCH  10  22
HETATM   22  O   UNK N   1      24.444  23.400  -8.563  0.00  0.00    -0.395 OA
HETATM   23  H   UNK N   1      23.622  22.885  -8.537  0.00  0.00     0.210 HD
ENDBRANCH  10  22
TORSDOF 1
ENDMDL
MODEL 5
REMARK VINA RESULT:      -7.0     21.238     23.402
REMARK  1 active torsions:
REMARK  status: ('A' for Active; 'I' for Inactive)
REMARK    1  A    between atoms: C_11  and  O_2 
ROOT
HETATM    1 Cl   UNK N   1      33.422  19.028  -7.480  0.00  0.00    -0.080 Cl
HETATM    2  O   UNK N   1      35.586  19.537  -5.483  0.00  0.00    -0.291 OA
HETATM    3  C   UNK N   1      28.634  23.087  -4.751  0.00  0.00     0.001 C 
HETATM    4  C   UNK N   1      28.806  24.199  -3.722  0.00  0.00    -0.014 C 
HETATM    5  C   UNK N   1      29.989  22.552  -5.244  0.00  0.00    -0.004 C 
HETATM    6  C   UNK N   1      30.820  22.044  -4.036  0.00  0.00     0.002 C 
HETATM    7  C   UNK N   1      32.251  21.674  -4.506  0.00  0.00    -0.014 C 
HETATM    8  C   UNK N   1      29.502  23.628  -2.486  0.00  0.00     0.012 C 
HETATM    9  C   UNK N   1      30.884  23.086  -2.887  0.00  0.00     0.007 C 
HETATM   10  C   UNK N   1      27.371  24.676  -3.530  0.00  0.00     0.126 C 
HETATM   11  C   UNK N   1      27.722  23.723  -5.787  0.00  0.00     0.008 C 
HETATM   12  C   UNK N   1      29.770  21.380  -6.198  0.00  0.00     0.010 C 
HETATM   13  C   UNK N   1      26.807  24.646  -4.962  0.00  0.00     0.033 C 
HETATM   14  C   UNK N   1      32.240  20.739  -5.716  0.00  0.00    -0.046 C 
HETATM   15  C   UNK N   1      31.056  20.693  -6.664  0.00  0.00     0.037 C 
HETATM   16  C   UNK N   1      29.624  25.389  -4.251  0.00  0.00     0.018 C 
HETATM   17  C   UNK N   1      33.025  21.013  -3.357  0.00  0.00     0.022 C 
HETATM   18  C   UNK N   1      33.003  22.947  -4.923  0.00  0.00     0.020 C 
HETATM   19  C   UNK N   1      34.466  20.680  -3.759  0.00  0.00     0.086 C 
HETATM   20  C   UNK N   1      33.353  20.022  -6.019  0.00  0.00     0.083 C 
HETATM   21  C   UNK N   1      34.539  20.050  -5.122  0.00  0.00     0.171 C 
ENDROOT
BRANCH  10  22
HETATM   22  O   UNK N   1      26.642  23.772  -2.751  0.00  0.00    -0.395 OA
HETATM   23  H   UNK N   1      26.384  23.009  -2.211  0.00  0.00     0.210 HD
ENDBRANCH  10  22
TORSDOF 1
ENDMDL
MODEL 6
REMARK VINA RESULT:      -7.0      6.770     11.027
REMARK  1 active torsions:
REMARK  status: ('A' for Active; 'I' for Inactive)
REMARK    1  A    between atoms: C_11  and  O_2 
ROOT
HETATM    1 Cl   UNK N   1      33.606  14.216   2.264  0.00  0.00    -0.080 Cl
HETATM    2  O   UNK N   1      31.759  16.563   2.194  0.00  0.00    -0.291 OA
HETATM    3  C   UNK N   1      35.599  14.769   8.789  0.00  0.00     0.001 C 
HETATM    4  C   UNK N   1      34.953  15.569   9.915  0.00  0.00    -0.014 C 
HETATM    5  C   UNK N   1      34.725  14.756   7.524  0.00  0.00    -0.004 C 
HETATM    6  C   UNK N   1      34.454  16.213   7.063  0.00  0.00     0.002 C 
HETATM    7  C   UNK N   1      33.428  16.210   5.899  0.00  0.00    -0.014 C 
HETATM    8  C   UNK N   1      34.831  17.029   9.479  0.00  0.00     0.012 C 
HETATM    9  C   UNK N   1      33.949  17.113   8.222  0.00  0.00     0.007 C 
HETATM   10  C   UNK N   1      35.892  15.287  11.082  0.00  0.00     0.126 C 
HETATM   11  C   UNK N   1      35.884  13.429   9.447  0.00  0.00     0.008 C 
HETATM   12  C   UNK N   1      35.452  14.027   6.396  0.00  0.00     0.010 C 
HETATM   13  C   UNK N   1      36.217  13.793  10.906  0.00  0.00     0.033 C 
HETATM   14  C   UNK N   1      33.824  15.245   4.780  0.00  0.00    -0.046 C 
HETATM   15  C   UNK N   1      34.722  14.052   5.051  0.00  0.00     0.037 C 
HETATM   16  C   UNK N   1      33.560  15.046  10.303  0.00  0.00     0.018 C 
HETATM   17  C   UNK N   1      33.284  17.625   5.325  0.00  0.00     0.022 C 
HETATM   18  C   UNK N   1      32.056  15.760   6.422  0.00  0.00     0.020 C 
HETATM   19  C   UNK N   1      32.236  17.682   4.207  0.00  0.00     0.086 C 
HETATM   20  C   UNK N   1      33.272  15.385   3.548  0.00  0.00     0.083 C 
HETATM   21  C   UNK N   1      32.377  16.535   3.246  0.00  0.00     0.171 C 
ENDROOT
BRANCH  10  22
HETATM   22  O   UNK N   1      37.080  16.013  10.955  0.00  0.00    -0.395 OA
HETATM   23  H   UNK N   1      37.736  16.728  10.952  0.00  0.00     0.210 HD
ENDBRANCH  10  22
TORSDOF 1
ENDMDL
MODEL 7
REMARK VINA RESULT:      -6.9     10.867     13.444
REMARK  1 active torsions:
REMARK  status: ('A' for Active; 'I' for Inactive)
REMARK    1  A    between atoms: C_11  and  O_2 
ROOT
HETATM    1 Cl   UNK N   1      32.726  17.932   8.683  0.00  0.00    -0.080 Cl
HETATM    2  O   UNK N   1      34.549  17.565   6.343  0.00  0.00    -0.291 OA
HETATM    3  C   UNK N   1      26.850  16.300   5.575  0.00  0.00     0.001 C 
HETATM    4  C   UNK N   1      26.646  15.570   4.251  0.00  0.00    -0.014 C 
HETATM    5  C   UNK N   1      28.325  16.290   6.010  0.00  0.00    -0.004 C 
HETATM    6  C   UNK N   1      29.200  16.933   4.901  0.00  0.00     0.002 C 
HETATM    7  C   UNK N   1      30.700  16.762   5.255  0.00  0.00    -0.014 C 
HETATM    8  C   UNK N   1      27.408  16.313   3.154  0.00  0.00     0.012 C 
HETATM    9  C   UNK N   1      28.906  16.334   3.500  0.00  0.00     0.007 C 
HETATM   10  C   UNK N   1      25.127  15.556   4.130  0.00  0.00     0.126 C 
HETATM   11  C   UNK N   1      25.852  15.615   6.495  0.00  0.00     0.008 C 
HETATM   12  C   UNK N   1      28.496  17.111   7.287  0.00  0.00     0.010 C 
HETATM   13  C   UNK N   1      24.672  15.265   5.571  0.00  0.00     0.033 C 
HETATM   14  C   UNK N   1      31.018  17.232   6.676  0.00  0.00    -0.046 C 
HETATM   15  C   UNK N   1      29.947  17.266   7.750  0.00  0.00     0.037 C 
HETATM   16  C   UNK N   1      27.123  14.109   4.289  0.00  0.00     0.018 C 
HETATM   17  C   UNK N   1      31.566  17.540   4.256  0.00  0.00     0.022 C 
HETATM   18  C   UNK N   1      31.084  15.277   5.171  0.00  0.00     0.020 C 
HETATM   19  C   UNK N   1      33.062  17.354   4.532  0.00  0.00     0.086 C 
HETATM   20  C   UNK N   1      32.302  17.510   7.019  0.00  0.00     0.083 C 
HETATM   21  C   UNK N   1      33.382  17.475   5.997  0.00  0.00     0.171 C 
ENDROOT
BRANCH  10  22
HETATM   22  O   UNK N   1      24.642  16.814   3.760  0.00  0.00    -0.395 OA
HETATM   23  H   UNK N   1      24.164  17.658   3.746  0.00  0.00     0.210 HD
ENDBRANCH  10  22
TORSDOF 1
ENDMDL
MODEL 8
REMARK VINA RESULT:      -6.8      1.891      6.472
REMARK  1 active torsions:
REMARK  status: ('A' for Active; 'I' for Inactive)
REMARK    1  A    between atoms: C_11  and  O_2 
ROOT
HETATM    1 Cl   UNK N   1      36.431  15.095  13.422  0.00  0.00    -0.080 Cl
HETATM    2  O   UNK N   1      37.123  13.061  11.343  0.00  0.00    -0.291 OA
HETATM    3  C   UNK N   1      35.059  10.779  18.555  0.00  0.00     0.001 C 
HETATM    4  C   UNK N   1      35.427   9.304  18.679  0.00  0.00    -0.014 C 
HETATM    5  C   UNK N   1      35.728  11.432  17.332  0.00  0.00    -0.004 C 
HETATM    6  C   UNK N   1      35.322  10.665  16.045  0.00  0.00     0.002 C 
HETATM    7  C   UNK N   1      36.134  11.206  14.839  0.00  0.00    -0.014 C 
HETATM    8  C   UNK N   1      34.888   8.554  17.461  0.00  0.00     0.012 C 
HETATM    9  C   UNK N   1      35.524   9.133  16.186  0.00  0.00     0.007 C 
HETATM   10  C   UNK N   1      34.812   8.939  20.025  0.00  0.00     0.126 C 
HETATM   11  C   UNK N   1      35.423  11.335  19.922  0.00  0.00     0.008 C 
HETATM   12  C   UNK N   1      35.257  12.878  17.193  0.00  0.00     0.010 C 
HETATM   13  C   UNK N   1      35.119  10.176  20.888  0.00  0.00     0.033 C 
HETATM   14  C   UNK N   1      36.062  12.730  14.728  0.00  0.00    -0.046 C 
HETATM   15  C   UNK N   1      35.771  13.594  15.941  0.00  0.00     0.037 C 
HETATM   16  C   UNK N   1      36.943   9.068  18.781  0.00  0.00     0.018 C 
HETATM   17  C   UNK N   1      35.620  10.575  13.538  0.00  0.00     0.022 C 
HETATM   18  C   UNK N   1      37.614  10.832  15.004  0.00  0.00     0.020 C 
HETATM   19  C   UNK N   1      36.432  11.037  12.322  0.00  0.00     0.086 C 
HETATM   20  C   UNK N   1      36.379  13.332  13.553  0.00  0.00     0.083 C 
HETATM   21  C   UNK N   1      36.682  12.520  12.344  0.00  0.00     0.171 C 
ENDROOT
BRANCH  10  22
HETATM   22  O   UNK N   1      33.424   8.808  19.923  0.00  0.00    -0.395 OA
HETATM   23  H   UNK N   1      32.468   8.933  20.033  0.00  0.00     0.210 HD
ENDBRANCH  10  22
TORSDOF 1
ENDMDL
MODEL 9
REMARK VINA RESULT:      -6.8      4.117      7.945
REMARK  1 active torsions:
REMARK  status: ('A' for Active; 'I' for Inactive)
REMARK    1  A    between atoms: C_11  and  O_2 
ROOT
HETATM    1 Cl   UNK N   1      34.707  18.456   8.080  0.00  0.00    -0.080 Cl
HETATM    2  O   UNK N   1      34.435  16.605   5.750  0.00  0.00    -0.291 OA
HETATM    3  C   UNK N   1      35.598  13.729  12.950  0.00  0.00     0.001 C 
HETATM    4  C   UNK N   1      35.970  12.259  12.790  0.00  0.00    -0.014 C 
HETATM    5  C   UNK N   1      35.692  14.490  11.616  0.00  0.00    -0.004 C 
HETATM    6  C   UNK N   1      34.772  13.813  10.565  0.00  0.00     0.002 C 
HETATM    7  C   UNK N   1      35.002  14.465   9.175  0.00  0.00    -0.014 C 
HETATM    8  C   UNK N   1      34.959  11.591  11.858  0.00  0.00     0.012 C 
HETATM    9  C   UNK N   1      35.001  12.280  10.484  0.00  0.00     0.007 C 
HETATM   10  C   UNK N   1      35.979  11.777  14.236  0.00  0.00     0.126 C 
HETATM   11  C   UNK N   1      36.511  14.189  14.075  0.00  0.00     0.008 C 
HETATM   12  C   UNK N   1      35.220  15.930  11.804  0.00  0.00     0.010 C 
HETATM   13  C   UNK N   1      36.635  12.952  14.983  0.00  0.00     0.033 C 
HETATM   14  C   UNK N   1      34.904  15.990   9.227  0.00  0.00    -0.046 C 
HETATM   15  C   UNK N   1      35.162  16.752  10.514  0.00  0.00     0.037 C 
HETATM   16  C   UNK N   1      37.384  12.054  12.222  0.00  0.00     0.018 C 
HETATM   17  C   UNK N   1      33.980  13.922   8.168  0.00  0.00     0.022 C 
HETATM   18  C   UNK N   1      36.410  14.117   8.669  0.00  0.00     0.020 C 
HETATM   19  C   UNK N   1      34.205  14.495   6.764  0.00  0.00     0.086 C 
HETATM   20  C   UNK N   1      34.700  16.688   8.080  0.00  0.00     0.083 C 
HETATM   21  C   UNK N   1      34.454  15.978   6.796  0.00  0.00     0.171 C 
ENDROOT
BRANCH  10  22
HETATM   22  O   UNK N   1      34.677  11.619  14.720  0.00  0.00    -0.395 OA
HETATM   23  H   UNK N   1      33.856  11.717  15.227  0.00  0.00     0.210 HD
ENDBRANCH  10  22
TORSDOF 1
ENDMDL
