MODEL 1
REMARK VINA RESULT:      -5.7      0.000      0.000
REMARK  9 active torsions:
REMARK  status: ('A' for Active; 'I' for Inactive)
REMARK    1  A    between atoms: C_6  and  O_1 
REMARK    2  A    between atoms: O_1  and  C_23 
REMARK    3  A    between atoms: C_7  and  N_3 
REMARK    4  A    between atoms: C_4  and  C_5 
REMARK    5  A    between atoms: C_4  and  C_6 
REMARK    6  A    between atoms: C_4  and  C_8 
REMARK    7  A    between atoms: C_4  and  C_9 
REMARK    8  A    between atoms: C_5  and  C_7 
REMARK    9  A    between atoms: C_6  and  C_10 
ROOT
HETATM    1  C   UNK N   1      27.707  23.778  -5.692  0.00  0.00     0.043 C 
ENDROOT
BRANCH   1   2
HETATM    2  C   UNK N   1      26.621  24.394  -4.771  0.00  0.00     0.057 C 
BRANCH   2   3
HETATM    3  C   UNK N   1      26.330  25.921  -4.878  0.00  0.00     0.219 C 
HETATM    4  C   UNK N   1      25.055  26.323  -5.626  0.00  0.00     0.043 C 
BRANCH   3   5
HETATM    5  N   UNK N   1      26.667  26.744  -3.702  0.00  0.00     0.084 N 
HETATM    6  C   UNK N   1      27.967  27.345  -3.950  0.00  0.00     0.309 C 
HETATM    7  C   UNK N   1      25.733  27.851  -3.516  0.00  0.00     0.309 C 
ENDBRANCH   3   5
ENDBRANCH   2   3
ENDBRANCH   1   2
BRANCH   1   8
HETATM    8  C   UNK N   1      28.315  24.895  -6.630  0.00  0.00     0.149 C 
BRANCH   8   9
HETATM    9  O   UNK N   1      29.704  24.871  -6.629  0.00  0.00    -0.315 OA
BRANCH   9  10
HETATM   10  C   UNK N   1      30.543  25.893  -6.318  0.00  0.00     0.255 C 
HETATM   11  O   UNK N   1      30.545  26.937  -6.965  0.00  0.00    -0.266 OA
HETATM   12  C   UNK N   1      31.537  25.714  -5.228  0.00  0.00     0.126 C 
ENDBRANCH   9  10
ENDBRANCH   8   9
BRANCH   8  13
HETATM   13  C   UNK N   1      27.762  24.793  -8.061  0.00  0.00     0.029 C 
HETATM   14  C   UNK N   1      27.317  26.171  -8.523  0.00  0.00     0.007 C 
ENDBRANCH   8  13
ENDBRANCH   1   8
BRANCH   1  15
HETATM   15  C   UNK N   1      27.000  22.797  -6.647  0.00  0.00    -0.042 A 
HETATM   16  C   UNK N   1      25.606  22.642  -6.692  0.00  0.00     0.008 A 
HETATM   17  C   UNK N   1      25.020  21.693  -7.532  0.00  0.00     0.001 A 
HETATM   18  C   UNK N   1      25.819  20.881  -8.340  0.00  0.00     0.000 A 
HETATM   19  C   UNK N   1      27.207  21.017  -8.307  0.00  0.00     0.001 A 
HETATM   20  C   UNK N   1      27.792  21.962  -7.462  0.00  0.00     0.008 A 
ENDBRANCH   1  15
BRANCH   1  21
HETATM   21  C   UNK N   1      28.807  23.236  -4.740  0.00  0.00    -0.042 A 
HETATM   22  C   UNK N   1      28.883  23.744  -3.423  0.00  0.00     0.008 A 
HETATM   23  C   UNK N   1      29.816  23.266  -2.505  0.00  0.00     0.001 A 
HETATM   24  C   UNK N   1      30.673  22.232  -2.870  0.00  0.00     0.000 A 
HETATM   25  C   UNK N   1      30.607  21.697  -4.159  0.00  0.00     0.001 A 
HETATM   26  C   UNK N   1      29.691  22.204  -5.088  0.00  0.00     0.008 A 
ENDBRANCH   1  21
TORSDOF 9
ENDMDL
MODEL 2
REMARK VINA RESULT:      -5.6     11.079     13.840
REMARK  9 active torsions:
REMARK  status: ('A' for Active; 'I' for Inactive)
REMARK    1  A    between atoms: C_6  and  O_1 
REMARK    2  A    between atoms: O_1  and  C_23 
REMARK    3  A    between atoms: C_7  and  N_3 
REMARK    4  A    between atoms: C_4  and  C_5 
REMARK    5  A    between atoms: C_4  and  C_6 
REMARK    6  A    between atoms: C_4  and  C_8 
REMARK    7  A    between atoms: C_4  and  C_9 
REMARK    8  A    between atoms: C_5  and  C_7 
REMARK    9  A    between atoms: C_6  and  C_10 
ROOT
HETATM    1  C   UNK N   1      29.654  17.169   5.455  0.00  0.00     0.043 C 
ENDROOT
BRANCH   1   2
HETATM    2  C   UNK N   1      29.287  18.524   4.793  0.00  0.00     0.057 C 
BRANCH   2   3
HETATM    3  C   UNK N   1      27.854  19.096   5.007  0.00  0.00     0.219 C 
HETATM    4  C   UNK N   1      27.753  20.421   5.769  0.00  0.00     0.043 C 
BRANCH   3   5
HETATM    5  N   UNK N   1      26.898  18.922   3.898  0.00  0.00     0.084 N 
HETATM    6  C   UNK N   1      25.804  18.102   4.389  0.00  0.00     0.309 C 
HETATM    7  C   UNK N   1      26.303  20.188   3.477  0.00  0.00     0.309 C 
ENDBRANCH   3   5
ENDBRANCH   2   3
ENDBRANCH   1   2
BRANCH   1   8
HETATM    8  C   UNK N   1      31.198  16.884   5.277  0.00  0.00     0.149 C 
BRANCH   8   9
HETATM    9  O   UNK N   1      31.456  15.531   5.089  0.00  0.00    -0.315 OA
BRANCH   9  10
HETATM   10  C   UNK N   1      31.916  14.648   6.012  0.00  0.00     0.255 C 
HETATM   11  O   UNK N   1      31.570  13.470   5.999  0.00  0.00    -0.266 OA
HETATM   12  C   UNK N   1      32.790  15.133   7.113  0.00  0.00     0.126 C 
ENDBRANCH   9  10
ENDBRANCH   8   9
BRANCH   8  13
HETATM   13  C   UNK N   1      31.799  17.723   4.137  0.00  0.00     0.029 C 
HETATM   14  C   UNK N   1      32.466  16.797   3.134  0.00  0.00     0.007 C 
ENDBRANCH   8  13
ENDBRANCH   1   8
BRANCH   1  15
HETATM   15  C   UNK N   1      28.948  16.058   4.655  0.00  0.00    -0.042 A 
HETATM   16  C   UNK N   1      28.807  16.090   3.259  0.00  0.00     0.008 A 
HETATM   17  C   UNK N   1      28.102  15.087   2.589  0.00  0.00     0.001 A 
HETATM   18  C   UNK N   1      27.525  14.036   3.306  0.00  0.00     0.000 A 
HETATM   19  C   UNK N   1      27.651  13.989   4.694  0.00  0.00     0.001 A 
HETATM   20  C   UNK N   1      28.349  14.995   5.364  0.00  0.00     0.008 A 
ENDBRANCH   1  15
BRANCH   1  21
HETATM   21  C   UNK N   1      29.322  17.336   6.963  0.00  0.00    -0.042 A 
HETATM   22  C   UNK N   1      30.326  17.813   7.835  0.00  0.00     0.008 A 
HETATM   23  C   UNK N   1      30.077  18.030   9.190  0.00  0.00     0.001 A 
HETATM   24  C   UNK N   1      28.800  17.815   9.698  0.00  0.00     0.000 A 
HETATM   25  C   UNK N   1      27.783  17.362   8.854  0.00  0.00     0.001 A 
HETATM   26  C   UNK N   1      28.046  17.113   7.502  0.00  0.00     0.008 A 
ENDBRANCH   1  21
TORSDOF 9
ENDMDL
MODEL 3
REMARK VINA RESULT:      -5.6     11.470     14.070
REMARK  9 active torsions:
REMARK  status: ('A' for Active; 'I' for Inactive)
REMARK    1  A    between atoms: C_6  and  O_1 
REMARK    2  A    between atoms: O_1  and  C_23 
REMARK    3  A    between atoms: C_7  and  N_3 
REMARK    4  A    between atoms: C_4  and  C_5 
REMARK    5  A    between atoms: C_4  and  C_6 
REMARK    6  A    between atoms: C_4  and  C_8 
REMARK    7  A    between atoms: C_4  and  C_9 
REMARK    8  A    between atoms: C_5  and  C_7 
REMARK    9  A    between atoms: C_6  and  C_10 
ROOT
HETATM    1  C   UNK N   1      28.574  16.892   4.944  0.00  0.00     0.043 C 
ENDROOT
BRANCH   1   2
HETATM    2  C   UNK N   1      29.909  17.672   5.077  0.00  0.00     0.057 C 
BRANCH   2   3
HETATM    3  C   UNK N   1      31.248  16.897   4.896  0.00  0.00     0.219 C 
HETATM    4  C   UNK N   1      32.079  17.248   3.658  0.00  0.00     0.043 C 
BRANCH   3   5
HETATM    5  N   UNK N   1      32.016  16.605   6.120  0.00  0.00     0.084 N 
HETATM    6  C   UNK N   1      32.392  15.202   6.075  0.00  0.00     0.309 C 
HETATM    7  C   UNK N   1      33.264  17.361   6.183  0.00  0.00     0.309 C 
ENDBRANCH   3   5
ENDBRANCH   2   3
ENDBRANCH   1   2
BRANCH   1   8
HETATM    8  C   UNK N   1      28.134  16.334   6.355  0.00  0.00     0.149 C 
BRANCH   8   9
HETATM    9  O   UNK N   1      28.791  16.981   7.395  0.00  0.00    -0.315 OA
BRANCH   9  10
HETATM   10  C   UNK N   1      28.234  17.757   8.361  0.00  0.00     0.255 C 
HETATM   11  O   UNK N   1      27.771  17.266   9.387  0.00  0.00    -0.266 OA
HETATM   12  C   UNK N   1      28.102  19.220   8.134  0.00  0.00     0.126 C 
ENDBRANCH   9  10
ENDBRANCH   8   9
BRANCH   8  13
HETATM   13  C   UNK N   1      26.608  16.403   6.538  0.00  0.00     0.029 C 
HETATM   14  C   UNK N   1      26.074  15.005   6.803  0.00  0.00     0.007 C 
ENDBRANCH   8  13
ENDBRANCH   1   8
BRANCH   1  15
HETATM   15  C   UNK N   1      28.853  15.641   4.090  0.00  0.00    -0.042 A 
HETATM   16  C   UNK N   1      28.843  15.653   2.686  0.00  0.00     0.008 A 
HETATM   17  C   UNK N   1      29.041  14.476   1.961  0.00  0.00     0.001 A 
HETATM   18  C   UNK N   1      29.249  13.267   2.627  0.00  0.00     0.000 A 
HETATM   19  C   UNK N   1      29.259  13.233   4.022  0.00  0.00     0.001 A 
HETATM   20  C   UNK N   1      29.055  14.408   4.746  0.00  0.00     0.008 A 
ENDBRANCH   1  15
BRANCH   1  21
HETATM   21  C   UNK N   1      27.532  17.927   4.441  0.00  0.00    -0.042 A 
HETATM   22  C   UNK N   1      27.836  19.304   4.532  0.00  0.00     0.008 A 
HETATM   23  C   UNK N   1      26.965  20.281   4.054  0.00  0.00     0.001 A 
HETATM   24  C   UNK N   1      25.779  19.901   3.432  0.00  0.00     0.000 A 
HETATM   25  C   UNK N   1      25.461  18.546   3.311  0.00  0.00     0.001 A 
HETATM   26  C   UNK N   1      26.324  17.570   3.822  0.00  0.00     0.008 A 
ENDBRANCH   1  21
TORSDOF 9
ENDMDL
MODEL 4
REMARK VINA RESULT:      -5.6     10.912     13.463
REMARK  9 active torsions:
REMARK  status: ('A' for Active; 'I' for Inactive)
REMARK    1  A    between atoms: C_6  and  O_1 
REMARK    2  A    between atoms: O_1  and  C_23 
REMARK    3  A    between atoms: C_7  and  N_3 
REMARK    4  A    between atoms: C_4  and  C_5 
REMARK    5  A    between atoms: C_4  and  C_6 
REMARK    6  A    between atoms: C_4  and  C_8 
REMARK    7  A    between atoms: C_4  and  C_9 
REMARK    8  A    between atoms: C_5  and  C_7 
REMARK    9  A    between atoms: C_6  and  C_10 
ROOT
HETATM    1  C   UNK N   1      28.447  17.487   5.600  0.00  0.00     0.043 C 
ENDROOT
BRANCH   1   2
HETATM    2  C   UNK N   1      28.279  18.952   5.118  0.00  0.00     0.057 C 
BRANCH   2   3
HETATM    3  C   UNK N   1      27.069  19.778   5.647  0.00  0.00     0.219 C 
HETATM    4  C   UNK N   1      27.358  20.765   6.782  0.00  0.00     0.043 C 
BRANCH   3   5
HETATM    5  N   UNK N   1      26.084  20.226   4.646  0.00  0.00     0.084 N 
HETATM    6  C   UNK N   1      26.729  20.172   3.345  0.00  0.00     0.309 C 
HETATM    7  C   UNK N   1      24.930  19.334   4.567  0.00  0.00     0.309 C 
ENDBRANCH   3   5
ENDBRANCH   2   3
ENDBRANCH   1   2
BRANCH   1   8
HETATM    8  C   UNK N   1      29.678  16.818   4.869  0.00  0.00     0.149 C 
BRANCH   8   9
HETATM    9  O   UNK N   1      30.696  17.732   4.627  0.00  0.00    -0.315 OA
BRANCH   9  10
HETATM   10  C   UNK N   1      31.974  17.459   4.259  0.00  0.00     0.255 C 
HETATM   11  O   UNK N   1      32.917  17.680   5.014  0.00  0.00    -0.266 OA
HETATM   12  C   UNK N   1      32.247  16.963   2.885  0.00  0.00     0.126 C 
ENDBRANCH   9  10
ENDBRANCH   8   9
BRANCH   8  13
HETATM   13  C   UNK N   1      30.203  15.601   5.649  0.00  0.00     0.029 C 
HETATM   14  C   UNK N   1      29.932  14.339   4.845  0.00  0.00     0.007 C 
ENDBRANCH   8  13
ENDBRANCH   1   8
BRANCH   1  15
HETATM   15  C   UNK N   1      27.217  16.697   5.115  0.00  0.00    -0.042 A 
HETATM   16  C   UNK N   1      26.287  16.114   5.990  0.00  0.00     0.008 A 
HETATM   17  C   UNK N   1      25.223  15.354   5.497  0.00  0.00     0.001 A 
HETATM   18  C   UNK N   1      25.074  15.164   4.122  0.00  0.00     0.000 A 
HETATM   19  C   UNK N   1      25.990  15.731   3.237  0.00  0.00     0.001 A 
HETATM   20  C   UNK N   1      27.056  16.485   3.729  0.00  0.00     0.008 A 
ENDBRANCH   1  15
BRANCH   1  21
HETATM   21  C   UNK N   1      28.728  17.577   7.125  0.00  0.00    -0.042 A 
HETATM   22  C   UNK N   1      29.905  18.222   7.567  0.00  0.00     0.008 A 
HETATM   23  C   UNK N   1      30.191  18.378   8.922  0.00  0.00     0.001 A 
HETATM   24  C   UNK N   1      29.282  17.927   9.874  0.00  0.00     0.000 A 
HETATM   25  C   UNK N   1      28.101  17.303   9.466  0.00  0.00     0.001 A 
HETATM   26  C   UNK N   1      27.833  17.119   8.104  0.00  0.00     0.008 A 
ENDBRANCH   1  21
TORSDOF 9
ENDMDL
MODEL 5
REMARK VINA RESULT:      -5.5      1.755      4.689
REMARK  9 active torsions:
REMARK  status: ('A' for Active; 'I' for Inactive)
REMARK    1  A    between atoms: C_6  and  O_1 
REMARK    2  A    between atoms: O_1  and  C_23 
REMARK    3  A    between atoms: C_7  and  N_3 
REMARK    4  A    between atoms: C_4  and  C_5 
REMARK    5  A    between atoms: C_4  and  C_6 
REMARK    6  A    between atoms: C_4  and  C_8 
REMARK    7  A    between atoms: C_4  and  C_9 
REMARK    8  A    between atoms: C_5  and  C_7 
REMARK    9  A    between atoms: C_6  and  C_10 
ROOT
HETATM    1  C   UNK N   1      27.596  25.041  -5.202  0.00  0.00     0.043 C 
ENDROOT
BRANCH   1   2
HETATM    2  C   UNK N   1      26.297  25.485  -4.479  0.00  0.00     0.057 C 
BRANCH   2   3
HETATM    3  C   UNK N   1      25.730  26.907  -4.767  0.00  0.00     0.219 C 
HETATM    4  C   UNK N   1      24.621  27.001  -5.820  0.00  0.00     0.043 C 
BRANCH   3   5
HETATM    5  N   UNK N   1      25.595  27.814  -3.613  0.00  0.00     0.084 N 
HETATM    6  C   UNK N   1      26.399  27.268  -2.533  0.00  0.00     0.309 C 
HETATM    7  C   UNK N   1      26.130  29.145  -3.889  0.00  0.00     0.309 C 
ENDBRANCH   3   5
ENDBRANCH   2   3
ENDBRANCH   1   2
BRANCH   1   8
HETATM    8  C   UNK N   1      27.277  23.864  -6.208  0.00  0.00     0.149 C 
BRANCH   8   9
HETATM    9  O   UNK N   1      28.213  22.841  -6.120  0.00  0.00    -0.315 OA
BRANCH   9  10
HETATM   10  C   UNK N   1      28.992  22.353  -7.120  0.00  0.00     0.255 C 
HETATM   11  O   UNK N   1      29.339  23.060  -8.062  0.00  0.00    -0.266 OA
HETATM   12  C   UNK N   1      29.360  20.913  -7.120  0.00  0.00     0.126 C 
ENDBRANCH   9  10
ENDBRANCH   8   9
BRANCH   8  13
HETATM   13  C   UNK N   1      25.850  23.326  -6.011  0.00  0.00     0.029 C 
HETATM   14  C   UNK N   1      25.443  22.532  -7.241  0.00  0.00     0.007 C 
ENDBRANCH   8  13
ENDBRANCH   1   8
BRANCH   1  15
HETATM   15  C   UNK N   1      28.525  24.419  -4.142  0.00  0.00    -0.042 A 
HETATM   16  C   UNK N   1      29.924  24.423  -4.252  0.00  0.00     0.008 A 
HETATM   17  C   UNK N   1      30.717  23.788  -3.293  0.00  0.00     0.001 A 
HETATM   18  C   UNK N   1      30.123  23.138  -2.209  0.00  0.00     0.000 A 
HETATM   19  C   UNK N   1      28.734  23.120  -2.084  0.00  0.00     0.001 A 
HETATM   20  C   UNK N   1      27.942  23.748  -3.046  0.00  0.00     0.008 A 
ENDBRANCH   1  15
BRANCH   1  21
HETATM   21  C   UNK N   1      28.084  26.286  -5.990  0.00  0.00    -0.042 A 
HETATM   22  C   UNK N   1      27.756  26.401  -7.359  0.00  0.00     0.008 A 
HETATM   23  C   UNK N   1      28.123  27.517  -8.110  0.00  0.00     0.001 A 
HETATM   24  C   UNK N   1      28.794  28.570  -7.496  0.00  0.00     0.000 A 
HETATM   25  C   UNK N   1      29.114  28.492  -6.139  0.00  0.00     0.001 A 
HETATM   26  C   UNK N   1      28.773  27.355  -5.396  0.00  0.00     0.008 A 
ENDBRANCH   1  21
TORSDOF 9
ENDMDL
MODEL 6
REMARK VINA RESULT:      -5.5     27.541     31.106
REMARK  9 active torsions:
REMARK  status: ('A' for Active; 'I' for Inactive)
REMARK    1  A    between atoms: C_6  and  O_1 
REMARK    2  A    between atoms: O_1  and  C_23 
REMARK    3  A    between atoms: C_7  and  N_3 
REMARK    4  A    between atoms: C_4  and  C_5 
REMARK    5  A    between atoms: C_4  and  C_6 
REMARK    6  A    between atoms: C_4  and  C_8 
REMARK    7  A    between atoms: C_4  and  C_9 
REMARK    8  A    between atoms: C_5  and  C_7 
REMARK    9  A    between atoms: C_6  and  C_10 
ROOT
HETATM    1  C   UNK N   1      34.728   9.649  19.945  0.00  0.00     0.043 C 
ENDROOT
BRANCH   1   2
HETATM    2  C   UNK N   1      33.655   8.853  19.155  0.00  0.00     0.057 C 
BRANCH   2   3
HETATM    3  C   UNK N   1      32.698   7.908  19.940  0.00  0.00     0.219 C 
HETATM    4  C   UNK N   1      31.213   8.283  19.939  0.00  0.00     0.043 C 
BRANCH   3   5
HETATM    5  N   UNK N   1      32.992   6.465  19.877  0.00  0.00     0.084 N 
HETATM    6  C   UNK N   1      33.173   5.996  21.241  0.00  0.00     0.309 C 
HETATM    7  C   UNK N   1      31.879   5.697  19.326  0.00  0.00     0.309 C 
ENDBRANCH   3   5
ENDBRANCH   2   3
ENDBRANCH   1   2
BRANCH   1   8
HETATM    8  C   UNK N   1      36.062   8.807  20.039  0.00  0.00     0.149 C 
BRANCH   8   9
HETATM    9  O   UNK N   1      36.048   7.717  19.176  0.00  0.00    -0.315 OA
BRANCH   9  10
HETATM   10  C   UNK N   1      36.629   6.506  19.375  0.00  0.00     0.255 C 
HETATM   11  O   UNK N   1      36.907   5.769  18.433  0.00  0.00    -0.266 OA
HETATM   12  C   UNK N   1      36.854   6.025  20.763  0.00  0.00     0.126 C 
ENDBRANCH   9  10
ENDBRANCH   8   9
BRANCH   8  13
HETATM   13  C   UNK N   1      37.301   9.685  19.799  0.00  0.00     0.029 C 
HETATM   14  C   UNK N   1      38.170   9.674  21.046  0.00  0.00     0.007 C 
ENDBRANCH   8  13
ENDBRANCH   1   8
BRANCH   1  15
HETATM   15  C   UNK N   1      34.233   9.775  21.397  0.00  0.00    -0.042 A 
HETATM   16  C   UNK N   1      33.175  10.617  21.776  0.00  0.00     0.008 A 
HETATM   17  C   UNK N   1      32.807  10.741  23.118  0.00  0.00     0.001 A 
HETATM   18  C   UNK N   1      33.493  10.028  24.103  0.00  0.00     0.000 A 
HETATM   19  C   UNK N   1      34.550   9.189  23.748  0.00  0.00     0.001 A 
HETATM   20  C   UNK N   1      34.921   9.070  22.408  0.00  0.00     0.008 A 
ENDBRANCH   1  15
BRANCH   1  21
HETATM   21  C   UNK N   1      34.981  10.941  19.122  0.00  0.00    -0.042 A 
HETATM   22  C   UNK N   1      35.003  10.862  17.712  0.00  0.00     0.008 A 
HETATM   23  C   UNK N   1      35.177  11.992  16.916  0.00  0.00     0.001 A 
HETATM   24  C   UNK N   1      35.291  13.244  17.514  0.00  0.00     0.000 A 
HETATM   25  C   UNK N   1      35.253  13.355  18.905  0.00  0.00     0.001 A 
HETATM   26  C   UNK N   1      35.112  12.213  19.702  0.00  0.00     0.008 A 
ENDBRANCH   1  21
TORSDOF 9
ENDMDL
MODEL 7
REMARK VINA RESULT:      -5.5      2.064      4.632
REMARK  9 active torsions:
REMARK  status: ('A' for Active; 'I' for Inactive)
REMARK    1  A    between atoms: C_6  and  O_1 
REMARK    2  A    between atoms: O_1  and  C_23 
REMARK    3  A    between atoms: C_7  and  N_3 
REMARK    4  A    between atoms: C_4  and  C_5 
REMARK    5  A    between atoms: C_4  and  C_6 
REMARK    6  A    between atoms: C_4  and  C_8 
REMARK    7  A    between atoms: C_4  and  C_9 
REMARK    8  A    between atoms: C_5  and  C_7 
REMARK    9  A    between atoms: C_6  and  C_10 
ROOT
HETATM    1  C   UNK N   1      28.099  25.256  -5.864  0.00  0.00     0.043 C 
ENDROOT
BRANCH   1   2
HETATM    2  C   UNK N   1      28.908  26.000  -6.960  0.00  0.00     0.057 C 
BRANCH   2   3
HETATM    3  C   UNK N   1      28.149  26.943  -7.939  0.00  0.00     0.219 C 
HETATM    4  C   UNK N   1      28.488  28.435  -7.853  0.00  0.00     0.043 C 
BRANCH   3   5
HETATM    5  N   UNK N   1      27.889  26.424  -9.293  0.00  0.00     0.084 N 
HETATM    6  C   UNK N   1      26.457  26.211  -9.413  0.00  0.00     0.309 C 
HETATM    7  C   UNK N   1      28.248  27.385 -10.333  0.00  0.00     0.309 C 
ENDBRANCH   3   5
ENDBRANCH   2   3
ENDBRANCH   1   2
BRANCH   1   8
HETATM    8  C   UNK N   1      29.083  24.636  -4.795  0.00  0.00     0.149 C 
BRANCH   8   9
HETATM    9  O   UNK N   1      28.516  23.551  -4.137  0.00  0.00    -0.315 OA
BRANCH   9  10
HETATM   10  C   UNK N   1      28.092  23.504  -2.847  0.00  0.00     0.255 C 
HETATM   11  O   UNK N   1      26.979  23.911  -2.525  0.00  0.00    -0.266 OA
HETATM   12  C   UNK N   1      29.024  23.030  -1.791  0.00  0.00     0.126 C 
ENDBRANCH   9  10
ENDBRANCH   8   9
BRANCH   8  13
HETATM   13  C   UNK N   1      30.433  24.255  -5.425  0.00  0.00     0.029 C 
HETATM   14  C   UNK N   1      31.532  24.423  -4.388  0.00  0.00     0.007 C 
ENDBRANCH   8  13
ENDBRANCH   1   8
BRANCH   1  15
HETATM   15  C   UNK N   1      27.422  24.044  -6.533  0.00  0.00    -0.042 A 
HETATM   16  C   UNK N   1      26.151  23.576  -6.164  0.00  0.00     0.008 A 
HETATM   17  C   UNK N   1      25.611  22.434  -6.760  0.00  0.00     0.001 A 
HETATM   18  C   UNK N   1      26.334  21.740  -7.733  0.00  0.00     0.000 A 
HETATM   19  C   UNK N   1      27.600  22.187  -8.109  0.00  0.00     0.001 A 
HETATM   20  C   UNK N   1      28.143  23.325  -7.510  0.00  0.00     0.008 A 
ENDBRANCH   1  15
BRANCH   1  21
HETATM   21  C   UNK N   1      27.209  26.337  -5.194  0.00  0.00    -0.042 A 
HETATM   22  C   UNK N   1      27.759  27.134  -4.164  0.00  0.00     0.008 A 
HETATM   23  C   UNK N   1      27.028  28.153  -3.556  0.00  0.00     0.001 A 
HETATM   24  C   UNK N   1      25.736  28.429  -3.993  0.00  0.00     0.000 A 
HETATM   25  C   UNK N   1      25.174  27.671  -5.023  0.00  0.00     0.001 A 
HETATM   26  C   UNK N   1      25.900  26.626  -5.608  0.00  0.00     0.008 A 
ENDBRANCH   1  21
TORSDOF 9
ENDMDL
MODEL 8
REMARK VINA RESULT:      -5.5      1.522      4.354
REMARK  9 active torsions:
REMARK  status: ('A' for Active; 'I' for Inactive)
REMARK    1  A    between atoms: C_6  and  O_1 
REMARK    2  A    between atoms: O_1  and  C_23 
REMARK    3  A    between atoms: C_7  and  N_3 
REMARK    4  A    between atoms: C_4  and  C_5 
REMARK    5  A    between atoms: C_4  and  C_6 
REMARK    6  A    between atoms: C_4  and  C_8 
REMARK    7  A    between atoms: C_4  and  C_9 
REMARK    8  A    between atoms: C_5  and  C_7 
REMARK    9  A    between atoms: C_6  and  C_10 
ROOT
HETATM    1  C   UNK N   1      27.440  24.151  -6.462  0.00  0.00     0.043 C 
ENDROOT
BRANCH   1   2
HETATM    2  C   UNK N   1      26.342  24.706  -5.516  0.00  0.00     0.057 C 
BRANCH   2   3
HETATM    3  C   UNK N   1      26.297  26.239  -5.242  0.00  0.00     0.219 C 
HETATM    4  C   UNK N   1      25.008  26.966  -5.638  0.00  0.00     0.043 C 
BRANCH   3   5
HETATM    5  N   UNK N   1      26.943  26.711  -4.005  0.00  0.00     0.084 N 
HETATM    6  C   UNK N   1      27.939  27.700  -4.382  0.00  0.00     0.309 C 
HETATM    7  C   UNK N   1      26.006  27.394  -3.117  0.00  0.00     0.309 C 
ENDBRANCH   3   5
ENDBRANCH   2   3
ENDBRANCH   1   2
BRANCH   1   8
HETATM    8  C   UNK N   1      28.675  23.646  -5.616  0.00  0.00     0.149 C 
BRANCH   8   9
HETATM    9  O   UNK N   1      28.418  23.685  -4.251  0.00  0.00    -0.315 OA
BRANCH   9  10
HETATM   10  C   UNK N   1      29.324  23.826  -3.248  0.00  0.00     0.255 C 
HETATM   11  O   UNK N   1      29.203  23.220  -2.188  0.00  0.00    -0.266 OA
HETATM   12  C   UNK N   1      30.437  24.798  -3.404  0.00  0.00     0.126 C 
ENDBRANCH   9  10
ENDBRANCH   8   9
BRANCH   8  13
HETATM   13  C   UNK N   1      29.122  22.241  -6.053  0.00  0.00     0.029 C 
HETATM   14  C   UNK N   1      30.585  22.288  -6.463  0.00  0.00     0.007 C 
ENDBRANCH   8  13
ENDBRANCH   1   8
BRANCH   1  15
HETATM   15  C   UNK N   1      27.979  25.334  -7.287  0.00  0.00    -0.042 A 
HETATM   16  C   UNK N   1      27.250  25.945  -8.320  0.00  0.00     0.008 A 
HETATM   17  C   UNK N   1      27.811  26.974  -9.080  0.00  0.00     0.001 A 
HETATM   18  C   UNK N   1      29.113  27.408  -8.820  0.00  0.00     0.000 A 
HETATM   19  C   UNK N   1      29.856  26.812  -7.801  0.00  0.00     0.001 A 
HETATM   20  C   UNK N   1      29.297  25.780  -7.046  0.00  0.00     0.008 A 
ENDBRANCH   1  15
BRANCH   1  21
HETATM   21  C   UNK N   1      26.788  22.954  -7.204  0.00  0.00    -0.042 A 
HETATM   22  C   UNK N   1      25.557  22.445  -6.732  0.00  0.00     0.008 A 
HETATM   23  C   UNK N   1      24.896  21.403  -7.382  0.00  0.00     0.001 A 
HETATM   24  C   UNK N   1      25.433  20.871  -8.550  0.00  0.00     0.000 A 
HETATM   25  C   UNK N   1      26.638  21.368  -9.051  0.00  0.00     0.001 A 
HETATM   26  C   UNK N   1      27.315  22.391  -8.377  0.00  0.00     0.008 A 
ENDBRANCH   1  21
TORSDOF 9
ENDMDL
MODEL 9
REMARK VINA RESULT:      -5.4      2.023      5.463
REMARK  9 active torsions:
REMARK  status: ('A' for Active; 'I' for Inactive)
REMARK    1  A    between atoms: C_6  and  O_1 
REMARK    2  A    between atoms: O_1  and  C_23 
REMARK    3  A    between atoms: C_7  and  N_3 
REMARK    4  A    between atoms: C_4  and  C_5 
REMARK    5  A    between atoms: C_4  and  C_6 
REMARK    6  A    between atoms: C_4  and  C_8 
REMARK    7  A    between atoms: C_4  and  C_9 
REMARK    8  A    between atoms: C_5  and  C_7 
REMARK    9  A    between atoms: C_6  and  C_10 
ROOT
HETATM    1  C   UNK N   1      28.738  25.618  -5.132  0.00  0.00     0.043 C 
ENDROOT
BRANCH   1   2
HETATM    2  C   UNK N   1      28.723  24.790  -6.444  0.00  0.00     0.057 C 
BRANCH   2   3
HETATM    3  C   UNK N   1      28.415  23.265  -6.362  0.00  0.00     0.219 C 
HETATM    4  C   UNK N   1      26.968  22.843  -6.635  0.00  0.00     0.043 C 
BRANCH   3   5
HETATM    5  N   UNK N   1      29.454  22.350  -6.869  0.00  0.00     0.084 N 
HETATM    6  C   UNK N   1      30.625  23.151  -7.181  0.00  0.00     0.309 C 
HETATM    7  C   UNK N   1      29.878  21.382  -5.862  0.00  0.00     0.309 C 
ENDBRANCH   3   5
ENDBRANCH   2   3
ENDBRANCH   1   2
BRANCH   1   8
HETATM    8  C   UNK N   1      29.917  26.669  -5.173  0.00  0.00     0.149 C 
BRANCH   8   9
HETATM    9  O   UNK N   1      30.017  27.286  -6.414  0.00  0.00    -0.315 OA
BRANCH   9  10
HETATM   10  C   UNK N   1      29.932  28.616  -6.678  0.00  0.00     0.255 C 
HETATM   11  O   UNK N   1      30.919  29.344  -6.617  0.00  0.00    -0.266 OA
HETATM   12  C   UNK N   1      28.604  29.219  -6.962  0.00  0.00     0.126 C 
ENDBRANCH   9  10
ENDBRANCH   8   9
BRANCH   8  13
HETATM   13  C   UNK N   1      29.785  27.709  -4.048  0.00  0.00     0.029 C 
HETATM   14  C   UNK N   1      31.084  27.760  -3.261  0.00  0.00     0.007 C 
ENDBRANCH   8  13
ENDBRANCH   1   8
BRANCH   1  15
HETATM   15  C   UNK N   1      29.100  24.657  -3.984  0.00  0.00    -0.042 A 
HETATM   16  C   UNK N   1      30.418  24.270  -3.695  0.00  0.00     0.008 A 
HETATM   17  C   UNK N   1      30.686  23.346  -2.682  0.00  0.00     0.001 A 
HETATM   18  C   UNK N   1      29.638  22.792  -1.942  0.00  0.00     0.000 A 
HETATM   19  C   UNK N   1      28.321  23.161  -2.217  0.00  0.00     0.001 A 
HETATM   20  C   UNK N   1      28.054  24.079  -3.233  0.00  0.00     0.008 A 
ENDBRANCH   1  15
BRANCH   1  21
HETATM   21  C   UNK N   1      27.375  26.360  -5.088  0.00  0.00    -0.042 A 
HETATM   22  C   UNK N   1      26.541  26.326  -6.228  0.00  0.00     0.008 A 
HETATM   23  C   UNK N   1      25.285  26.931  -6.236  0.00  0.00     0.001 A 
HETATM   24  C   UNK N   1      24.813  27.552  -5.083  0.00  0.00     0.000 A 
HETATM   25  C   UNK N   1      25.608  27.584  -3.936  0.00  0.00     0.001 A 
HETATM   26  C   UNK N   1      26.882  27.004  -3.943  0.00  0.00     0.008 A 
ENDBRANCH   1  21
TORSDOF 9
ENDMDL
