MODEL 1
REMARK VINA RESULT:      -6.9      0.000      0.000
REMARK  8 active torsions:
REMARK  status: ('A' for Active; 'I' for Inactive)
REMARK    1  A    between atoms: N_4  and  C_9 
REMARK    2  A    between atoms: N_5  and  C_10 
REMARK    3  A    between atoms: N_5  and  C_15 
REMARK    4  A    between atoms: N_5  and  C_16 
REMARK    5  A    between atoms: N_8  and  C_22 
REMARK    6  A    between atoms: C_9  and  C_10 
REMARK    7  A    between atoms: C_11  and  C_14 
REMARK    8  A    between atoms: C_14  and  C_19 
ROOT
HETATM    1  N   UNK N   1      30.612  16.715   5.450  0.00  0.00    -0.333 N 
HETATM    2  N   UNK N   1      30.150  17.340   7.563  0.00  0.00    -0.344 N 
ATOM      3  HN  UNK N   1      29.641  17.559   8.420  1.00  0.00     0.167 HD
HETATM    4  C   UNK N   1      29.638  16.923   6.378  0.00  0.00     0.088 A 
HETATM    5  C   UNK N   1      31.760  17.019   6.081  0.00  0.00     0.062 A 
HETATM    6  C   UNK N   1      31.470  17.399   7.356  0.00  0.00     0.063 A 
HETATM    7  C   UNK N   1      33.070  17.012   5.601  0.00  0.00     0.034 A 
HETATM    8  C   UNK N   1      32.440  17.816   8.253  0.00  0.00     0.068 A 
HETATM    9  C   UNK N   1      33.779  17.840   7.815  0.00  0.00     0.105 A 
HETATM   10  C   UNK N   1      34.089  17.429   6.488  0.00  0.00     0.038 A 
ENDROOT
BRANCH   4  11
HETATM   11  C   UNK N   1      28.163  16.726   6.112  0.00  0.00     0.115 C 
BRANCH  11  12
HETATM   12  C   UNK N   1      27.463  17.737   5.233  0.00  0.00    -0.051 A 
HETATM   13  C   UNK N   1      26.239  17.383   4.655  0.00  0.00     0.009 A 
HETATM   14  C   UNK N   1      25.562  18.286   3.828  0.00  0.00     0.024 A 
HETATM   15  C   UNK N   1      26.108  19.547   3.571  0.00  0.00     0.034 A 
HETATM   16 Cl   UNK N   1      25.269  20.678   2.533  0.00  0.00    -0.084 Cl
HETATM   17  C   UNK N   1      27.328  19.907   4.141  0.00  0.00     0.024 A 
HETATM   18  C   UNK N   1      27.999  19.006   4.965  0.00  0.00     0.009 A 
ENDBRANCH  11  12
ENDBRANCH   4  11
BRANCH   1  19
HETATM   19  C   UNK N   1      30.445  16.316   4.054  0.00  0.00     0.161 C 
BRANCH  19  20
HETATM   20  C   UNK N   1      30.587  14.809   3.877  0.00  0.00     0.292 C 
BRANCH  20  21
HETATM   21  N   UNK N   1      29.388  14.284   3.241  0.00  0.00     0.089 N 
BRANCH  21  22
HETATM   22  C   UNK N   1      29.803  13.205   2.353  0.00  0.00     0.268 C 
HETATM   23  C   UNK N   1      31.300  12.972   2.471  0.00  0.00     0.037 C 
ENDBRANCH  21  22
BRANCH  21  24
HETATM   24  C   UNK N   1      28.835  15.353   2.423  0.00  0.00     0.268 C 
HETATM   25  C   UNK N   1      27.374  15.072   2.133  0.00  0.00     0.037 C 
ENDBRANCH  21  24
ENDBRANCH  20  21
ENDBRANCH  19  20
ENDBRANCH   1  19
BRANCH   9  26
HETATM   26  N   UNK N   1      34.804  18.291   8.693  0.00  0.00    -0.116 N 
HETATM   27  O   UNK N   1      35.174  17.551   9.715  0.00  0.00    -0.532 OA
HETATM   28  O   UNK N   1      35.356  19.330   8.489  0.00  0.00    -0.532 OA
ENDBRANCH   9  26
TORSDOF 8
ENDMDL
MODEL 2
REMARK VINA RESULT:      -6.7      1.030      1.790
REMARK  8 active torsions:
REMARK  status: ('A' for Active; 'I' for Inactive)
REMARK    1  A    between atoms: N_4  and  C_9 
REMARK    2  A    between atoms: N_5  and  C_10 
REMARK    3  A    between atoms: N_5  and  C_15 
REMARK    4  A    between atoms: N_5  and  C_16 
REMARK    5  A    between atoms: N_8  and  C_22 
REMARK    6  A    between atoms: C_9  and  C_10 
REMARK    7  A    between atoms: C_11  and  C_14 
REMARK    8  A    between atoms: C_14  and  C_19 
ROOT
HETATM    1  N   UNK N   1      30.736  16.496   5.563  0.00  0.00    -0.333 N 
HETATM    2  N   UNK N   1      30.232  17.336   7.590  0.00  0.00    -0.344 N 
ATOM      3  HN  UNK N   1      29.706  17.648   8.407  1.00  0.00     0.167 HD
HETATM    4  C   UNK N   1      29.743  16.812   6.438  0.00  0.00     0.088 A 
HETATM    5  C   UNK N   1      31.874  16.841   6.193  0.00  0.00     0.062 A 
HETATM    6  C   UNK N   1      31.558  17.352   7.415  0.00  0.00     0.063 A 
HETATM    7  C   UNK N   1      33.194  16.765   5.751  0.00  0.00     0.034 A 
HETATM    8  C   UNK N   1      32.513  17.839   8.293  0.00  0.00     0.068 A 
HETATM    9  C   UNK N   1      33.863  17.796   7.891  0.00  0.00     0.105 A 
HETATM   10  C   UNK N   1      34.199  17.250   6.621  0.00  0.00     0.038 A 
ENDROOT
BRANCH   4  11
HETATM   11  C   UNK N   1      28.271  16.615   6.153  0.00  0.00     0.115 C 
BRANCH  11  12
HETATM   12  C   UNK N   1      27.589  17.613   5.246  0.00  0.00    -0.051 A 
HETATM   13  C   UNK N   1      28.154  18.886   5.110  0.00  0.00     0.009 A 
HETATM   14  C   UNK N   1      27.549  19.843   4.288  0.00  0.00     0.024 A 
HETATM   15  C   UNK N   1      26.373  19.533   3.599  0.00  0.00     0.034 A 
HETATM   16 Cl   UNK N   1      25.609  20.726   2.572  0.00  0.00    -0.084 Cl
HETATM   17  C   UNK N   1      25.802  18.267   3.729  0.00  0.00     0.024 A 
HETATM   18  C   UNK N   1      26.407  17.316   4.548  0.00  0.00     0.009 A 
ENDBRANCH  11  12
ENDBRANCH   4  11
BRANCH   1  19
HETATM   19  C   UNK N   1      30.597  15.964   4.209  0.00  0.00     0.161 C 
BRANCH  19  20
HETATM   20  C   UNK N   1      30.559  14.440   4.204  0.00  0.00     0.292 C 
BRANCH  20  21
HETATM   21  N   UNK N   1      31.896  13.925   3.950  0.00  0.00     0.089 N 
BRANCH  21  22
HETATM   22  C   UNK N   1      32.457  14.695   2.847  0.00  0.00     0.268 C 
HETATM   23  C   UNK N   1      33.974  14.616   2.866  0.00  0.00     0.037 C 
ENDBRANCH  21  22
BRANCH  21  24
HETATM   24  C   UNK N   1      31.747  12.548   3.508  0.00  0.00     0.268 C 
HETATM   25  C   UNK N   1      30.727  12.476   2.390  0.00  0.00     0.037 C 
ENDBRANCH  21  24
ENDBRANCH  20  21
ENDBRANCH  19  20
ENDBRANCH   1  19
BRANCH   9  26
HETATM   26  N   UNK N   1      34.873  18.315   8.748  0.00  0.00    -0.116 N 
HETATM   27  O   UNK N   1      35.267  17.630   9.800  0.00  0.00    -0.532 OA
HETATM   28  O   UNK N   1      35.392  19.362   8.502  0.00  0.00    -0.532 OA
ENDBRANCH   9  26
TORSDOF 8
ENDMDL
MODEL 3
REMARK VINA RESULT:      -6.6      9.068     10.842
REMARK  8 active torsions:
REMARK  status: ('A' for Active; 'I' for Inactive)
REMARK    1  A    between atoms: N_4  and  C_9 
REMARK    2  A    between atoms: N_5  and  C_10 
REMARK    3  A    between atoms: N_5  and  C_15 
REMARK    4  A    between atoms: N_5  and  C_16 
REMARK    5  A    between atoms: N_8  and  C_22 
REMARK    6  A    between atoms: C_9  and  C_10 
REMARK    7  A    between atoms: C_11  and  C_14 
REMARK    8  A    between atoms: C_14  and  C_19 
ROOT
HETATM    1  N   UNK N   1      19.747  16.335   5.258  0.00  0.00    -0.333 N 
HETATM    2  N   UNK N   1      21.154  17.783   6.255  0.00  0.00    -0.344 N 
ATOM      3  HN  UNK N   1      21.721  18.254   6.960  1.00  0.00     0.167 HD
HETATM    4  C   UNK N   1      20.349  16.703   6.422  0.00  0.00     0.088 A 
HETATM    5  C   UNK N   1      20.190  17.218   4.346  0.00  0.00     0.062 A 
HETATM    6  C   UNK N   1      21.035  18.092   4.958  0.00  0.00     0.063 A 
HETATM    7  C   UNK N   1      19.877  17.332   2.992  0.00  0.00     0.034 A 
HETATM    8  C   UNK N   1      21.628  19.152   4.293  0.00  0.00     0.068 A 
HETATM    9  C   UNK N   1      21.337  19.320   2.925  0.00  0.00     0.105 A 
HETATM   10  C   UNK N   1      20.465  18.401   2.277  0.00  0.00     0.038 A 
ENDROOT
BRANCH   4  11
HETATM   11  C   UNK N   1      20.134  16.001   7.744  0.00  0.00     0.115 C 
BRANCH  11  12
HETATM   12  C   UNK N   1      21.202  15.041   8.215  0.00  0.00    -0.051 A 
HETATM   13  C   UNK N   1      22.297  14.799   7.378  0.00  0.00     0.009 A 
HETATM   14  C   UNK N   1      23.304  13.911   7.771  0.00  0.00     0.024 A 
HETATM   15  C   UNK N   1      23.219  13.257   9.004  0.00  0.00     0.034 A 
HETATM   16 Cl   UNK N   1      24.472  12.141   9.500  0.00  0.00    -0.084 Cl
HETATM   17  C   UNK N   1      22.131  13.491   9.844  0.00  0.00     0.024 A 
HETATM   18  C   UNK N   1      21.131  14.377   9.450  0.00  0.00     0.009 A 
ENDBRANCH  11  12
ENDBRANCH   4  11
BRANCH   1  19
HETATM   19  C   UNK N   1      18.779  15.258   5.056  0.00  0.00     0.161 C 
BRANCH  19  20
HETATM   20  C   UNK N   1      19.311  14.193   4.105  0.00  0.00     0.292 C 
BRANCH  20  21
HETATM   21  N   UNK N   1      20.425  13.499   4.733  0.00  0.00     0.089 N 
BRANCH  21  22
HETATM   22  C   UNK N   1      21.436  13.279   3.706  0.00  0.00     0.268 C 
HETATM   23  C   UNK N   1      22.448  14.413   3.711  0.00  0.00     0.037 C 
ENDBRANCH  21  22
BRANCH  21  24
HETATM   24  C   UNK N   1      19.930  12.200   5.163  0.00  0.00     0.268 C 
HETATM   25  C   UNK N   1      20.872  11.609   6.192  0.00  0.00     0.037 C 
ENDBRANCH  21  24
ENDBRANCH  20  21
ENDBRANCH  19  20
ENDBRANCH   1  19
BRANCH   9  26
HETATM   26  N   UNK N   1      21.898  20.415   2.210  0.00  0.00    -0.116 N 
HETATM   27  O   UNK N   1      21.636  20.577   0.931  0.00  0.00    -0.532 OA
HETATM   28  O   UNK N   1      22.586  21.212   2.774  0.00  0.00    -0.532 OA
ENDBRANCH   9  26
TORSDOF 8
ENDMDL
MODEL 4
REMARK VINA RESULT:      -6.5      7.702     10.638
REMARK  8 active torsions:
REMARK  status: ('A' for Active; 'I' for Inactive)
REMARK    1  A    between atoms: N_4  and  C_9 
REMARK    2  A    between atoms: N_5  and  C_10 
REMARK    3  A    between atoms: N_5  and  C_15 
REMARK    4  A    between atoms: N_5  and  C_16 
REMARK    5  A    between atoms: N_8  and  C_22 
REMARK    6  A    between atoms: C_9  and  C_10 
REMARK    7  A    between atoms: C_11  and  C_14 
REMARK    8  A    between atoms: C_14  and  C_19 
ROOT
HETATM    1  N   UNK N   1      35.882  13.306  10.459  0.00  0.00    -0.333 N 
HETATM    2  N   UNK N   1      36.138  15.098  11.800  0.00  0.00    -0.344 N 
ATOM      3  HN  UNK N   1      36.357  15.680  12.608  1.00  0.00     0.167 HD
HETATM    4  C   UNK N   1      36.256  13.750  11.691  0.00  0.00     0.088 A 
HETATM    5  C   UNK N   1      35.518  14.414   9.789  0.00  0.00     0.062 A 
HETATM    6  C   UNK N   1      35.671  15.490  10.608  0.00  0.00     0.063 A 
HETATM    7  C   UNK N   1      35.022  14.548   8.492  0.00  0.00     0.034 A 
HETATM    8  C   UNK N   1      35.339  16.779  10.224  0.00  0.00     0.068 A 
HETATM    9  C   UNK N   1      34.823  16.969   8.926  0.00  0.00     0.105 A 
HETATM   10  C   UNK N   1      34.674  15.849   8.061  0.00  0.00     0.038 A 
ENDROOT
BRANCH   4  11
HETATM   11  C   UNK N   1      36.730  12.847  12.806  0.00  0.00     0.115 C 
BRANCH  11  12
HETATM   12  C   UNK N   1      36.259  13.151  14.209  0.00  0.00    -0.051 A 
HETATM   13  C   UNK N   1      37.039  13.996  15.006  0.00  0.00     0.009 A 
HETATM   14  C   UNK N   1      36.644  14.297  16.314  0.00  0.00     0.024 A 
HETATM   15  C   UNK N   1      35.466  13.751  16.834  0.00  0.00     0.034 A 
HETATM   16 Cl   UNK N   1      34.968  14.119  18.470  0.00  0.00    -0.084 Cl
HETATM   17  C   UNK N   1      34.683  12.907  16.048  0.00  0.00     0.024 A 
HETATM   18  C   UNK N   1      35.079  12.610  14.745  0.00  0.00     0.009 A 
ENDBRANCH  11  12
ENDBRANCH   4  11
BRANCH   1  19
HETATM   19  C   UNK N   1      35.823  11.924   9.989  0.00  0.00     0.161 C 
BRANCH  19  20
HETATM   20  C   UNK N   1      34.445  11.311  10.209  0.00  0.00     0.292 C 
BRANCH  20  21
HETATM   21  N   UNK N   1      34.592  10.015  10.854  0.00  0.00     0.089 N 
BRANCH  21  22
HETATM   22  C   UNK N   1      33.725   9.078  10.150  0.00  0.00     0.268 C 
HETATM   23  C   UNK N   1      32.473   9.785   9.659  0.00  0.00     0.037 C 
ENDBRANCH  21  22
BRANCH  21  24
HETATM   24  C   UNK N   1      34.093  10.156  12.213  0.00  0.00     0.268 C 
HETATM   25  C   UNK N   1      34.914   9.295  13.152  0.00  0.00     0.037 C 
ENDBRANCH  21  24
ENDBRANCH  20  21
ENDBRANCH  19  20
ENDBRANCH   1  19
BRANCH   9  26
HETATM   26  N   UNK N   1      34.438  18.271   8.501  0.00  0.00    -0.116 N 
HETATM   27  O   UNK N   1      35.305  19.260   8.526  0.00  0.00    -0.532 OA
HETATM   28  O   UNK N   1      33.335  18.468   8.088  0.00  0.00    -0.532 OA
ENDBRANCH   9  26
TORSDOF 8
ENDMDL
MODEL 5
REMARK VINA RESULT:      -6.4      7.863     11.049
REMARK  8 active torsions:
REMARK  status: ('A' for Active; 'I' for Inactive)
REMARK    1  A    between atoms: N_4  and  C_9 
REMARK    2  A    between atoms: N_5  and  C_10 
REMARK    3  A    between atoms: N_5  and  C_15 
REMARK    4  A    between atoms: N_5  and  C_16 
REMARK    5  A    between atoms: N_8  and  C_22 
REMARK    6  A    between atoms: C_9  and  C_10 
REMARK    7  A    between atoms: C_11  and  C_14 
REMARK    8  A    between atoms: C_14  and  C_19 
ROOT
HETATM    1  N   UNK N   1      35.366  13.435  11.121  0.00  0.00    -0.333 N 
HETATM    2  N   UNK N   1      36.452  15.288  11.799  0.00  0.00    -0.344 N 
ATOM      3  HN  UNK N   1      37.068  15.916  12.315  1.00  0.00     0.167 HD
HETATM    4  C   UNK N   1      36.255  13.961  12.007  0.00  0.00     0.088 A 
HETATM    5  C   UNK N   1      34.999  14.471  10.344  0.00  0.00     0.062 A 
HETATM    6  C   UNK N   1      35.657  15.586  10.765  0.00  0.00     0.063 A 
HETATM    7  C   UNK N   1      34.088  14.514   9.289  0.00  0.00     0.034 A 
HETATM    8  C   UNK N   1      35.462  16.832  10.192  0.00  0.00     0.068 A 
HETATM    9  C   UNK N   1      34.542  16.934   9.129  0.00  0.00     0.105 A 
HETATM   10  C   UNK N   1      33.863  15.768   8.676  0.00  0.00     0.038 A 
ENDROOT
BRANCH   4  11
HETATM   11  C   UNK N   1      36.930  13.165  13.101  0.00  0.00     0.115 C 
BRANCH  11  12
HETATM   12  C   UNK N   1      36.392  13.300  14.506  0.00  0.00    -0.051 A 
HETATM   13  C   UNK N   1      36.960  14.262  15.348  0.00  0.00     0.009 A 
HETATM   14  C   UNK N   1      36.498  14.414  16.660  0.00  0.00     0.024 A 
HETATM   15  C   UNK N   1      35.466  13.602  17.138  0.00  0.00     0.034 A 
HETATM   16 Cl   UNK N   1      34.886  13.784  18.779  0.00  0.00    -0.084 Cl
HETATM   17  C   UNK N   1      34.894  12.640  16.307  0.00  0.00     0.024 A 
HETATM   18  C   UNK N   1      35.356  12.491  15.001  0.00  0.00     0.009 A 
ENDBRANCH  11  12
ENDBRANCH   4  11
BRANCH   1  19
HETATM   19  C   UNK N   1      34.867  12.063  11.065  0.00  0.00     0.161 C 
BRANCH  19  20
HETATM   20  C   UNK N   1      35.611  11.233  10.026  0.00  0.00     0.292 C 
BRANCH  20  21
HETATM   21  N   UNK N   1      36.207  10.074  10.672  0.00  0.00     0.089 N 
BRANCH  21  22
HETATM   22  C   UNK N   1      35.536   9.896  11.954  0.00  0.00     0.268 C 
HETATM   23  C   UNK N   1      36.505   9.341  12.984  0.00  0.00     0.037 C 
ENDBRANCH  21  22
BRANCH  21  24
HETATM   24  C   UNK N   1      37.600  10.400  10.935  0.00  0.00     0.268 C 
HETATM   25  C   UNK N   1      38.195  11.110   9.735  0.00  0.00     0.037 C 
ENDBRANCH  21  24
ENDBRANCH  20  21
ENDBRANCH  19  20
ENDBRANCH   1  19
BRANCH   9  26
HETATM   26  N   UNK N   1      34.287  18.200   8.532  0.00  0.00    -0.116 N 
HETATM   27  O   UNK N   1      35.232  19.114   8.486  0.00  0.00    -0.532 OA
HETATM   28  O   UNK N   1      33.223  18.431   8.042  0.00  0.00    -0.532 OA
ENDBRANCH   9  26
TORSDOF 8
ENDMDL
MODEL 6
REMARK VINA RESULT:      -6.3      3.699      5.551
REMARK  8 active torsions:
REMARK  status: ('A' for Active; 'I' for Inactive)
REMARK    1  A    between atoms: N_4  and  C_9 
REMARK    2  A    between atoms: N_5  and  C_10 
REMARK    3  A    between atoms: N_5  and  C_15 
REMARK    4  A    between atoms: N_5  and  C_16 
REMARK    5  A    between atoms: N_8  and  C_22 
REMARK    6  A    between atoms: C_9  and  C_10 
REMARK    7  A    between atoms: C_11  and  C_14 
REMARK    8  A    between atoms: C_14  and  C_19 
ROOT
HETATM    1  N   UNK N   1      35.040  15.468   7.859  0.00  0.00    -0.333 N 
HETATM    2  N   UNK N   1      34.189  16.785   9.474  0.00  0.00    -0.344 N 
ATOM      3  HN  UNK N   1      33.740  17.568   9.950  1.00  0.00     0.167 HD
HETATM    4  C   UNK N   1      34.431  16.651   8.145  0.00  0.00     0.088 A 
HETATM    5  C   UNK N   1      35.182  14.855   9.048  0.00  0.00     0.062 A 
HETATM    6  C   UNK N   1      34.669  15.661  10.018  0.00  0.00     0.063 A 
HETATM    7  C   UNK N   1      35.768  13.627   9.353  0.00  0.00     0.034 A 
HETATM    8  C   UNK N   1      34.703  15.330  11.363  0.00  0.00     0.068 A 
HETATM    9  C   UNK N   1      35.295  14.104  11.727  0.00  0.00     0.105 A 
HETATM   10  C   UNK N   1      35.820  13.252  10.715  0.00  0.00     0.038 A 
ENDROOT
BRANCH   4  11
HETATM   11  C   UNK N   1      34.081  17.694   7.109  0.00  0.00     0.115 C 
BRANCH  11  12
HETATM   12  C   UNK N   1      32.858  17.457   6.254  0.00  0.00    -0.051 A 
HETATM   13  C   UNK N   1      32.958  17.666   4.874  0.00  0.00     0.009 A 
HETATM   14  C   UNK N   1      31.847  17.467   4.047  0.00  0.00     0.024 A 
HETATM   15  C   UNK N   1      30.628  17.060   4.597  0.00  0.00     0.034 A 
HETATM   16 Cl   UNK N   1      29.233  16.814   3.570  0.00  0.00    -0.084 Cl
HETATM   17  C   UNK N   1      30.518  16.851   5.971  0.00  0.00     0.024 A 
HETATM   18  C   UNK N   1      31.626  17.049   6.792  0.00  0.00     0.009 A 
ENDBRANCH  11  12
ENDBRANCH   4  11
BRANCH   1  19
HETATM   19  C   UNK N   1      35.500  14.994   6.555  0.00  0.00     0.161 C 
BRANCH  19  20
HETATM   20  C   UNK N   1      34.529  13.992   5.944  0.00  0.00     0.292 C 
BRANCH  20  21
HETATM   21  N   UNK N   1      34.129  14.452   4.623  0.00  0.00     0.089 N 
BRANCH  21  22
HETATM   22  C   UNK N   1      32.785  13.946   4.373  0.00  0.00     0.268 C 
HETATM   23  C   UNK N   1      32.136  13.507   5.675  0.00  0.00     0.037 C 
ENDBRANCH  21  22
BRANCH  21  24
HETATM   24  C   UNK N   1      35.030  13.832   3.663  0.00  0.00     0.268 C 
HETATM   25  C   UNK N   1      34.533  14.088   2.255  0.00  0.00     0.037 C 
ENDBRANCH  21  24
ENDBRANCH  20  21
ENDBRANCH  19  20
ENDBRANCH   1  19
BRANCH   9  26
HETATM   26  N   UNK N   1      35.380  13.739  13.100  0.00  0.00    -0.116 N 
HETATM   27  O   UNK N   1      36.327  14.243  13.862  0.00  0.00    -0.532 OA
HETATM   28  O   UNK N   1      34.575  12.999  13.577  0.00  0.00    -0.532 OA
ENDBRANCH   9  26
TORSDOF 8
ENDMDL
MODEL 7
REMARK VINA RESULT:      -6.2      2.351      4.919
REMARK  8 active torsions:
REMARK  status: ('A' for Active; 'I' for Inactive)
REMARK    1  A    between atoms: N_4  and  C_9 
REMARK    2  A    between atoms: N_5  and  C_10 
REMARK    3  A    between atoms: N_5  and  C_15 
REMARK    4  A    between atoms: N_5  and  C_16 
REMARK    5  A    between atoms: N_8  and  C_22 
REMARK    6  A    between atoms: C_9  and  C_10 
REMARK    7  A    between atoms: C_11  and  C_14 
REMARK    8  A    between atoms: C_14  and  C_19 
ROOT
HETATM    1  N   UNK N   1      30.147  16.942   5.464  0.00  0.00    -0.333 N 
HETATM    2  N   UNK N   1      32.130  17.123   4.413  0.00  0.00    -0.344 N 
ATOM      3  HN  UNK N   1      32.842  17.137   3.683  1.00  0.00     0.167 HD
HETATM    4  C   UNK N   1      30.805  16.863   4.275  0.00  0.00     0.088 A 
HETATM    5  C   UNK N   1      31.096  17.256   6.364  0.00  0.00     0.062 A 
HETATM    6  C   UNK N   1      32.291  17.359   5.720  0.00  0.00     0.063 A 
HETATM    7  C   UNK N   1      30.991  17.435   7.743  0.00  0.00     0.034 A 
HETATM    8  C   UNK N   1      33.478  17.632   6.381  0.00  0.00     0.068 A 
HETATM    9  C   UNK N   1      33.430  17.810   7.778  0.00  0.00     0.105 A 
HETATM   10  C   UNK N   1      32.181  17.717   8.454  0.00  0.00     0.038 A 
ENDROOT
BRANCH   4  11
HETATM   11  C   UNK N   1      30.141  16.513   2.963  0.00  0.00     0.115 C 
BRANCH  11  12
HETATM   12  C   UNK N   1      29.745  15.072   2.735  0.00  0.00    -0.051 A 
HETATM   13  C   UNK N   1      30.667  14.069   3.057  0.00  0.00     0.009 A 
HETATM   14  C   UNK N   1      30.344  12.723   2.853  0.00  0.00     0.024 A 
HETATM   15  C   UNK N   1      29.099  12.372   2.323  0.00  0.00     0.034 A 
HETATM   16 Cl   UNK N   1      28.691  10.691   2.061  0.00  0.00    -0.084 Cl
HETATM   17  C   UNK N   1      28.175  13.365   1.998  0.00  0.00     0.024 A 
HETATM   18  C   UNK N   1      28.499  14.705   2.203  0.00  0.00     0.009 A 
ENDBRANCH  11  12
ENDBRANCH   4  11
BRANCH   1  19
HETATM   19  C   UNK N   1      28.733  16.678   5.720  0.00  0.00     0.161 C 
BRANCH  19  20
HETATM   20  C   UNK N   1      27.964  17.960   6.016  0.00  0.00     0.292 C 
BRANCH  20  21
HETATM   21  N   UNK N   1      28.029  18.839   4.858  0.00  0.00     0.089 N 
BRANCH  21  22
HETATM   22  C   UNK N   1      27.742  20.191   5.321  0.00  0.00     0.268 C 
HETATM   23  C   UNK N   1      27.611  20.214   6.834  0.00  0.00     0.037 C 
ENDBRANCH  21  22
BRANCH  21  24
HETATM   24  C   UNK N   1      26.962  18.436   3.955  0.00  0.00     0.268 C 
HETATM   25  C   UNK N   1      26.203  19.659   3.482  0.00  0.00     0.037 C 
ENDBRANCH  21  24
ENDBRANCH  20  21
ENDBRANCH  19  20
ENDBRANCH   1  19
BRANCH   9  26
HETATM   26  N   UNK N   1      34.630  18.059   8.501  0.00  0.00    -0.116 N 
HETATM   27  O   UNK N   1      35.146  17.126   9.272  0.00  0.00    -0.532 OA
HETATM   28  O   UNK N   1      35.193  19.106   8.390  0.00  0.00    -0.532 OA
ENDBRANCH   9  26
TORSDOF 8
ENDMDL
MODEL 8
REMARK VINA RESULT:      -6.1      8.037     10.921
REMARK  8 active torsions:
REMARK  status: ('A' for Active; 'I' for Inactive)
REMARK    1  A    between atoms: N_4  and  C_9 
REMARK    2  A    between atoms: N_5  and  C_10 
REMARK    3  A    between atoms: N_5  and  C_15 
REMARK    4  A    between atoms: N_5  and  C_16 
REMARK    5  A    between atoms: N_8  and  C_22 
REMARK    6  A    between atoms: C_9  and  C_10 
REMARK    7  A    between atoms: C_11  and  C_14 
REMARK    8  A    between atoms: C_14  and  C_19 
ROOT
HETATM    1  N   UNK N   1      35.516  12.726  12.739  0.00  0.00    -0.333 N 
HETATM    2  N   UNK N   1      36.675  14.447  13.613  0.00  0.00    -0.344 N 
ATOM      3  HN  UNK N   1      37.279  15.264  13.699  1.00  0.00     0.167 HD
HETATM    4  C   UNK N   1      36.361  13.762  12.484  0.00  0.00     0.088 A 
HETATM    5  C   UNK N   1      35.306  12.770  14.067  0.00  0.00     0.062 A 
HETATM    6  C   UNK N   1      36.014  13.810  14.587  0.00  0.00     0.063 A 
HETATM    7  C   UNK N   1      34.544  11.927  14.876  0.00  0.00     0.034 A 
HETATM    8  C   UNK N   1      36.040  14.096  15.942  0.00  0.00     0.068 A 
HETATM    9  C   UNK N   1      35.296  13.269  16.807  0.00  0.00     0.105 A 
HETATM   10  C   UNK N   1      34.543  12.189  16.266  0.00  0.00     0.038 A 
ENDROOT
BRANCH   4  11
HETATM   11  C   UNK N   1      36.896  14.098  11.111  0.00  0.00     0.115 C 
BRANCH  11  12
HETATM   12  C   UNK N   1      36.073  15.018  10.239  0.00  0.00    -0.051 A 
HETATM   13  C   UNK N   1      35.696  14.571   8.968  0.00  0.00     0.009 A 
HETATM   14  C   UNK N   1      34.942  15.394   8.125  0.00  0.00     0.024 A 
HETATM   15  C   UNK N   1      34.563  16.672   8.548  0.00  0.00     0.034 A 
HETATM   16 Cl   UNK N   1      33.624  17.708   7.497  0.00  0.00    -0.084 Cl
HETATM   17  C   UNK N   1      34.935  17.126   9.812  0.00  0.00     0.024 A 
HETATM   18  C   UNK N   1      35.685  16.303  10.650  0.00  0.00     0.009 A 
ENDBRANCH  11  12
ENDBRANCH   4  11
BRANCH   1  19
HETATM   19  C   UNK N   1      35.002  11.739  11.791  0.00  0.00     0.161 C 
BRANCH  19  20
HETATM   20  C   UNK N   1      35.660  10.378  11.982  0.00  0.00     0.292 C 
BRANCH  20  21
HETATM   21  N   UNK N   1      37.097  10.554  12.130  0.00  0.00     0.089 N 
BRANCH  21  22
HETATM   22  C   UNK N   1      37.735   9.896  10.996  0.00  0.00     0.268 C 
HETATM   23  C   UNK N   1      38.323  10.929  10.050  0.00  0.00     0.037 C 
ENDBRANCH  21  22
BRANCH  21  24
HETATM   24  C   UNK N   1      37.491   9.849  13.340  0.00  0.00     0.268 C 
HETATM   25  C   UNK N   1      38.280  10.779  14.240  0.00  0.00     0.037 C 
ENDBRANCH  21  24
ENDBRANCH  20  21
ENDBRANCH  19  20
ENDBRANCH   1  19
BRANCH   9  26
HETATM   26  N   UNK N   1      35.320  13.507  18.209  0.00  0.00    -0.116 N 
HETATM   27  O   UNK N   1      35.315  14.738  18.673  0.00  0.00    -0.532 OA
HETATM   28  O   UNK N   1      35.313  12.591  18.975  0.00  0.00    -0.532 OA
ENDBRANCH   9  26
TORSDOF 8
ENDMDL
MODEL 9
REMARK VINA RESULT:      -6.0      6.326      8.951
REMARK  8 active torsions:
REMARK  status: ('A' for Active; 'I' for Inactive)
REMARK    1  A    between atoms: N_4  and  C_9 
REMARK    2  A    between atoms: N_5  and  C_10 
REMARK    3  A    between atoms: N_5  and  C_15 
REMARK    4  A    between atoms: N_5  and  C_16 
REMARK    5  A    between atoms: N_8  and  C_22 
REMARK    6  A    between atoms: C_9  and  C_10 
REMARK    7  A    between atoms: C_11  and  C_14 
REMARK    8  A    between atoms: C_14  and  C_19 
ROOT
HETATM    1  N   UNK N   1      25.033  16.539   4.570  0.00  0.00    -0.333 N 
HETATM    2  N   UNK N   1      22.845  16.005   4.584  0.00  0.00    -0.344 N 
ATOM      3  HN  UNK N   1      21.976  15.481   4.687  1.00  0.00     0.167 HD
HETATM    4  C   UNK N   1      24.111  15.563   4.794  0.00  0.00     0.088 A 
HETATM    5  C   UNK N   1      24.314  17.616   4.206  0.00  0.00     0.062 A 
HETATM    6  C   UNK N   1      22.994  17.282   4.213  0.00  0.00     0.063 A 
HETATM    7  C   UNK N   1      24.743  18.889   3.833  0.00  0.00     0.034 A 
HETATM    8  C   UNK N   1      21.995  18.167   3.841  0.00  0.00     0.068 A 
HETATM    9  C   UNK N   1      22.375  19.464   3.444  0.00  0.00     0.105 A 
HETATM   10  C   UNK N   1      23.753  19.823   3.449  0.00  0.00     0.038 A 
ENDROOT
BRANCH   4  11
HETATM   11  C   UNK N   1      24.459  14.153   5.212  0.00  0.00     0.115 C 
BRANCH  11  12
HETATM   12  C   UNK N   1      24.151  13.741   6.633  0.00  0.00    -0.051 A 
HETATM   13  C   UNK N   1      22.849  13.331   6.941  0.00  0.00     0.009 A 
HETATM   14  C   UNK N   1      22.519  12.951   8.246  0.00  0.00     0.024 A 
HETATM   15  C   UNK N   1      23.489  12.981   9.252  0.00  0.00     0.034 A 
HETATM   16 Cl   UNK N   1      23.082  12.511  10.887  0.00  0.00    -0.084 Cl
HETATM   17  C   UNK N   1      24.789  13.389   8.955  0.00  0.00     0.024 A 
HETATM   18  C   UNK N   1      25.115  13.767   7.654  0.00  0.00     0.009 A 
ENDBRANCH  11  12
ENDBRANCH   4  11
BRANCH   1  19
HETATM   19  C   UNK N   1      26.488  16.427   4.643  0.00  0.00     0.161 C 
BRANCH  19  20
HETATM   20  C   UNK N   1      27.036  17.017   5.937  0.00  0.00     0.292 C 
BRANCH  20  21
HETATM   21  N   UNK N   1      28.004  18.056   5.621  0.00  0.00     0.089 N 
BRANCH  21  22
HETATM   22  C   UNK N   1      29.308  17.588   6.074  0.00  0.00     0.268 C 
HETATM   23  C   UNK N   1      29.334  17.486   7.590  0.00  0.00     0.037 C 
ENDBRANCH  21  22
BRANCH  21  24
HETATM   24  C   UNK N   1      27.648  19.226   6.408  0.00  0.00     0.268 C 
HETATM   25  C   UNK N   1      27.632  20.454   5.521  0.00  0.00     0.037 C 
ENDBRANCH  21  24
ENDBRANCH  20  21
ENDBRANCH  19  20
ENDBRANCH   1  19
BRANCH   9  26
HETATM   26  N   UNK N   1      21.384  20.395   3.023  0.00  0.00    -0.116 N 
HETATM   27  O   UNK N   1      20.341  20.643   3.786  0.00  0.00    -0.532 OA
HETATM   28  O   UNK N   1      21.509  20.981   1.991  0.00  0.00    -0.532 OA
ENDBRANCH   9  26
TORSDOF 8
ENDMDL
