MODEL 1
REMARK VINA RESULT:      -7.7      0.000      0.000
REMARK  1 active torsions:
REMARK  status: ('A' for Active; 'I' for Inactive)
REMARK    1  A    between atoms: C_2  and  O_19 
ROOT
HETATM    1  C   UNK N   1      25.011  21.332  -7.772  0.00  0.00     0.033 C 
HETATM    2  C   UNK N   1      25.762  21.615  -9.074  0.00  0.00     0.122 C 
HETATM    3  C   UNK N   1      25.511  23.036  -9.572  0.00  0.00     0.066 C 
HETATM    4  C   UNK N   1      25.758  24.053  -8.487  0.00  0.00    -0.072 C 
HETATM    5  C   UNK N   1      26.138  23.580  -7.085  0.00  0.00    -0.017 C 
HETATM    6  C   UNK N   1      25.224  22.406  -6.686  0.00  0.00     0.016 C 
HETATM    7  C   UNK N   1      25.647  25.354  -8.800  0.00  0.00    -0.023 C 
HETATM    8  C   UNK N   1      25.906  26.472  -7.822  0.00  0.00     0.033 C 
HETATM    9  C   UNK N   1      26.624  26.020  -6.543  0.00  0.00    -0.001 C 
HETATM   10  C   UNK N   1      25.965  24.714  -6.035  0.00  0.00     0.003 C 
HETATM   11  C   UNK N   1      26.483  27.102  -5.459  0.00  0.00     0.001 C 
HETATM   12  C   UNK N   1      27.112  26.673  -4.138  0.00  0.00    -0.014 C 
HETATM   13  C   UNK N   1      26.398  25.426  -3.610  0.00  0.00     0.012 C 
HETATM   14  C   UNK N   1      26.505  24.292  -4.646  0.00  0.00     0.007 C 
HETATM   15  C   UNK N   1      27.125  28.452  -5.717  0.00  0.00     0.008 C 
HETATM   16  C   UNK N   1      27.290  29.055  -4.310  0.00  0.00     0.033 C 
HETATM   17  C   UNK N   1      26.955  27.940  -3.302  0.00  0.00     0.126 C 
HETATM   18  C   UNK N   1      27.588  23.094  -7.127  0.00  0.00     0.020 C 
HETATM   19  C   UNK N   1      28.613  26.371  -4.262  0.00  0.00     0.018 C 
HETATM   20  O   UNK N   1      25.626  28.104  -2.893  0.00  0.00    -0.395 OA
HETATM   21  H   UNK N   1      24.696  28.293  -2.695  0.00  0.00     0.210 HD
ENDROOT
BRANCH   2  22
HETATM   22  O   UNK N   1      25.379  20.695 -10.049  0.00  0.00    -0.395 OA
HETATM   23  H   UNK N   1      25.104  21.000 -10.928  0.00  0.00     0.210 HD
ENDBRANCH   2  22
TORSDOF 1
ENDMDL
MODEL 2
REMARK VINA RESULT:      -7.3     26.628     28.796
REMARK  1 active torsions:
REMARK  status: ('A' for Active; 'I' for Inactive)
REMARK    1  A    between atoms: C_2  and  O_19 
ROOT
HETATM    1  C   UNK N   1      36.530   9.580  20.211  0.00  0.00     0.033 C 
HETATM    2  C   UNK N   1      35.204  10.172  20.691  0.00  0.00     0.122 C 
HETATM    3  C   UNK N   1      35.055  11.632  20.272  0.00  0.00     0.066 C 
HETATM    4  C   UNK N   1      35.313  11.814  18.799  0.00  0.00    -0.072 C 
HETATM    5  C   UNK N   1      35.733  10.613  17.954  0.00  0.00    -0.017 C 
HETATM    6  C   UNK N   1      36.812   9.819  18.714  0.00  0.00     0.016 C 
HETATM    7  C   UNK N   1      35.147  13.038  18.272  0.00  0.00    -0.023 C 
HETATM    8  C   UNK N   1      35.331  13.348  16.807  0.00  0.00     0.033 C 
HETATM    9  C   UNK N   1      35.397  12.100  15.916  0.00  0.00    -0.001 C 
HETATM   10  C   UNK N   1      36.324  11.056  16.586  0.00  0.00     0.003 C 
HETATM   11  C   UNK N   1      35.982  12.474  14.543  0.00  0.00     0.001 C 
HETATM   12  C   UNK N   1      36.145  11.257  13.640  0.00  0.00    -0.014 C 
HETATM   13  C   UNK N   1      37.122  10.269  14.281  0.00  0.00     0.012 C 
HETATM   14  C   UNK N   1      36.596   9.843  15.662  0.00  0.00     0.007 C 
HETATM   15  C   UNK N   1      35.193  13.438  13.675  0.00  0.00     0.008 C 
HETATM   16  C   UNK N   1      35.717  13.163  12.254  0.00  0.00     0.033 C 
HETATM   17  C   UNK N   1      36.602  11.906  12.337  0.00  0.00     0.126 C 
HETATM   18  C   UNK N   1      34.505   9.722  17.754  0.00  0.00     0.020 C 
HETATM   19  C   UNK N   1      34.816  10.534  13.368  0.00  0.00     0.018 C 
HETATM   20  O   UNK N   1      37.937  12.316  12.429  0.00  0.00    -0.395 OA
HETATM   21  H   UNK N   1      38.822  12.705  12.510  0.00  0.00     0.210 HD
ENDROOT
BRANCH   2  22
HETATM   22  O   UNK N   1      35.112  10.063  22.077  0.00  0.00    -0.395 OA
HETATM   23  H   UNK N   1      35.100   9.189  22.499  0.00  0.00     0.210 HD
ENDBRANCH   2  22
TORSDOF 1
ENDMDL
MODEL 3
REMARK VINA RESULT:      -7.2      4.419      6.681
REMARK  1 active torsions:
REMARK  status: ('A' for Active; 'I' for Inactive)
REMARK    1  A    between atoms: C_2  and  O_19 
ROOT
HETATM    1  C   UNK N   1      26.017  23.982  -6.441  0.00  0.00     0.033 C 
HETATM    2  C   UNK N   1      26.108  25.259  -5.604  0.00  0.00     0.122 C 
HETATM    3  C   UNK N   1      26.480  24.956  -4.155  0.00  0.00     0.066 C 
HETATM    4  C   UNK N   1      27.701  24.077  -4.070  0.00  0.00    -0.072 C 
HETATM    5  C   UNK N   1      28.348  23.562  -5.354  0.00  0.00    -0.017 C 
HETATM    6  C   UNK N   1      27.245  23.061  -6.306  0.00  0.00     0.016 C 
HETATM    7  C   UNK N   1      28.191  23.786  -2.854  0.00  0.00    -0.023 C 
HETATM    8  C   UNK N   1      29.427  22.952  -2.629  0.00  0.00     0.033 C 
HETATM    9  C   UNK N   1      30.267  22.741  -3.896  0.00  0.00    -0.001 C 
HETATM   10  C   UNK N   1      29.322  22.383  -5.070  0.00  0.00     0.003 C 
HETATM   11  C   UNK N   1      31.251  21.578  -3.679  0.00  0.00     0.001 C 
HETATM   12  C   UNK N   1      32.060  21.271  -4.934  0.00  0.00    -0.014 C 
HETATM   13  C   UNK N   1      31.117  20.845  -6.062  0.00  0.00     0.012 C 
HETATM   14  C   UNK N   1      30.104  21.969  -6.341  0.00  0.00     0.007 C 
HETATM   15  C   UNK N   1      32.322  21.746  -2.617  0.00  0.00     0.008 C 
HETATM   16  C   UNK N   1      33.406  20.732  -3.028  0.00  0.00     0.033 C 
HETATM   17  C   UNK N   1      33.020  20.202  -4.421  0.00  0.00     0.126 C 
HETATM   18  C   UNK N   1      29.086  24.729  -6.014  0.00  0.00     0.020 C 
HETATM   19  C   UNK N   1      32.897  22.468  -5.412  0.00  0.00     0.018 C 
HETATM   20  O   UNK N   1      32.359  18.979  -4.257  0.00  0.00    -0.395 OA
HETATM   21  H   UNK N   1      31.897  18.156  -4.032  0.00  0.00     0.210 HD
ENDROOT
BRANCH   2  22
HETATM   22  O   UNK N   1      24.894  25.942  -5.650  0.00  0.00    -0.395 OA
HETATM   23  H   UNK N   1      24.078  25.473  -5.883  0.00  0.00     0.210 HD
ENDBRANCH   2  22
TORSDOF 1
ENDMDL
MODEL 4
REMARK VINA RESULT:      -7.1     16.709     18.890
REMARK  1 active torsions:
REMARK  status: ('A' for Active; 'I' for Inactive)
REMARK    1  A    between atoms: C_2  and  O_19 
ROOT
HETATM    1  C   UNK N   1      36.436  14.550  10.230  0.00  0.00     0.033 C 
HETATM    2  C   UNK N   1      35.591  15.424  11.158  0.00  0.00     0.122 C 
HETATM    3  C   UNK N   1      35.353  16.809  10.562  0.00  0.00     0.066 C 
HETATM    4  C   UNK N   1      34.827  16.722   9.153  0.00  0.00    -0.072 C 
HETATM    5  C   UNK N   1      34.667  15.354   8.493  0.00  0.00    -0.017 C 
HETATM    6  C   UNK N   1      35.924  14.510   8.776  0.00  0.00     0.016 C 
HETATM    7  C   UNK N   1      34.501  17.863   8.525  0.00  0.00    -0.023 C 
HETATM    8  C   UNK N   1      33.927  17.915   7.131  0.00  0.00     0.033 C 
HETATM    9  C   UNK N   1      33.437  16.555   6.615  0.00  0.00    -0.001 C 
HETATM   10  C   UNK N   1      34.499  15.480   6.951  0.00  0.00     0.003 C 
HETATM   11  C   UNK N   1      33.257  16.614   5.088  0.00  0.00     0.001 C 
HETATM   12  C   UNK N   1      32.845  15.266   4.509  0.00  0.00    -0.014 C 
HETATM   13  C   UNK N   1      33.940  14.232   4.783  0.00  0.00     0.012 C 
HETATM   14  C   UNK N   1      34.171  14.114   6.300  0.00  0.00     0.007 C 
HETATM   15  C   UNK N   1      32.205  17.557   4.535  0.00  0.00     0.008 C 
HETATM   16  C   UNK N   1      31.902  16.987   3.137  0.00  0.00     0.033 C 
HETATM   17  C   UNK N   1      32.612  15.625   3.044  0.00  0.00     0.126 C 
HETATM   18  C   UNK N   1      33.451  14.666   9.118  0.00  0.00     0.020 C 
HETATM   19  C   UNK N   1      31.518  14.748   5.086  0.00  0.00     0.018 C 
HETATM   20  O   UNK N   1      33.829  15.809   2.378  0.00  0.00    -0.395 OA
HETATM   21  H   UNK N   1      34.655  16.050   1.930  0.00  0.00     0.210 HD
ENDROOT
BRANCH   2  22
HETATM   22  O   UNK N   1      36.218  15.541  12.397  0.00  0.00    -0.395 OA
HETATM   23  H   UNK N   1      36.818  14.845  12.709  0.00  0.00     0.210 HD
ENDBRANCH   2  22
TORSDOF 1
ENDMDL
MODEL 5
REMARK VINA RESULT:      -7.1     25.143     27.204
REMARK  1 active torsions:
REMARK  status: ('A' for Active; 'I' for Inactive)
REMARK    1  A    between atoms: C_2  and  O_19 
ROOT
HETATM    1  C   UNK N   1      36.422   9.415  18.054  0.00  0.00     0.033 C 
HETATM    2  C   UNK N   1      35.145  10.076  18.577  0.00  0.00     0.122 C 
HETATM    3  C   UNK N   1      35.199  11.595  18.436  0.00  0.00     0.066 C 
HETATM    4  C   UNK N   1      35.576  12.007  17.036  0.00  0.00    -0.072 C 
HETATM    5  C   UNK N   1      35.908  10.935  16.000  0.00  0.00    -0.017 C 
HETATM    6  C   UNK N   1      36.832   9.884  16.644  0.00  0.00     0.016 C 
HETATM    7  C   UNK N   1      35.592  13.317  16.742  0.00  0.00    -0.023 C 
HETATM    8  C   UNK N   1      35.911  13.862  15.373  0.00  0.00     0.033 C 
HETATM    9  C   UNK N   1      35.890  12.799  14.266  0.00  0.00    -0.001 C 
HETATM   10  C   UNK N   1      36.639  11.540  14.767  0.00  0.00     0.003 C 
HETATM   11  C   UNK N   1      36.607  13.337  13.016  0.00  0.00     0.001 C 
HETATM   12  C   UNK N   1      36.685  12.294  11.907  0.00  0.00    -0.014 C 
HETATM   13  C   UNK N   1      37.494  11.089  12.393  0.00  0.00     0.012 C 
HETATM   14  C   UNK N   1      36.828  10.490  13.644  0.00  0.00     0.007 C 
HETATM   15  C   UNK N   1      35.998  14.536  12.311  0.00  0.00     0.008 C 
HETATM   16  C   UNK N   1      36.581  14.459  10.888  0.00  0.00     0.033 C 
HETATM   17  C   UNK N   1      37.304  13.104  10.772  0.00  0.00     0.126 C 
HETATM   18  C   UNK N   1      34.600  10.261  15.580  0.00  0.00     0.020 C 
HETATM   19  C   UNK N   1      35.302  11.810  11.444  0.00  0.00     0.018 C 
HETATM   20  O   UNK N   1      38.669  13.315  10.999  0.00  0.00    -0.395 OA
HETATM   21  H   UNK N   1      39.586  13.566  11.193  0.00  0.00     0.210 HD
ENDROOT
BRANCH   2  22
HETATM   22  O   UNK N   1      34.947   9.729  19.913  0.00  0.00    -0.395 OA
HETATM   23  H   UNK N   1      34.356  10.257  20.472  0.00  0.00     0.210 HD
ENDBRANCH   2  22
TORSDOF 1
ENDMDL
MODEL 6
REMARK VINA RESULT:      -7.1     17.322     18.985
REMARK  1 active torsions:
REMARK  status: ('A' for Active; 'I' for Inactive)
REMARK    1  A    between atoms: C_2  and  O_19 
ROOT
HETATM    1  C   UNK N   1      31.845  15.447   4.207  0.00  0.00     0.033 C 
HETATM    2  C   UNK N   1      32.653  16.648   3.714  0.00  0.00     0.122 C 
HETATM    3  C   UNK N   1      32.777  17.723   4.791  0.00  0.00     0.066 C 
HETATM    4  C   UNK N   1      33.267  17.145   6.094  0.00  0.00    -0.072 C 
HETATM    5  C   UNK N   1      33.503  15.641   6.209  0.00  0.00    -0.017 C 
HETATM    6  C   UNK N   1      32.317  14.896   5.568  0.00  0.00     0.016 C 
HETATM    7  C   UNK N   1      33.495  17.987   7.115  0.00  0.00    -0.023 C 
HETATM    8  C   UNK N   1      34.023  17.547   8.458  0.00  0.00     0.033 C 
HETATM    9  C   UNK N   1      34.593  16.122   8.459  0.00  0.00    -0.001 C 
HETATM   10  C   UNK N   1      33.618  15.193   7.694  0.00  0.00     0.003 C 
HETATM   11  C   UNK N   1      34.724  15.618   9.907  0.00  0.00     0.001 C 
HETATM   12  C   UNK N   1      35.213  14.175   9.968  0.00  0.00    -0.014 C 
HETATM   13  C   UNK N   1      34.201  13.260   9.274  0.00  0.00     0.012 C 
HETATM   14  C   UNK N   1      34.022  13.702   7.811  0.00  0.00     0.007 C 
HETATM   15  C   UNK N   1      35.692  16.343  10.824  0.00  0.00     0.008 C 
HETATM   16  C   UNK N   1      35.994  15.311  11.926  0.00  0.00     0.033 C 
HETATM   17  C   UNK N   1      35.379  13.975  11.471  0.00  0.00     0.126 C 
HETATM   18  C   UNK N   1      34.782  15.303   5.439  0.00  0.00     0.020 C 
HETATM   19  C   UNK N   1      36.588  13.982   9.310  0.00  0.00     0.018 C 
HETATM   20  O   UNK N   1      34.133  13.832  12.093  0.00  0.00    -0.395 OA
HETATM   21  H   UNK N   1      33.280  13.843  12.555  0.00  0.00     0.210 HD
ENDROOT
BRANCH   2  22
HETATM   22  O   UNK N   1      32.055  17.184   2.575  0.00  0.00    -0.395 OA
HETATM   23  H   UNK N   1      32.542  17.807   2.014  0.00  0.00     0.210 HD
ENDBRANCH   2  22
TORSDOF 1
ENDMDL
MODEL 7
REMARK VINA RESULT:      -7.0     23.907     26.012
REMARK  1 active torsions:
REMARK  status: ('A' for Active; 'I' for Inactive)
REMARK    1  A    between atoms: C_2  and  O_19 
ROOT
HETATM    1  C   UNK N   1      35.308  12.278  18.012  0.00  0.00     0.033 C 
HETATM    2  C   UNK N   1      35.503  10.763  17.929  0.00  0.00     0.122 C 
HETATM    3  C   UNK N   1      34.586  10.135  16.882  0.00  0.00     0.066 C 
HETATM    4  C   UNK N   1      34.694  10.843  15.556  0.00  0.00    -0.072 C 
HETATM    5  C   UNK N   1      35.595  12.070  15.429  0.00  0.00    -0.017 C 
HETATM    6  C   UNK N   1      35.364  12.988  16.645  0.00  0.00     0.016 C 
HETATM    7  C   UNK N   1      33.998  10.354  14.517  0.00  0.00    -0.023 C 
HETATM    8  C   UNK N   1      34.048  10.940  13.129  0.00  0.00     0.033 C 
HETATM    9  C   UNK N   1      35.204  11.928  12.918  0.00  0.00    -0.001 C 
HETATM   10  C   UNK N   1      35.279  12.878  14.138  0.00  0.00     0.003 C 
HETATM   11  C   UNK N   1      34.946  12.765  11.653  0.00  0.00     0.001 C 
HETATM   12  C   UNK N   1      36.026  13.820  11.435  0.00  0.00    -0.014 C 
HETATM   13  C   UNK N   1      36.035  14.795  12.615  0.00  0.00     0.012 C 
HETATM   14  C   UNK N   1      36.296  14.025  13.921  0.00  0.00     0.007 C 
HETATM   15  C   UNK N   1      34.906  12.041  10.320  0.00  0.00     0.008 C 
HETATM   16  C   UNK N   1      35.193  13.150   9.292  0.00  0.00     0.033 C 
HETATM   17  C   UNK N   1      35.613  14.400  10.086  0.00  0.00     0.126 C 
HETATM   18  C   UNK N   1      37.048  11.593  15.431  0.00  0.00     0.020 C 
HETATM   19  C   UNK N   1      37.429  13.213  11.281  0.00  0.00     0.018 C 
HETATM   20  O   UNK N   1      34.494  15.229  10.224  0.00  0.00    -0.395 OA
HETATM   21  H   UNK N   1      33.656  15.715  10.280  0.00  0.00     0.210 HD
ENDROOT
BRANCH   2  22
HETATM   22  O   UNK N   1      35.266  10.188  19.176  0.00  0.00    -0.395 OA
HETATM   23  H   UNK N   1      34.865  10.711  19.888  0.00  0.00     0.210 HD
ENDBRANCH   2  22
TORSDOF 1
ENDMDL
MODEL 8
REMARK VINA RESULT:      -6.9      3.632      6.365
REMARK  1 active torsions:
REMARK  status: ('A' for Active; 'I' for Inactive)
REMARK    1  A    between atoms: C_2  and  O_19 
ROOT
HETATM    1  C   UNK N   1      30.463  22.435  -2.524  0.00  0.00     0.033 C 
HETATM    2  C   UNK N   1      31.739  21.900  -3.176  0.00  0.00     0.122 C 
HETATM    3  C   UNK N   1      31.432  20.831  -4.220  0.00  0.00     0.066 C 
HETATM    4  C   UNK N   1      30.391  21.301  -5.203  0.00  0.00    -0.072 C 
HETATM    5  C   UNK N   1      29.749  22.675  -5.020  0.00  0.00    -0.017 C 
HETATM    6  C   UNK N   1      29.380  22.862  -3.536  0.00  0.00     0.016 C 
HETATM    7  C   UNK N   1      30.072  20.491  -6.226  0.00  0.00    -0.023 C 
HETATM    8  C   UNK N   1      29.079  20.856  -7.301  0.00  0.00     0.033 C 
HETATM    9  C   UNK N   1      28.710  22.345  -7.321  0.00  0.00    -0.001 C 
HETATM   10  C   UNK N   1      28.453  22.817  -5.868  0.00  0.00     0.003 C 
HETATM   11  C   UNK N   1      27.426  22.551  -8.143  0.00  0.00     0.001 C 
HETATM   12  C   UNK N   1      26.968  24.005  -8.134  0.00  0.00    -0.014 C 
HETATM   13  C   UNK N   1      26.645  24.432  -6.700  0.00  0.00     0.012 C 
HETATM   14  C   UNK N   1      27.892  24.259  -5.815  0.00  0.00     0.007 C 
HETATM   15  C   UNK N   1      27.473  22.220  -9.624  0.00  0.00     0.008 C 
HETATM   16  C   UNK N   1      26.303  23.027 -10.216  0.00  0.00     0.033 C 
HETATM   17  C   UNK N   1      25.790  23.957  -9.102  0.00  0.00     0.126 C 
HETATM   18  C   UNK N   1      30.778  23.735  -5.418  0.00  0.00     0.020 C 
HETATM   19  C   UNK N   1      28.018  24.966  -8.713  0.00  0.00     0.018 C 
HETATM   20  O   UNK N   1      24.679  23.352  -8.503  0.00  0.00    -0.395 OA
HETATM   21  H   UNK N   1      23.938  22.838  -8.145  0.00  0.00     0.210 HD
ENDROOT
BRANCH   2  22
HETATM   22  O   UNK N   1      32.586  21.381  -2.198  0.00  0.00    -0.395 OA
HETATM   23  H   UNK N   1      32.535  20.443  -1.955  0.00  0.00     0.210 HD
ENDBRANCH   2  22
TORSDOF 1
ENDMDL
MODEL 9
REMARK VINA RESULT:      -6.9      4.994      6.589
REMARK  1 active torsions:
REMARK  status: ('A' for Active; 'I' for Inactive)
REMARK    1  A    between atoms: C_2  and  O_19 
ROOT
HETATM    1  C   UNK N   1      33.813  20.675  -3.058  0.00  0.00     0.033 C 
HETATM    2  C   UNK N   1      34.309  20.382  -4.475  0.00  0.00     0.122 C 
HETATM    3  C   UNK N   1      33.197  19.815  -5.354  0.00  0.00     0.066 C 
HETATM    4  C   UNK N   1      31.959  20.673  -5.301  0.00  0.00    -0.072 C 
HETATM    5  C   UNK N   1      31.927  21.893  -4.383  0.00  0.00    -0.017 C 
HETATM    6  C   UNK N   1      32.515  21.505  -3.012  0.00  0.00     0.016 C 
HETATM    7  C   UNK N   1      30.920  20.337  -6.083  0.00  0.00    -0.023 C 
HETATM    8  C   UNK N   1      29.640  21.130  -6.156  0.00  0.00     0.033 C 
HETATM    9  C   UNK N   1      29.741  22.525  -5.524  0.00  0.00    -0.001 C 
HETATM   10  C   UNK N   1      30.475  22.406  -4.165  0.00  0.00     0.003 C 
HETATM   11  C   UNK N   1      28.330  23.087  -5.277  0.00  0.00     0.001 C 
HETATM   12  C   UNK N   1      28.368  24.441  -4.577  0.00  0.00    -0.014 C 
HETATM   13  C   UNK N   1      29.028  24.291  -3.204  0.00  0.00     0.012 C 
HETATM   14  C   UNK N   1      30.453  23.737  -3.374  0.00  0.00     0.007 C 
HETATM   15  C   UNK N   1      27.453  23.354  -6.486  0.00  0.00     0.008 C 
HETATM   16  C   UNK N   1      26.422  24.375  -5.971  0.00  0.00     0.033 C 
HETATM   17  C   UNK N   1      26.890  24.821  -4.574  0.00  0.00     0.126 C 
HETATM   18  C   UNK N   1      32.800  22.981  -5.012  0.00  0.00     0.020 C 
HETATM   19  C   UNK N   1      29.129  25.507  -5.380  0.00  0.00     0.018 C 
HETATM   20  O   UNK N   1      26.188  24.077  -3.619  0.00  0.00    -0.395 OA
HETATM   21  H   UNK N   1      25.667  23.495  -3.043  0.00  0.00     0.210 HD
ENDROOT
BRANCH   2  22
HETATM   22  O   UNK N   1      35.378  19.490  -4.427  0.00  0.00    -0.395 OA
HETATM   23  H   UNK N   1      35.255  18.599  -4.064  0.00  0.00     0.210 HD
ENDBRANCH   2  22
TORSDOF 1
ENDMDL
