MODEL 1
REMARK VINA RESULT:      -5.2      0.000      0.000
REMARK  3 active torsions:
REMARK  status: ('A' for Active; 'I' for Inactive)
REMARK    1  A    between atoms: C_11  and  O_1 
REMARK    2  A    between atoms: O_2  and  C_13 
REMARK    3  A    between atoms: C_7  and  C_13 
ROOT
HETATM    1  N   UNK N   1      33.674  15.931   7.066  0.00  0.00     0.094 N 
HETATM    2  C   UNK N   1      34.689  16.492   7.965  0.00  0.00     0.239 C 
HETATM    3  C   UNK N   1      32.423  16.410   7.670  0.00  0.00     0.225 C 
HETATM    4  C   UNK N   1      34.743  15.711   9.315  0.00  0.00     0.145 C 
HETATM    5  C   UNK N   1      34.201  17.927   8.178  0.00  0.00     0.039 C 
HETATM    6  C   UNK N   1      32.701  17.877   7.917  0.00  0.00     0.038 C 
HETATM    7  C   UNK N   1      32.115  15.769   9.046  0.00  0.00     0.068 C 
HETATM    8  C   UNK N   1      33.353  15.175   9.720  0.00  0.00     0.136 C 
HETATM    9  C   UNK N   1      33.742  14.482   6.878  0.00  0.00     0.310 C 
ENDROOT
BRANCH   4  10
HETATM   10  C   UNK N   1      35.539  16.368  10.427  0.00  0.00     0.148 C 
HETATM   11  O   UNK N   1      36.738  16.173  10.542  0.00  0.00    -0.650 OA
BRANCH  10  12
HETATM   12  O   UNK N   1      34.908  17.140  11.334  0.00  0.00    -0.776 OA
HETATM   13  H   UNK N   1      34.390  16.747  12.008  0.00  0.00     0.167 HD
ENDBRANCH  10  12
ENDBRANCH   4  10
BRANCH   8  14
HETATM   14  O   UNK N   1      33.180  14.842  11.063  0.00  0.00    -0.395 OA
HETATM   15  H   UNK N   1      33.104  15.453  11.813  0.00  0.00     0.210 HD
ENDBRANCH   8  14
TORSDOF 3
ENDMDL
MODEL 2
REMARK VINA RESULT:      -4.9      6.804      8.226
REMARK  3 active torsions:
REMARK  status: ('A' for Active; 'I' for Inactive)
REMARK    1  A    between atoms: C_11  and  O_1 
REMARK    2  A    between atoms: O_2  and  C_13 
REMARK    3  A    between atoms: C_7  and  C_13 
ROOT
HETATM    1  N   UNK N   1      34.303  11.243  15.507  0.00  0.00     0.094 N 
HETATM    2  C   UNK N   1      34.693  12.650  15.360  0.00  0.00     0.239 C 
HETATM    3  C   UNK N   1      35.291  10.743  16.473  0.00  0.00     0.225 C 
HETATM    4  C   UNK N   1      35.986  12.791  14.499  0.00  0.00     0.145 C 
HETATM    5  C   UNK N   1      34.945  13.087  16.806  0.00  0.00     0.039 C 
HETATM    6  C   UNK N   1      35.279  11.803  17.554  0.00  0.00     0.038 C 
HETATM    7  C   UNK N   1      36.732  10.686  15.910  0.00  0.00     0.068 C 
HETATM    8  C   UNK N   1      36.936  11.590  14.692  0.00  0.00     0.136 C 
HETATM    9  C   UNK N   1      34.235  10.483  14.259  0.00  0.00     0.310 C 
ENDROOT
BRANCH   4  10
HETATM   10  C   UNK N   1      36.647  14.157  14.518  0.00  0.00     0.148 C 
HETATM   11  O   UNK N   1      36.365  15.004  13.687  0.00  0.00    -0.650 OA
BRANCH  10  12
HETATM   12  O   UNK N   1      37.597  14.426  15.435  0.00  0.00    -0.776 OA
HETATM   13  H   UNK N   1      38.190  15.139  15.304  0.00  0.00     0.167 HD
ENDBRANCH  10  12
ENDBRANCH   4  10
BRANCH   8  14
HETATM   14  O   UNK N   1      38.268  11.783  14.329  0.00  0.00    -0.395 OA
HETATM   15  H   UNK N   1      38.742  12.627  14.262  0.00  0.00     0.210 HD
ENDBRANCH   8  14
TORSDOF 3
ENDMDL
MODEL 3
REMARK VINA RESULT:      -4.9     17.358     18.605
REMARK  3 active torsions:
REMARK  status: ('A' for Active; 'I' for Inactive)
REMARK    1  A    between atoms: C_11  and  O_1 
REMARK    2  A    between atoms: O_2  and  C_13 
REMARK    3  A    between atoms: C_7  and  C_13 
ROOT
HETATM    1  N   UNK N   1      27.180  27.778  -5.524  0.00  0.00     0.094 N 
HETATM    2  C   UNK N   1      27.590  26.852  -4.461  0.00  0.00     0.239 C 
HETATM    3  C   UNK N   1      25.728  27.867  -5.317  0.00  0.00     0.225 C 
HETATM    4  C   UNK N   1      27.193  25.384  -4.805  0.00  0.00     0.145 C 
HETATM    5  C   UNK N   1      26.813  27.364  -3.245  0.00  0.00     0.039 C 
HETATM    6  C   UNK N   1      25.608  28.093  -3.825  0.00  0.00     0.038 C 
HETATM    7  C   UNK N   1      24.975  26.553  -5.638  0.00  0.00     0.068 C 
HETATM    8  C   UNK N   1      25.884  25.323  -5.621  0.00  0.00     0.136 C 
HETATM    9  C   UNK N   1      27.578  27.387  -6.877  0.00  0.00     0.310 C 
ENDROOT
BRANCH   4  10
HETATM   10  C   UNK N   1      27.301  24.386  -3.667  0.00  0.00     0.148 C 
HETATM   11  O   UNK N   1      26.310  24.016  -3.059  0.00  0.00    -0.650 OA
BRANCH  10  12
HETATM   12  O   UNK N   1      28.513  23.936  -3.286  0.00  0.00    -0.776 OA
HETATM   13  H   UNK N   1      28.637  23.588  -2.426  0.00  0.00     0.167 HD
ENDBRANCH  10  12
ENDBRANCH   4  10
BRANCH   8  14
HETATM   14  O   UNK N   1      25.209  24.102  -5.627  0.00  0.00    -0.395 OA
HETATM   15  H   UNK N   1      24.803  23.653  -4.869  0.00  0.00     0.210 HD
ENDBRANCH   8  14
TORSDOF 3
ENDMDL
MODEL 4
REMARK VINA RESULT:      -4.7     13.985     14.962
REMARK  3 active torsions:
REMARK  status: ('A' for Active; 'I' for Inactive)
REMARK    1  A    between atoms: C_11  and  O_1 
REMARK    2  A    between atoms: O_2  and  C_13 
REMARK    3  A    between atoms: C_7  and  C_13 
ROOT
HETATM    1  N   UNK N   1      32.070  22.046  -6.145  0.00  0.00     0.094 N 
HETATM    2  C   UNK N   1      31.261  22.908  -5.275  0.00  0.00     0.239 C 
HETATM    3  C   UNK N   1      31.658  20.701  -5.723  0.00  0.00     0.225 C 
HETATM    4  C   UNK N   1      31.814  22.918  -3.816  0.00  0.00     0.145 C 
HETATM    5  C   UNK N   1      29.879  22.253  -5.336  0.00  0.00     0.039 C 
HETATM    6  C   UNK N   1      30.147  20.798  -5.697  0.00  0.00     0.038 C 
HETATM    7  C   UNK N   1      32.112  20.336  -4.288  0.00  0.00     0.068 C 
HETATM    8  C   UNK N   1      32.444  21.562  -3.435  0.00  0.00     0.136 C 
HETATM    9  C   UNK N   1      33.513  22.285  -6.089  0.00  0.00     0.310 C 
ENDROOT
BRANCH   4  10
HETATM   10  C   UNK N   1      30.904  23.534  -2.769  0.00  0.00     0.148 C 
HETATM   11  O   UNK N   1      30.531  24.691  -2.862  0.00  0.00    -0.650 OA
BRANCH  10  12
HETATM   12  O   UNK N   1      30.541  22.809  -1.692  0.00  0.00    -0.776 OA
HETATM   13  H   UNK N   1      30.947  22.963  -0.862  0.00  0.00     0.167 HD
ENDBRANCH  10  12
ENDBRANCH   4  10
BRANCH   8  14
HETATM   14  O   UNK N   1      32.585  21.300  -2.072  0.00  0.00    -0.395 OA
HETATM   15  H   UNK N   1      33.412  21.242  -1.569  0.00  0.00     0.210 HD
ENDBRANCH   8  14
TORSDOF 3
ENDMDL
MODEL 5
REMARK VINA RESULT:      -4.7      1.948      2.622
REMARK  3 active torsions:
REMARK  status: ('A' for Active; 'I' for Inactive)
REMARK    1  A    between atoms: C_11  and  O_1 
REMARK    2  A    between atoms: O_2  and  C_13 
REMARK    3  A    between atoms: C_7  and  C_13 
ROOT
HETATM    1  N   UNK N   1      32.593  16.414   5.559  0.00  0.00     0.094 N 
HETATM    2  C   UNK N   1      32.938  17.458   6.531  0.00  0.00     0.239 C 
HETATM    3  C   UNK N   1      32.123  15.324   6.425  0.00  0.00     0.225 C 
HETATM    4  C   UNK N   1      34.272  17.126   7.269  0.00  0.00     0.145 C 
HETATM    5  C   UNK N   1      31.752  17.429   7.499  0.00  0.00     0.039 C 
HETATM    6  C   UNK N   1      31.175  16.025   7.375  0.00  0.00     0.038 C 
HETATM    7  C   UNK N   1      33.243  14.692   7.288  0.00  0.00     0.068 C 
HETATM    8  C   UNK N   1      34.461  15.604   7.449  0.00  0.00     0.136 C 
HETATM    9  C   UNK N   1      33.668  16.040   4.640  0.00  0.00     0.310 C 
ENDROOT
BRANCH   4  10
HETATM   10  C   UNK N   1      34.581  17.972   8.490  0.00  0.00     0.148 C 
HETATM   11  O   UNK N   1      35.043  19.095   8.377  0.00  0.00    -0.650 OA
BRANCH  10  12
HETATM   12  O   UNK N   1      34.390  17.460   9.722  0.00  0.00    -0.776 OA
HETATM   13  H   UNK N   1      33.525  17.392  10.075  0.00  0.00     0.167 HD
ENDBRANCH  10  12
ENDBRANCH   4  10
BRANCH   8  14
HETATM   14  O   UNK N   1      35.363  15.200   8.433  0.00  0.00    -0.395 OA
HETATM   15  H   UNK N   1      35.960  15.764   8.949  0.00  0.00     0.210 HD
ENDBRANCH   8  14
TORSDOF 3
ENDMDL
MODEL 6
REMARK VINA RESULT:      -4.7      1.594      2.858
REMARK  3 active torsions:
REMARK  status: ('A' for Active; 'I' for Inactive)
REMARK    1  A    between atoms: C_11  and  O_1 
REMARK    2  A    between atoms: O_2  and  C_13 
REMARK    3  A    between atoms: C_7  and  C_13 
ROOT
HETATM    1  N   UNK N   1      32.193  16.080   7.289  0.00  0.00     0.094 N 
HETATM    2  C   UNK N   1      33.001  15.773   8.475  0.00  0.00     0.239 C 
HETATM    3  C   UNK N   1      33.219  16.342   6.271  0.00  0.00     0.225 C 
HETATM    4  C   UNK N   1      33.635  17.065   9.078  0.00  0.00     0.145 C 
HETATM    5  C   UNK N   1      34.079  14.838   7.920  0.00  0.00     0.039 C 
HETATM    6  C   UNK N   1      34.173  15.178   6.438  0.00  0.00     0.038 C 
HETATM    7  C   UNK N   1      34.031  17.634   6.528  0.00  0.00     0.068 C 
HETATM    8  C   UNK N   1      33.966  18.102   7.983  0.00  0.00     0.136 C 
HETATM    9  C   UNK N   1      31.219  17.158   7.462  0.00  0.00     0.310 C 
ENDROOT
BRANCH   4  10
HETATM   10  C   UNK N   1      34.715  16.846  10.120  0.00  0.00     0.148 C 
HETATM   11  O   UNK N   1      35.765  17.467  10.078  0.00  0.00    -0.650 OA
BRANCH  10  12
HETATM   12  O   UNK N   1      34.538  15.918  11.081  0.00  0.00    -0.776 OA
HETATM   13  H   UNK N   1      34.713  16.128  11.977  0.00  0.00     0.167 HD
ENDBRANCH  10  12
ENDBRANCH   4  10
BRANCH   8  14
HETATM   14  O   UNK N   1      34.895  19.087   8.319  0.00  0.00    -0.395 OA
HETATM   15  H   UNK N   1      35.830  18.960   8.540  0.00  0.00     0.210 HD
ENDBRANCH   8  14
TORSDOF 3
ENDMDL
MODEL 7
REMARK VINA RESULT:      -4.5     14.077     15.126
REMARK  3 active torsions:
REMARK  status: ('A' for Active; 'I' for Inactive)
REMARK    1  A    between atoms: C_11  and  O_1 
REMARK    2  A    between atoms: O_2  and  C_13 
REMARK    3  A    between atoms: C_7  and  C_13 
ROOT
HETATM    1  N   UNK N   1      30.231  23.844  -5.547  0.00  0.00     0.094 N 
HETATM    2  C   UNK N   1      31.119  22.734  -5.184  0.00  0.00     0.239 C 
HETATM    3  C   UNK N   1      30.762  24.948  -4.736  0.00  0.00     0.225 C 
HETATM    4  C   UNK N   1      30.789  22.187  -3.760  0.00  0.00     0.145 C 
HETATM    5  C   UNK N   1      32.506  23.382  -5.217  0.00  0.00     0.039 C 
HETATM    6  C   UNK N   1      32.254  24.866  -4.982  0.00  0.00     0.038 C 
HETATM    7  C   UNK N   1      30.542  24.760  -3.216  0.00  0.00     0.068 C 
HETATM    8  C   UNK N   1      30.284  23.304  -2.823  0.00  0.00     0.136 C 
HETATM    9  C   UNK N   1      28.803  23.584  -5.360  0.00  0.00     0.310 C 
ENDROOT
BRANCH   4  10
HETATM   10  C   UNK N   1      31.814  21.243  -3.160  0.00  0.00     0.148 C 
HETATM   11  O   UNK N   1      32.492  21.577  -2.203  0.00  0.00    -0.650 OA
BRANCH  10  12
HETATM   12  O   UNK N   1      32.018  20.035  -3.721  0.00  0.00    -0.776 OA
HETATM   13  H   UNK N   1      31.289  19.509  -3.984  0.00  0.00     0.167 HD
ENDBRANCH  10  12
ENDBRANCH   4  10
BRANCH   8  14
HETATM   14  O   UNK N   1      30.359  23.050  -1.453  0.00  0.00    -0.395 OA
HETATM   15  H   UNK N   1      29.916  22.339  -0.964  0.00  0.00     0.210 HD
ENDBRANCH   8  14
TORSDOF 3
ENDMDL
MODEL 8
REMARK VINA RESULT:      -4.4      5.870      7.397
REMARK  3 active torsions:
REMARK  status: ('A' for Active; 'I' for Inactive)
REMARK    1  A    between atoms: C_11  and  O_1 
REMARK    2  A    between atoms: O_2  and  C_13 
REMARK    3  A    between atoms: C_7  and  C_13 
ROOT
HETATM    1  N   UNK N   1      35.139  10.693  14.778  0.00  0.00     0.094 N 
HETATM    2  C   UNK N   1      34.669  11.977  14.245  0.00  0.00     0.239 C 
HETATM    3  C   UNK N   1      36.379  11.075  15.467  0.00  0.00     0.225 C 
HETATM    4  C   UNK N   1      35.518  12.424  13.015  0.00  0.00     0.145 C 
HETATM    5  C   UNK N   1      34.869  12.930  15.427  0.00  0.00     0.039 C 
HETATM    6  C   UNK N   1      35.964  12.290  16.270  0.00  0.00     0.038 C 
HETATM    7  C   UNK N   1      37.506  11.530  14.508  0.00  0.00     0.068 C 
HETATM    8  C   UNK N   1      36.986  11.961  13.135  0.00  0.00     0.136 C 
HETATM    9  C   UNK N   1      35.298   9.629  13.786  0.00  0.00     0.310 C 
ENDROOT
BRANCH   4  10
HETATM   10  C   UNK N   1      35.320  13.858  12.561  0.00  0.00     0.148 C 
HETATM   11  O   UNK N   1      36.127  14.726  12.847  0.00  0.00    -0.650 OA
BRANCH  10  12
HETATM   12  O   UNK N   1      34.211  14.193  11.871  0.00  0.00    -0.776 OA
HETATM   13  H   UNK N   1      33.363  14.015  12.228  0.00  0.00     0.167 HD
ENDBRANCH  10  12
ENDBRANCH   4  10
BRANCH   8  14
HETATM   14  O   UNK N   1      37.919  12.633  12.346  0.00  0.00    -0.395 OA
HETATM   15  H   UNK N   1      37.768  13.425  11.806  0.00  0.00     0.210 HD
ENDBRANCH   8  14
TORSDOF 3
ENDMDL
MODEL 9
REMARK VINA RESULT:      -4.4     11.418     12.767
REMARK  3 active torsions:
REMARK  status: ('A' for Active; 'I' for Inactive)
REMARK    1  A    between atoms: C_11  and  O_1 
REMARK    2  A    between atoms: O_2  and  C_13 
REMARK    3  A    between atoms: C_7  and  C_13 
ROOT
HETATM    1  N   UNK N   1      41.791  20.554   2.207  0.00  0.00     0.094 N 
HETATM    2  C   UNK N   1      42.653  20.690   3.387  0.00  0.00     0.239 C 
HETATM    3  C   UNK N   1      42.755  20.648   1.103  0.00  0.00     0.225 C 
HETATM    4  C   UNK N   1      43.120  22.166   3.580  0.00  0.00     0.145 C 
HETATM    5  C   UNK N   1      43.836  19.777   3.051  0.00  0.00     0.039 C 
HETATM    6  C   UNK N   1      43.858  19.703   1.530  0.00  0.00     0.038 C 
HETATM    7  C   UNK N   1      43.393  22.050   0.954  0.00  0.00     0.068 C 
HETATM    8  C   UNK N   1      43.292  22.892   2.228  0.00  0.00     0.136 C 
HETATM    9  C   UNK N   1      40.686  21.511   2.132  0.00  0.00     0.310 C 
ENDROOT
BRANCH   4  10
HETATM   10  C   UNK N   1      44.238  22.380   4.583  0.00  0.00     0.148 C 
HETATM   11  O   UNK N   1      43.996  22.652   5.747  0.00  0.00    -0.650 OA
BRANCH  10  12
HETATM   12  O   UNK N   1      45.521  22.318   4.176  0.00  0.00    -0.776 OA
HETATM   13  H   UNK N   1      45.745  22.525   3.290  0.00  0.00     0.167 HD
ENDBRANCH  10  12
ENDBRANCH   4  10
BRANCH   8  14
HETATM   14  O   UNK N   1      44.087  24.038   2.232  0.00  0.00    -0.395 OA
HETATM   15  H   UNK N   1      45.055  24.080   2.186  0.00  0.00     0.210 HD
ENDBRANCH   8  14
TORSDOF 3
ENDMDL
