MODEL 1
REMARK VINA RESULT:      -7.8      0.000      0.000
REMARK  2 active torsions:
REMARK  status: ('A' for Active; 'I' for Inactive)
REMARK    1  A    between atoms: C_10  and  O_1 
REMARK    2  A    between atoms: C_21  and  O_2 
ROOT
HETATM    1  C   UNK N   1      35.456  12.981  15.119  0.00  0.00     0.001 C 
HETATM    2  C   UNK N   1      35.659  12.378  16.518  0.00  0.00    -0.004 C 
HETATM    3  C   UNK N   1      35.784  11.977  14.021  0.00  0.00    -0.014 C 
HETATM    4  C   UNK N   1      34.791  11.101  16.673  0.00  0.00     0.002 C 
HETATM    5  C   UNK N   1      35.153  10.388  18.002  0.00  0.00    -0.017 C 
HETATM    6  C   UNK N   1      34.800  10.810  14.107  0.00  0.00     0.012 C 
HETATM    7  C   UNK N   1      34.942  10.124  15.476  0.00  0.00     0.007 C 
HETATM    8  C   UNK N   1      35.700  12.843  12.769  0.00  0.00     0.126 C 
HETATM    9  C   UNK N   1      36.316  14.180  14.755  0.00  0.00     0.008 C 
HETATM   10  C   UNK N   1      35.212  13.385  17.583  0.00  0.00     0.010 C 
HETATM   11  C   UNK N   1      36.370  14.152  13.218  0.00  0.00     0.033 C 
HETATM   12  C   UNK N   1      35.226  11.357  19.183  0.00  0.00    -0.072 C 
HETATM   13  C   UNK N   1      35.259  12.857  19.021  0.00  0.00     0.035 C 
HETATM   14  C   UNK N   1      34.102   9.299  18.323  0.00  0.00     0.017 C 
HETATM   15  C   UNK N   1      37.219  11.430  14.113  0.00  0.00     0.018 C 
HETATM   16  C   UNK N   1      36.527   9.714  17.873  0.00  0.00     0.020 C 
HETATM   17  C   UNK N   1      34.191   8.725  19.761  0.00  0.00     0.037 C 
HETATM   18  C   UNK N   1      35.303  10.852  20.422  0.00  0.00     0.008 C 
HETATM   19  C   UNK N   1      35.308   9.361  20.600  0.00  0.00     0.141 C 
ENDROOT
BRANCH   8  20
HETATM   20  O   UNK N   1      34.368  13.120  12.443  0.00  0.00    -0.395 OA
HETATM   21  H   UNK N   1      33.546  13.303  11.961  0.00  0.00     0.210 HD
ENDBRANCH   8  20
BRANCH  19  22
HETATM   22  O   UNK N   1      35.167   9.027  21.945  0.00  0.00    -0.392 OA
HETATM   23  H   UNK N   1      35.922   8.670  22.439  0.00  0.00     0.210 HD
ENDBRANCH  19  22
TORSDOF 2
ENDMDL
MODEL 2
REMARK VINA RESULT:      -7.7     14.607     17.233
REMARK  2 active torsions:
REMARK  status: ('A' for Active; 'I' for Inactive)
REMARK    1  A    between atoms: C_10  and  O_1 
REMARK    2  A    between atoms: C_21  and  O_2 
ROOT
HETATM    1  C   UNK N   1      22.813  13.372   9.891  0.00  0.00     0.001 C 
HETATM    2  C   UNK N   1      21.830  13.853   8.811  0.00  0.00    -0.004 C 
HETATM    3  C   UNK N   1      23.929  12.520   9.297  0.00  0.00    -0.014 C 
HETATM    4  C   UNK N   1      22.595  14.644   7.717  0.00  0.00     0.002 C 
HETATM    5  C   UNK N   1      21.638  14.948   6.535  0.00  0.00    -0.017 C 
HETATM    6  C   UNK N   1      24.759  13.383   8.347  0.00  0.00     0.012 C 
HETATM    7  C   UNK N   1      23.861  13.900   7.212  0.00  0.00     0.007 C 
HETATM    8  C   UNK N   1      24.637  12.016  10.549  0.00  0.00     0.126 C 
HETATM    9  C   UNK N   1      22.249  12.483  10.987  0.00  0.00     0.008 C 
HETATM   10  C   UNK N   1      20.795  14.792   9.437  0.00  0.00     0.010 C 
HETATM   11  C   UNK N   1      23.467  11.690  11.493  0.00  0.00     0.033 C 
HETATM   12  C   UNK N   1      20.285  15.488   7.003  0.00  0.00    -0.072 C 
HETATM   13  C   UNK N   1      19.824  15.430   8.439  0.00  0.00     0.035 C 
HETATM   14  C   UNK N   1      22.281  15.987   5.586  0.00  0.00     0.017 C 
HETATM   15  C   UNK N   1      23.407  11.292   8.531  0.00  0.00     0.018 C 
HETATM   16  C   UNK N   1      21.371  13.662   5.739  0.00  0.00     0.020 C 
HETATM   17  C   UNK N   1      21.309  16.586   4.537  0.00  0.00     0.037 C 
HETATM   18  C   UNK N   1      19.451  16.004   6.089  0.00  0.00     0.008 C 
HETATM   19  C   UNK N   1      19.880  16.038   4.651  0.00  0.00     0.141 C 
ENDROOT
BRANCH   8  20
HETATM   20  O   UNK N   1      25.403  13.031  11.132  0.00  0.00    -0.395 OA
HETATM   21  H   UNK N   1      25.691  13.798  11.650  0.00  0.00     0.210 HD
ENDBRANCH   8  20
BRANCH  19  22
HETATM   22  O   UNK N   1      18.995  16.801   3.893  0.00  0.00    -0.392 OA
HETATM   23  H   UNK N   1      18.151  16.422   3.602  0.00  0.00     0.210 HD
ENDBRANCH  19  22
TORSDOF 2
ENDMDL
MODEL 3
REMARK VINA RESULT:      -7.1      2.157      4.120
REMARK  2 active torsions:
REMARK  status: ('A' for Active; 'I' for Inactive)
REMARK    1  A    between atoms: C_10  and  O_1 
REMARK    2  A    between atoms: C_21  and  O_2 
ROOT
HETATM    1  C   UNK N   1      37.488  12.615  11.855  0.00  0.00     0.001 C 
HETATM    2  C   UNK N   1      36.966  11.894  13.108  0.00  0.00    -0.004 C 
HETATM    3  C   UNK N   1      36.441  13.557  11.271  0.00  0.00    -0.014 C 
HETATM    4  C   UNK N   1      36.519  12.935  14.168  0.00  0.00     0.002 C 
HETATM    5  C   UNK N   1      35.809  12.208  15.340  0.00  0.00    -0.017 C 
HETATM    6  C   UNK N   1      36.150  14.663  12.286  0.00  0.00     0.012 C 
HETATM    7  C   UNK N   1      35.600  14.038  13.578  0.00  0.00     0.007 C 
HETATM    8  C   UNK N   1      37.102  13.990   9.968  0.00  0.00     0.126 C 
HETATM    9  C   UNK N   1      37.866  11.745  10.668  0.00  0.00     0.008 C 
HETATM   10  C   UNK N   1      38.086  11.047  13.719  0.00  0.00     0.010 C 
HETATM   11  C   UNK N   1      37.729  12.682   9.455  0.00  0.00     0.033 C 
HETATM   12  C   UNK N   1      36.581  10.977  15.818  0.00  0.00    -0.072 C 
HETATM   13  C   UNK N   1      37.722  10.365  15.042  0.00  0.00     0.035 C 
HETATM   14  C   UNK N   1      35.633  13.174  16.535  0.00  0.00     0.017 C 
HETATM   15  C   UNK N   1      35.125  12.847  10.912  0.00  0.00     0.018 C 
HETATM   16  C   UNK N   1      34.419  11.734  14.890  0.00  0.00     0.020 C 
HETATM   17  C   UNK N   1      35.206  12.487  17.858  0.00  0.00     0.037 C 
HETATM   18  C   UNK N   1      36.205  10.390  16.962  0.00  0.00     0.008 C 
HETATM   19  C   UNK N   1      35.050  10.965  17.729  0.00  0.00     0.141 C 
ENDROOT
BRANCH   8  20
HETATM   20  O   UNK N   1      38.133  14.905  10.210  0.00  0.00    -0.395 OA
HETATM   21  H   UNK N   1      38.736  15.538  10.630  0.00  0.00     0.210 HD
ENDBRANCH   8  20
BRANCH  19  22
HETATM   22  O   UNK N   1      34.949  10.370  18.984  0.00  0.00    -0.392 OA
HETATM   23  H   UNK N   1      34.200  10.580  19.564  0.00  0.00     0.210 HD
ENDBRANCH  19  22
TORSDOF 2
ENDMDL
MODEL 4
REMARK VINA RESULT:      -7.1     22.702     26.199
REMARK  2 active torsions:
REMARK  status: ('A' for Active; 'I' for Inactive)
REMARK    1  A    between atoms: C_10  and  O_1 
REMARK    2  A    between atoms: C_21  and  O_2 
ROOT
HETATM    1  C   UNK N   1      26.878  24.407  -6.146  0.00  0.00     0.001 C 
HETATM    2  C   UNK N   1      28.069  24.075  -5.234  0.00  0.00    -0.004 C 
HETATM    3  C   UNK N   1      27.272  24.381  -7.618  0.00  0.00    -0.014 C 
HETATM    4  C   UNK N   1      28.656  22.690  -5.616  0.00  0.00     0.002 C 
HETATM    5  C   UNK N   1      29.975  22.454  -4.834  0.00  0.00    -0.017 C 
HETATM    6  C   UNK N   1      27.688  22.959  -7.995  0.00  0.00     0.012 C 
HETATM    7  C   UNK N   1      28.897  22.540  -7.142  0.00  0.00     0.007 C 
HETATM    8  C   UNK N   1      26.013  24.918  -8.289  0.00  0.00     0.126 C 
HETATM    9  C   UNK N   1      26.249  25.781  -5.984  0.00  0.00     0.008 C 
HETATM   10  C   UNK N   1      27.600  24.004  -3.778  0.00  0.00     0.010 C 
HETATM   11  C   UNK N   1      25.584  26.054  -7.344  0.00  0.00     0.033 C 
HETATM   12  C   UNK N   1      29.843  22.797  -3.349  0.00  0.00    -0.072 C 
HETATM   13  C   UNK N   1      28.677  23.568  -2.780  0.00  0.00     0.035 C 
HETATM   14  C   UNK N   1      30.410  20.975  -4.961  0.00  0.00     0.017 C 
HETATM   15  C   UNK N   1      28.423  25.346  -7.951  0.00  0.00     0.018 C 
HETATM   16  C   UNK N   1      31.088  23.339  -5.414  0.00  0.00     0.020 C 
HETATM   17  C   UNK N   1      31.542  20.553  -3.990  0.00  0.00     0.037 C 
HETATM   18  C   UNK N   1      30.827  22.428  -2.517  0.00  0.00     0.008 C 
HETATM   19  C   UNK N   1      32.010  21.691  -3.073  0.00  0.00     0.141 C 
ENDROOT
BRANCH   8  20
HETATM   20  O   UNK N   1      25.002  23.951  -8.300  0.00  0.00    -0.395 OA
HETATM   21  H   UNK N   1      24.263  23.380  -8.562  0.00  0.00     0.210 HD
ENDBRANCH   8  20
BRANCH  19  22
HETATM   22  O   UNK N   1      32.810  21.200  -2.044  0.00  0.00    -0.392 OA
HETATM   23  H   UNK N   1      33.541  21.735  -1.697  0.00  0.00     0.210 HD
ENDBRANCH  19  22
TORSDOF 2
ENDMDL
MODEL 5
REMARK VINA RESULT:      -7.0     23.037     26.060
REMARK  2 active torsions:
REMARK  status: ('A' for Active; 'I' for Inactive)
REMARK    1  A    between atoms: C_10  and  O_1 
REMARK    2  A    between atoms: C_21  and  O_2 
ROOT
HETATM    1  C   UNK N   1      26.729  25.571  -4.186  0.00  0.00     0.001 C 
HETATM    2  C   UNK N   1      27.967  24.710  -3.886  0.00  0.00    -0.004 C 
HETATM    3  C   UNK N   1      26.852  26.285  -5.527  0.00  0.00    -0.014 C 
HETATM    4  C   UNK N   1      28.187  23.685  -5.031  0.00  0.00     0.002 C 
HETATM    5  C   UNK N   1      29.545  22.964  -4.824  0.00  0.00    -0.017 C 
HETATM    6  C   UNK N   1      26.901  25.240  -6.642  0.00  0.00     0.012 C 
HETATM    7  C   UNK N   1      28.127  24.336  -6.439  0.00  0.00     0.007 C 
HETATM    8  C   UNK N   1      25.633  27.199  -5.508  0.00  0.00     0.126 C 
HETATM    9  C   UNK N   1      26.430  26.705  -3.220  0.00  0.00     0.008 C 
HETATM   10  C   UNK N   1      27.750  23.929  -2.587  0.00  0.00     0.010 C 
HETATM   11  C   UNK N   1      25.611  27.705  -4.055  0.00  0.00     0.033 C 
HETATM   12  C   UNK N   1      29.741  22.489  -3.384  0.00  0.00    -0.072 C 
HETATM   13  C   UNK N   1      28.871  22.945  -2.238  0.00  0.00     0.035 C 
HETATM   14  C   UNK N   1      29.642  21.739  -5.764  0.00  0.00     0.017 C 
HETATM   15  C   UNK N   1      28.101  27.179  -5.622  0.00  0.00     0.018 C 
HETATM   16  C   UNK N   1      30.698  23.923  -5.155  0.00  0.00     0.020 C 
HETATM   17  C   UNK N   1      30.815  20.776  -5.444  0.00  0.00     0.037 C 
HETATM   18  C   UNK N   1      30.757  21.657  -3.116  0.00  0.00     0.008 C 
HETATM   19  C   UNK N   1      31.654  21.222  -4.239  0.00  0.00     0.141 C 
ENDROOT
BRANCH   8  20
HETATM   20  O   UNK N   1      24.460  26.471  -5.737  0.00  0.00    -0.395 OA
HETATM   21  H   UNK N   1      23.821  25.805  -6.035  0.00  0.00     0.210 HD
ENDBRANCH   8  20
BRANCH  19  22
HETATM   22  O   UNK N   1      32.501  20.199  -3.821  0.00  0.00    -0.392 OA
HETATM   23  H   UNK N   1      33.420  20.395  -3.579  0.00  0.00     0.210 HD
ENDBRANCH  19  22
TORSDOF 2
ENDMDL
MODEL 6
REMARK VINA RESULT:      -7.0     25.944     27.944
REMARK  2 active torsions:
REMARK  status: ('A' for Active; 'I' for Inactive)
REMARK    1  A    between atoms: C_10  and  O_1 
REMARK    2  A    between atoms: C_21  and  O_2 
ROOT
HETATM    1  C   UNK N   1      27.301  26.537  -4.342  0.00  0.00     0.001 C 
HETATM    2  C   UNK N   1      27.849  25.384  -5.199  0.00  0.00    -0.004 C 
HETATM    3  C   UNK N   1      26.414  27.471  -5.156  0.00  0.00    -0.014 C 
HETATM    4  C   UNK N   1      26.673  24.598  -5.838  0.00  0.00     0.002 C 
HETATM    5  C   UNK N   1      27.232  23.571  -6.858  0.00  0.00    -0.017 C 
HETATM    6  C   UNK N   1      25.184  26.697  -5.631  0.00  0.00     0.012 C 
HETATM    7  C   UNK N   1      25.630  25.525  -6.519  0.00  0.00     0.007 C 
HETATM    8  C   UNK N   1      26.163  28.604  -4.168  0.00  0.00     0.126 C 
HETATM    9  C   UNK N   1      28.321  27.482  -3.728  0.00  0.00     0.008 C 
HETATM   10  C   UNK N   1      28.640  24.415  -4.315  0.00  0.00     0.010 C 
HETATM   11  C   UNK N   1      27.538  28.788  -3.506  0.00  0.00     0.033 C 
HETATM   12  C   UNK N   1      28.412  22.775  -6.297  0.00  0.00    -0.072 C 
HETATM   13  C   UNK N   1      29.143  23.160  -5.035  0.00  0.00     0.035 C 
HETATM   14  C   UNK N   1      26.121  22.578  -7.273  0.00  0.00     0.017 C 
HETATM   15  C   UNK N   1      27.131  28.070  -6.379  0.00  0.00     0.018 C 
HETATM   16  C   UNK N   1      27.725  24.303  -8.115  0.00  0.00     0.020 C 
HETATM   17  C   UNK N   1      26.628  21.338  -8.053  0.00  0.00     0.037 C 
HETATM   18  C   UNK N   1      28.843  21.705  -6.979  0.00  0.00     0.008 C 
HETATM   19  C   UNK N   1      28.149  21.328  -8.255  0.00  0.00     0.141 C 
ENDROOT
BRANCH   8  20
HETATM   20  O   UNK N   1      25.249  28.214  -3.183  0.00  0.00    -0.395 OA
HETATM   21  H   UNK N   1      24.442  27.955  -2.712  0.00  0.00     0.210 HD
ENDBRANCH   8  20
BRANCH  19  22
HETATM   22  O   UNK N   1      28.582  20.081  -8.699  0.00  0.00    -0.392 OA
HETATM   23  H   UNK N   1      29.226  19.575  -8.180  0.00  0.00     0.210 HD
ENDBRANCH  19  22
TORSDOF 2
ENDMDL
MODEL 7
REMARK VINA RESULT:      -6.9     23.246     26.113
REMARK  2 active torsions:
REMARK  status: ('A' for Active; 'I' for Inactive)
REMARK    1  A    between atoms: C_10  and  O_1 
REMARK    2  A    between atoms: C_21  and  O_2 
ROOT
HETATM    1  C   UNK N   1      27.971  26.989  -4.138  0.00  0.00     0.001 C 
HETATM    2  C   UNK N   1      29.099  25.995  -4.457  0.00  0.00    -0.004 C 
HETATM    3  C   UNK N   1      26.603  26.426  -4.503  0.00  0.00    -0.014 C 
HETATM    4  C   UNK N   1      28.846  24.655  -3.715  0.00  0.00     0.002 C 
HETATM    5  C   UNK N   1      29.870  23.595  -4.199  0.00  0.00    -0.017 C 
HETATM    6  C   UNK N   1      26.324  25.201  -3.632  0.00  0.00     0.012 C 
HETATM    7  C   UNK N   1      27.396  24.132  -3.897  0.00  0.00     0.007 C 
HETATM    8  C   UNK N   1      25.699  27.633  -4.286  0.00  0.00     0.126 C 
HETATM    9  C   UNK N   1      28.001  28.320  -4.871  0.00  0.00     0.008 C 
HETATM   10  C   UNK N   1      30.437  26.559  -3.972  0.00  0.00     0.010 C 
HETATM   11  C   UNK N   1      26.536  28.791  -4.856  0.00  0.00     0.033 C 
HETATM   12  C   UNK N   1      31.299  24.138  -4.240  0.00  0.00    -0.072 C 
HETATM   13  C   UNK N   1      31.627  25.607  -4.131  0.00  0.00     0.035 C 
HETATM   14  C   UNK N   1      29.838  22.362  -3.265  0.00  0.00     0.017 C 
HETATM   15  C   UNK N   1      26.494  26.024  -5.984  0.00  0.00     0.018 C 
HETATM   16  C   UNK N   1      29.509  23.137  -5.620  0.00  0.00     0.020 C 
HETATM   17  C   UNK N   1      31.013  21.371  -3.470  0.00  0.00     0.037 C 
HETATM   18  C   UNK N   1      32.308  23.274  -4.418  0.00  0.00     0.008 C 
HETATM   19  C   UNK N   1      31.995  21.813  -4.563  0.00  0.00     0.141 C 
ENDROOT
BRANCH   8  20
HETATM   20  O   UNK N   1      25.499  27.867  -2.921  0.00  0.00    -0.395 OA
HETATM   21  H   UNK N   1      25.464  28.275  -2.042  0.00  0.00     0.210 HD
ENDBRANCH   8  20
BRANCH  19  22
HETATM   22  O   UNK N   1      33.163  21.055  -4.515  0.00  0.00    -0.392 OA
HETATM   23  H   UNK N   1      33.881  21.225  -5.145  0.00  0.00     0.210 HD
ENDBRANCH  19  22
TORSDOF 2
ENDMDL
MODEL 8
REMARK VINA RESULT:      -6.7     22.426     25.151
REMARK  2 active torsions:
REMARK  status: ('A' for Active; 'I' for Inactive)
REMARK    1  A    between atoms: C_10  and  O_1 
REMARK    2  A    between atoms: C_21  and  O_2 
ROOT
HETATM    1  C   UNK N   1      31.804  20.553  -5.283  0.00  0.00     0.001 C 
HETATM    2  C   UNK N   1      30.781  21.674  -5.528  0.00  0.00    -0.004 C 
HETATM    3  C   UNK N   1      32.880  20.980  -4.291  0.00  0.00    -0.014 C 
HETATM    4  C   UNK N   1      30.139  22.105  -4.182  0.00  0.00     0.002 C 
HETATM    5  C   UNK N   1      29.265  23.366  -4.408  0.00  0.00    -0.017 C 
HETATM    6  C   UNK N   1      32.227  21.238  -2.934  0.00  0.00     0.012 C 
HETATM    7  C   UNK N   1      31.192  22.366  -3.072  0.00  0.00     0.007 C 
HETATM    8  C   UNK N   1      33.854  19.811  -4.364  0.00  0.00     0.126 C 
HETATM    9  C   UNK N   1      32.611  20.085  -6.483  0.00  0.00     0.008 C 
HETATM   10  C   UNK N   1      29.663  21.161  -6.442  0.00  0.00     0.010 C 
HETATM   11  C   UNK N   1      33.891  19.493  -5.868  0.00  0.00     0.033 C 
HETATM   12  C   UNK N   1      28.356  23.236  -5.631  0.00  0.00    -0.072 C 
HETATM   13  C   UNK N   1      28.519  22.154  -6.670  0.00  0.00     0.035 C 
HETATM   14  C   UNK N   1      28.382  23.628  -3.164  0.00  0.00     0.017 C 
HETATM   15  C   UNK N   1      33.637  22.245  -4.732  0.00  0.00     0.018 C 
HETATM   16  C   UNK N   1      30.165  24.590  -4.630  0.00  0.00     0.020 C 
HETATM   17  C   UNK N   1      27.262  24.677  -3.382  0.00  0.00     0.037 C 
HETATM   18  C   UNK N   1      27.390  24.148  -5.811  0.00  0.00     0.008 C 
HETATM   19  C   UNK N   1      27.236  25.251  -4.805  0.00  0.00     0.141 C 
ENDROOT
BRANCH   8  20
HETATM   20  O   UNK N   1      33.345  18.694  -3.691  0.00  0.00    -0.395 OA
HETATM   21  H   UNK N   1      33.192  17.794  -3.366  0.00  0.00     0.210 HD
ENDBRANCH   8  20
BRANCH  19  22
HETATM   22  O   UNK N   1      26.059  25.961  -5.032  0.00  0.00    -0.392 OA
HETATM   23  H   UNK N   1      25.299  25.846  -4.440  0.00  0.00     0.210 HD
ENDBRANCH  19  22
TORSDOF 2
ENDMDL
MODEL 9
REMARK VINA RESULT:      -6.6     10.950     14.021
REMARK  2 active torsions:
REMARK  status: ('A' for Active; 'I' for Inactive)
REMARK    1  A    between atoms: C_10  and  O_1 
REMARK    2  A    between atoms: C_21  and  O_2 
ROOT
HETATM    1  C   UNK N   1      27.606  18.996   6.524  0.00  0.00     0.001 C 
HETATM    2  C   UNK N   1      29.010  18.424   6.778  0.00  0.00    -0.004 C 
HETATM    3  C   UNK N   1      27.267  19.019   5.039  0.00  0.00    -0.014 C 
HETATM    4  C   UNK N   1      29.115  16.998   6.174  0.00  0.00     0.002 C 
HETATM    5  C   UNK N   1      30.586  16.511   6.252  0.00  0.00    -0.017 C 
HETATM    6  C   UNK N   1      27.220  17.582   4.519  0.00  0.00     0.012 C 
HETATM    7  C   UNK N   1      28.596  16.925   4.712  0.00  0.00     0.007 C 
HETATM    8  C   UNK N   1      25.951  19.786   5.030  0.00  0.00     0.126 C 
HETATM    9  C   UNK N   1      27.362  20.433   6.954  0.00  0.00     0.008 C 
HETATM   10  C   UNK N   1      29.260  18.318   8.285  0.00  0.00     0.010 C 
HETATM   11  C   UNK N   1      26.201  20.902   6.059  0.00  0.00     0.033 C 
HETATM   12  C   UNK N   1      31.212  16.760   7.625  0.00  0.00    -0.072 C 
HETATM   13  C   UNK N   1      30.586  17.654   8.668  0.00  0.00     0.035 C 
HETATM   14  C   UNK N   1      30.659  14.996   5.945  0.00  0.00     0.017 C 
HETATM   15  C   UNK N   1      28.279  19.821   4.202  0.00  0.00     0.018 C 
HETATM   16  C   UNK N   1      31.436  17.258   5.214  0.00  0.00     0.020 C 
HETATM   17  C   UNK N   1      32.023  14.339   6.279  0.00  0.00     0.037 C 
HETATM   18  C   UNK N   1      32.391  16.188   7.904  0.00  0.00     0.008 C 
HETATM   19  C   UNK N   1      33.044  15.324   6.865  0.00  0.00     0.141 C 
ENDROOT
BRANCH   8  20
HETATM   20  O   UNK N   1      24.903  18.985   5.497  0.00  0.00    -0.395 OA
HETATM   21  H   UNK N   1      24.183  18.338   5.561  0.00  0.00     0.210 HD
ENDBRANCH   8  20
BRANCH  19  22
HETATM   22  O   UNK N   1      34.133  14.645   7.405  0.00  0.00    -0.392 OA
HETATM   23  H   UNK N   1      34.813  14.273   6.822  0.00  0.00     0.210 HD
ENDBRANCH  19  22
TORSDOF 2
ENDMDL
