MODEL 1
REMARK VINA RESULT:      -4.9      0.000      0.000
REMARK  5 active torsions:
REMARK  status: ('A' for Active; 'I' for Inactive)
REMARK    1  A    between atoms: O_1  and  C_7 
REMARK    2  A    between atoms: O_2  and  C_11 
REMARK    3  A    between atoms: N_3  and  C_5 
REMARK    4  A    between atoms: C_4  and  C_5 
REMARK    5  A    between atoms: C_4  and  C_6 
ROOT
HETATM    1  C   UNK N   1      30.130  17.069   6.744  0.00  0.00    -0.020 A 
HETATM    2  C   UNK N   1      31.550  17.196   6.743  0.00  0.00     0.075 A 
HETATM    3  C   UNK N   1      29.464  16.936   5.519  0.00  0.00     0.047 A 
HETATM    4  C   UNK N   1      31.549  17.060   4.303  0.00  0.00    -0.026 A 
HETATM    5  C   UNK N   1      30.136  16.927   4.299  0.00  0.00     0.074 A 
HETATM    6  C   UNK N   1      32.225  17.188   5.517  0.00  0.00     0.046 A 
HETATM    7  C   UNK N   1      32.370  17.074   3.058  0.00  0.00     0.051 C 
ENDROOT
BRANCH   1   8
HETATM    8  C   UNK N   1      29.316  17.128   8.019  0.00  0.00     0.065 C 
BRANCH   8   9
HETATM    9  C   UNK N   1      28.991  18.520   8.573  0.00  0.00     0.074 C 
HETATM   10  C   UNK N   1      29.819  18.860   9.800  0.00  0.00     0.032 C 
BRANCH   9  11
HETATM   11  N   UNK N   1      27.589  18.556   8.948  0.00  0.00    -0.426 N 
HETATM   12  H   UNK N   1      27.323  18.743   9.915  0.00  0.00     0.150 HD
HETATM   13  H   UNK N   1      26.869  18.394   8.244  0.00  0.00     0.150 HD
ENDBRANCH   9  11
ENDBRANCH   8   9
ENDBRANCH   1   8
BRANCH   2  14
HETATM   14  O   UNK N   1      32.313  17.333   7.861  0.00  0.00    -0.355 OA
HETATM   15  C   UNK N   1      33.365  18.202   8.037  0.00  0.00     0.210 C 
ENDBRANCH   2  14
BRANCH   5  16
HETATM   16  O   UNK N   1      29.376  16.798   3.178  0.00  0.00    -0.355 OA
HETATM   17  C   UNK N   1      28.901  15.625   2.642  0.00  0.00     0.210 C 
ENDBRANCH   5  16
TORSDOF 5
ENDMDL
MODEL 2
REMARK VINA RESULT:      -4.9      2.939      4.709
REMARK  5 active torsions:
REMARK  status: ('A' for Active; 'I' for Inactive)
REMARK    1  A    between atoms: O_1  and  C_7 
REMARK    2  A    between atoms: O_2  and  C_11 
REMARK    3  A    between atoms: N_3  and  C_5 
REMARK    4  A    between atoms: C_4  and  C_5 
REMARK    5  A    between atoms: C_4  and  C_6 
ROOT
HETATM    1  C   UNK N   1      33.127  17.556   7.839  0.00  0.00    -0.020 A 
HETATM    2  C   UNK N   1      33.145  17.097   6.489  0.00  0.00     0.075 A 
HETATM    3  C   UNK N   1      31.893  17.819   8.446  0.00  0.00     0.047 A 
HETATM    4  C   UNK N   1      30.703  17.199   6.435  0.00  0.00    -0.026 A 
HETATM    5  C   UNK N   1      30.680  17.651   7.780  0.00  0.00     0.074 A 
HETATM    6  C   UNK N   1      31.926  16.929   5.821  0.00  0.00     0.046 A 
HETATM    7  C   UNK N   1      29.469  16.993   5.623  0.00  0.00     0.051 C 
ENDROOT
BRANCH   1   8
HETATM    8  C   UNK N   1      34.398  17.822   8.617  0.00  0.00     0.065 C 
BRANCH   8   9
HETATM    9  C   UNK N   1      34.978  16.652   9.422  0.00  0.00     0.074 C 
HETATM   10  C   UNK N   1      34.095  15.417   9.363  0.00  0.00     0.032 C 
BRANCH   9  11
HETATM   11  N   UNK N   1      35.099  17.057  10.811  0.00  0.00    -0.426 N 
HETATM   12  H   UNK N   1      35.290  16.361  11.531  0.00  0.00     0.150 HD
HETATM   13  H   UNK N   1      34.994  18.039  11.066  0.00  0.00     0.150 HD
ENDBRANCH   9  11
ENDBRANCH   8   9
ENDBRANCH   1   8
BRANCH   2  14
HETATM   14  O   UNK N   1      34.273  16.809   5.788  0.00  0.00    -0.355 OA
HETATM   15  C   UNK N   1      34.841  15.568   5.618  0.00  0.00     0.210 C 
ENDBRANCH   2  14
BRANCH   5  16
HETATM   16  O   UNK N   1      29.549  17.946   8.476  0.00  0.00    -0.355 OA
HETATM   17  C   UNK N   1      29.482  18.533   9.717  0.00  0.00     0.210 C 
ENDBRANCH   5  16
TORSDOF 5
ENDMDL
MODEL 3
REMARK VINA RESULT:      -4.8      1.154      3.437
REMARK  5 active torsions:
REMARK  status: ('A' for Active; 'I' for Inactive)
REMARK    1  A    between atoms: O_1  and  C_7 
REMARK    2  A    between atoms: O_2  and  C_11 
REMARK    3  A    between atoms: N_3  and  C_5 
REMARK    4  A    between atoms: C_4  and  C_5 
REMARK    5  A    between atoms: C_4  and  C_6 
ROOT
HETATM    1  C   UNK N   1      30.063  17.252   6.683  0.00  0.00    -0.020 A 
HETATM    2  C   UNK N   1      29.593  17.260   5.336  0.00  0.00     0.075 A 
HETATM    3  C   UNK N   1      31.442  17.200   6.915  0.00  0.00     0.047 A 
HETATM    4  C   UNK N   1      31.902  17.154   4.543  0.00  0.00    -0.026 A 
HETATM    5  C   UNK N   1      32.375  17.151   5.881  0.00  0.00     0.074 A 
HETATM    6  C   UNK N   1      30.530  17.211   4.298  0.00  0.00     0.046 A 
HETATM    7  C   UNK N   1      32.807  17.094   3.358  0.00  0.00     0.051 C 
ENDROOT
BRANCH   1   8
HETATM    8  C   UNK N   1      29.119  17.244   7.866  0.00  0.00     0.065 C 
BRANCH   8   9
HETATM    9  C   UNK N   1      28.870  18.585   8.568  0.00  0.00     0.074 C 
HETATM   10  C   UNK N   1      29.752  18.768   9.791  0.00  0.00     0.032 C 
BRANCH   9  11
HETATM   11  N   UNK N   1      27.484  18.636   8.996  0.00  0.00    -0.426 N 
HETATM   12  H   UNK N   1      26.745  18.309   8.374  0.00  0.00     0.150 HD
HETATM   13  H   UNK N   1      27.249  19.000   9.920  0.00  0.00     0.150 HD
ENDBRANCH   9  11
ENDBRANCH   8   9
ENDBRANCH   1   8
BRANCH   2  14
HETATM   14  O   UNK N   1      28.282  17.308   4.978  0.00  0.00    -0.355 OA
HETATM   15  C   UNK N   1      27.568  18.428   4.622  0.00  0.00     0.210 C 
ENDBRANCH   2  14
BRANCH   5  16
HETATM   16  O   UNK N   1      33.687  17.095   6.236  0.00  0.00    -0.355 OA
HETATM   17  C   UNK N   1      34.243  17.587   7.393  0.00  0.00     0.210 C 
ENDBRANCH   5  16
TORSDOF 5
ENDMDL
MODEL 4
REMARK VINA RESULT:      -4.7     13.695     16.106
REMARK  5 active torsions:
REMARK  status: ('A' for Active; 'I' for Inactive)
REMARK    1  A    between atoms: O_1  and  C_7 
REMARK    2  A    between atoms: O_2  and  C_11 
REMARK    3  A    between atoms: N_3  and  C_5 
REMARK    4  A    between atoms: C_4  and  C_5 
REMARK    5  A    between atoms: C_4  and  C_6 
ROOT
HETATM    1  C   UNK N   1      25.784  24.269  -7.073  0.00  0.00    -0.020 A 
HETATM    2  C   UNK N   1      25.719  25.622  -7.520  0.00  0.00     0.075 A 
HETATM    3  C   UNK N   1      25.938  24.018  -5.704  0.00  0.00     0.047 A 
HETATM    4  C   UNK N   1      25.972  26.385  -5.212  0.00  0.00    -0.026 A 
HETATM    5  C   UNK N   1      26.032  25.040  -4.762  0.00  0.00     0.074 A 
HETATM    6  C   UNK N   1      25.814  26.648  -6.573  0.00  0.00     0.046 A 
HETATM    7  C   UNK N   1      26.073  27.557  -4.296  0.00  0.00     0.051 C 
ENDROOT
BRANCH   1   8
HETATM    8  C   UNK N   1      25.748  23.100  -8.033  0.00  0.00     0.065 C 
BRANCH   8   9
HETATM    9  C   UNK N   1      25.224  21.766  -7.487  0.00  0.00     0.074 C 
HETATM   10  C   UNK N   1      25.741  20.576  -8.277  0.00  0.00     0.032 C 
BRANCH   9  11
HETATM   11  N   UNK N   1      23.774  21.768  -7.567  0.00  0.00    -0.426 N 
HETATM   12  H   UNK N   1      23.266  20.888  -7.655  0.00  0.00     0.150 HD
HETATM   13  H   UNK N   1      23.263  22.650  -7.536  0.00  0.00     0.150 HD
ENDBRANCH   9  11
ENDBRANCH   8   9
ENDBRANCH   1   8
BRANCH   2  14
HETATM   14  O   UNK N   1      25.573  25.998  -8.819  0.00  0.00    -0.355 OA
HETATM   15  C   UNK N   1      26.582  26.256  -9.718  0.00  0.00     0.210 C 
ENDBRANCH   2  14
BRANCH   5  16
HETATM   16  O   UNK N   1      26.186  24.668  -3.462  0.00  0.00    -0.355 OA
HETATM   17  C   UNK N   1      27.300  24.086  -2.904  0.00  0.00     0.210 C 
ENDBRANCH   5  16
TORSDOF 5
ENDMDL
MODEL 5
REMARK VINA RESULT:      -4.7      7.509      9.383
REMARK  5 active torsions:
REMARK  status: ('A' for Active; 'I' for Inactive)
REMARK    1  A    between atoms: O_1  and  C_7 
REMARK    2  A    between atoms: O_2  and  C_11 
REMARK    3  A    between atoms: N_3  and  C_5 
REMARK    4  A    between atoms: C_4  and  C_5 
REMARK    5  A    between atoms: C_4  and  C_6 
ROOT
HETATM    1  C   UNK N   1      22.116  19.138   3.689  0.00  0.00    -0.020 A 
HETATM    2  C   UNK N   1      22.440  20.265   2.877  0.00  0.00     0.075 A 
HETATM    3  C   UNK N   1      23.149  18.467   4.354  0.00  0.00     0.047 A 
HETATM    4  C   UNK N   1      24.802  19.973   3.435  0.00  0.00    -0.026 A 
HETATM    5  C   UNK N   1      24.484  18.854   4.249  0.00  0.00     0.074 A 
HETATM    6  C   UNK N   1      23.781  20.654   2.772  0.00  0.00     0.046 A 
HETATM    7  C   UNK N   1      26.195  20.470   3.242  0.00  0.00     0.051 C 
ENDROOT
BRANCH   1   8
HETATM    8  C   UNK N   1      20.702  18.613   3.812  0.00  0.00     0.065 C 
BRANCH   8   9
HETATM    9  C   UNK N   1      20.437  17.196   3.288  0.00  0.00     0.074 C 
HETATM   10  C   UNK N   1      20.276  17.161   1.778  0.00  0.00     0.032 C 
BRANCH   9  11
HETATM   11  N   UNK N   1      19.212  16.700   3.887  0.00  0.00    -0.426 N 
HETATM   12  H   UNK N   1      19.252  16.103   4.713  0.00  0.00     0.150 HD
HETATM   13  H   UNK N   1      18.309  16.948   3.481  0.00  0.00     0.150 HD
ENDBRANCH   9  11
ENDBRANCH   8   9
ENDBRANCH   1   8
BRANCH   2  14
HETATM   14  O   UNK N   1      21.533  20.999   2.180  0.00  0.00    -0.355 OA
HETATM   15  C   UNK N   1      20.982  20.683   0.960  0.00  0.00     0.210 C 
ENDBRANCH   2  14
BRANCH   5  16
HETATM   16  O   UNK N   1      25.396  18.117   4.938  0.00  0.00    -0.355 OA
HETATM   17  C   UNK N   1      25.938  16.915   4.549  0.00  0.00     0.210 C 
ENDBRANCH   5  16
TORSDOF 5
ENDMDL
MODEL 6
REMARK VINA RESULT:      -4.7      2.751      4.703
REMARK  5 active torsions:
REMARK  status: ('A' for Active; 'I' for Inactive)
REMARK    1  A    between atoms: O_1  and  C_7 
REMARK    2  A    between atoms: O_2  and  C_11 
REMARK    3  A    between atoms: N_3  and  C_5 
REMARK    4  A    between atoms: C_4  and  C_5 
REMARK    5  A    between atoms: C_4  and  C_6 
ROOT
HETATM    1  C   UNK N   1      32.232  17.372   5.826  0.00  0.00    -0.020 A 
HETATM    2  C   UNK N   1      32.838  17.684   7.078  0.00  0.00     0.075 A 
HETATM    3  C   UNK N   1      30.853  17.135   5.784  0.00  0.00     0.047 A 
HETATM    4  C   UNK N   1      30.658  17.495   8.166  0.00  0.00    -0.026 A 
HETATM    5  C   UNK N   1      30.049  17.189   6.921  0.00  0.00     0.074 A 
HETATM    6  C   UNK N   1      32.030  17.738   8.220  0.00  0.00     0.046 A 
HETATM    7  C   UNK N   1      29.899  17.570   9.448  0.00  0.00     0.051 C 
ENDROOT
BRANCH   1   8
HETATM    8  C   UNK N   1      33.039  17.234   4.552  0.00  0.00     0.065 C 
BRANCH   8   9
HETATM    9  C   UNK N   1      32.492  16.282   3.481  0.00  0.00     0.074 C 
HETATM   10  C   UNK N   1      33.549  15.316   2.975  0.00  0.00     0.032 C 
BRANCH   9  11
HETATM   11  N   UNK N   1      32.021  17.070   2.356  0.00  0.00    -0.426 N 
HETATM   12  H   UNK N   1      31.456  17.903   2.516  0.00  0.00     0.150 HD
HETATM   13  H   UNK N   1      32.256  16.789   1.403  0.00  0.00     0.150 HD
ENDBRANCH   9  11
ENDBRANCH   8   9
ENDBRANCH   1   8
BRANCH   2  14
HETATM   14  O   UNK N   1      34.164  17.933   7.253  0.00  0.00    -0.355 OA
HETATM   15  C   UNK N   1      34.756  18.492   8.362  0.00  0.00     0.210 C 
ENDBRANCH   2  14
BRANCH   5  16
HETATM   16  O   UNK N   1      28.724  16.933   6.751  0.00  0.00    -0.355 OA
HETATM   17  C   UNK N   1      27.811  17.738   6.113  0.00  0.00     0.210 C 
ENDBRANCH   5  16
TORSDOF 5
ENDMDL
MODEL 7
REMARK VINA RESULT:      -4.7     13.985     15.693
REMARK  5 active torsions:
REMARK  status: ('A' for Active; 'I' for Inactive)
REMARK    1  A    between atoms: O_1  and  C_7 
REMARK    2  A    between atoms: O_2  and  C_11 
REMARK    3  A    between atoms: N_3  and  C_5 
REMARK    4  A    between atoms: C_4  and  C_5 
REMARK    5  A    between atoms: C_4  and  C_6 
ROOT
HETATM    1  C   UNK N   1      25.445  26.145  -5.963  0.00  0.00    -0.020 A 
HETATM    2  C   UNK N   1      25.954  24.987  -5.303  0.00  0.00     0.075 A 
HETATM    3  C   UNK N   1      25.535  26.220  -7.358  0.00  0.00     0.047 A 
HETATM    4  C   UNK N   1      26.618  24.062  -7.465  0.00  0.00    -0.026 A 
HETATM    5  C   UNK N   1      26.108  25.209  -8.127  0.00  0.00     0.074 A 
HETATM    6  C   UNK N   1      26.529  23.972  -6.076  0.00  0.00     0.046 A 
HETATM    7  C   UNK N   1      27.260  22.924  -8.185  0.00  0.00     0.051 C 
ENDROOT
BRANCH   1   8
HETATM    8  C   UNK N   1      24.860  27.315  -5.201  0.00  0.00     0.065 C 
BRANCH   8   9
HETATM    9  C   UNK N   1      25.844  28.202  -4.426  0.00  0.00     0.074 C 
HETATM   10  C   UNK N   1      27.259  28.104  -4.969  0.00  0.00     0.032 C 
BRANCH   9  11
HETATM   11  N   UNK N   1      25.859  27.777  -3.039  0.00  0.00    -0.426 N 
HETATM   12  H   UNK N   1      25.470  26.871  -2.777  0.00  0.00     0.150 HD
HETATM   13  H   UNK N   1      26.261  28.384  -2.324  0.00  0.00     0.150 HD
ENDBRANCH   9  11
ENDBRANCH   8   9
ENDBRANCH   1   8
BRANCH   2  14
HETATM   14  O   UNK N   1      25.928  24.793  -3.958  0.00  0.00    -0.355 OA
HETATM   15  C   UNK N   1      26.956  24.320  -3.176  0.00  0.00     0.210 C 
ENDBRANCH   2  14
BRANCH   5  16
HETATM   16  O   UNK N   1      26.143  25.404  -9.473  0.00  0.00    -0.355 OA
HETATM   17  C   UNK N   1      25.108  25.206 -10.355  0.00  0.00     0.210 C 
ENDBRANCH   5  16
TORSDOF 5
ENDMDL
MODEL 8
REMARK VINA RESULT:      -4.6      3.056      4.616
REMARK  5 active torsions:
REMARK  status: ('A' for Active; 'I' for Inactive)
REMARK    1  A    between atoms: O_1  and  C_7 
REMARK    2  A    between atoms: O_2  and  C_11 
REMARK    3  A    between atoms: N_3  and  C_5 
REMARK    4  A    between atoms: C_4  and  C_5 
REMARK    5  A    between atoms: C_4  and  C_6 
ROOT
HETATM    1  C   UNK N   1      28.533  18.259   6.761  0.00  0.00    -0.020 A 
HETATM    2  C   UNK N   1      28.568  17.754   5.427  0.00  0.00     0.075 A 
HETATM    3  C   UNK N   1      27.881  19.473   7.005  0.00  0.00     0.047 A 
HETATM    4  C   UNK N   1      27.308  19.706   4.669  0.00  0.00    -0.026 A 
HETATM    5  C   UNK N   1      27.266  20.210   5.995  0.00  0.00     0.074 A 
HETATM    6  C   UNK N   1      27.951  18.495   4.412  0.00  0.00     0.046 A 
HETATM    7  C   UNK N   1      26.694  20.414   3.508  0.00  0.00     0.051 C 
ENDROOT
BRANCH   1   8
HETATM    8  C   UNK N   1      29.225  17.553   7.907  0.00  0.00     0.065 C 
BRANCH   8   9
HETATM    9  C   UNK N   1      30.225  18.376   8.729  0.00  0.00     0.074 C 
HETATM   10  C   UNK N   1      31.652  17.883   8.561  0.00  0.00     0.032 C 
BRANCH   9  11
HETATM   11  N   UNK N   1      29.871  18.271  10.133  0.00  0.00    -0.426 N 
HETATM   12  H   UNK N   1      29.086  18.806  10.503  0.00  0.00     0.150 HD
HETATM   13  H   UNK N   1      30.409  17.662  10.750  0.00  0.00     0.150 HD
ENDBRANCH   9  11
ENDBRANCH   8   9
ENDBRANCH   1   8
BRANCH   2  14
HETATM   14  O   UNK N   1      29.169  16.591   5.058  0.00  0.00    -0.355 OA
HETATM   15  C   UNK N   1      28.867  15.824   3.957  0.00  0.00     0.210 C 
ENDBRANCH   2  14
BRANCH   5  16
HETATM   16  O   UNK N   1      26.671  21.377   6.359  0.00  0.00    -0.355 OA
HETATM   17  C   UNK N   1      25.994  21.620   7.530  0.00  0.00     0.210 C 
ENDBRANCH   5  16
TORSDOF 5
ENDMDL
MODEL 9
REMARK VINA RESULT:      -4.6     10.646     12.984
REMARK  5 active torsions:
REMARK  status: ('A' for Active; 'I' for Inactive)
REMARK    1  A    between atoms: O_1  and  C_7 
REMARK    2  A    between atoms: O_2  and  C_11 
REMARK    3  A    between atoms: N_3  and  C_5 
REMARK    4  A    between atoms: C_4  and  C_5 
REMARK    5  A    between atoms: C_4  and  C_6 
ROOT
HETATM    1  C   UNK N   1      35.470  11.242  14.991  0.00  0.00    -0.020 A 
HETATM    2  C   UNK N   1      35.142  12.629  15.042  0.00  0.00     0.075 A 
HETATM    3  C   UNK N   1      35.669  10.552  16.193  0.00  0.00     0.047 A 
HETATM    4  C   UNK N   1      35.243  12.552  17.482  0.00  0.00    -0.026 A 
HETATM    5  C   UNK N   1      35.564  11.170  17.438  0.00  0.00     0.074 A 
HETATM    6  C   UNK N   1      35.037  13.249  16.292  0.00  0.00     0.046 A 
HETATM    7  C   UNK N   1      35.115  13.318  18.756  0.00  0.00     0.051 C 
ENDROOT
BRANCH   1   8
HETATM    8  C   UNK N   1      35.661  10.506  13.683  0.00  0.00     0.065 C 
BRANCH   8   9
HETATM    9  C   UNK N   1      34.394  10.116  12.911  0.00  0.00     0.074 C 
HETATM   10  C   UNK N   1      34.567   8.821  12.136  0.00  0.00     0.032 C 
BRANCH   9  11
HETATM   11  N   UNK N   1      34.081  11.173  11.965  0.00  0.00    -0.426 N 
HETATM   12  H   UNK N   1      33.684  10.942  11.055  0.00  0.00     0.150 HD
HETATM   13  H   UNK N   1      34.259  12.146  12.212  0.00  0.00     0.150 HD
ENDBRANCH   9  11
ENDBRANCH   8   9
ENDBRANCH   1   8
BRANCH   2  14
HETATM   14  O   UNK N   1      34.926  13.410  13.950  0.00  0.00    -0.355 OA
HETATM   15  C   UNK N   1      35.854  14.193  13.303  0.00  0.00     0.210 C 
ENDBRANCH   2  14
BRANCH   5  16
HETATM   16  O   UNK N   1      35.787  10.393  18.532  0.00  0.00    -0.355 OA
HETATM   17  C   UNK N   1      36.678   9.351  18.627  0.00  0.00     0.210 C 
ENDBRANCH   5  16
TORSDOF 5
ENDMDL
