REMARK  1 active torsions:
REMARK  status: ('A' for Active; 'I' for Inactive)
REMARK    1  A    between atoms: C_1  and  O_20 
ROOT
HETATM    1  C   UNK N   1      -3.709  -1.967  -0.110  0.00  0.00     0.118 C 
HETATM    2  C   UNK N   1      -3.825  -0.495   0.289  0.00  0.00     0.032 C 
HETATM    3  C   UNK N   1      -2.623   0.346  -0.192  0.00  0.00     0.012 C 
HETATM    4  C   UNK N   1      -2.420  -2.626   0.414  0.00  0.00     0.037 C 
HETATM    5  C   UNK N   1      -1.250  -1.634   0.541  0.00  0.00    -0.004 C 
HETATM    6  C   UNK N   1       0.109  -2.358   0.558  0.00  0.00     0.006 C 
HETATM    7  C   UNK N   1       1.013  -1.993  -0.620  0.00  0.00     0.006 C 
HETATM    8  C   UNK N   1       1.198  -0.471  -0.809  0.00  0.00    -0.005 C 
HETATM    9  C   UNK N   1       2.449   0.043  -0.062  0.00  0.00     0.001 C 
HETATM   10  C   UNK N   1       3.794  -0.328  -0.660  0.00  0.00     0.008 C 
HETATM   11  C   UNK N   1       4.743   0.783  -0.180  0.00  0.00     0.033 C 
HETATM   12  C   UNK N   1       3.882   1.843   0.527  0.00  0.00     0.126 C 
HETATM   13  C   UNK N   1       2.478   1.563   0.005  0.00  0.00    -0.014 C 
HETATM   14  C   UNK N   1       2.356   2.209  -1.380  0.00  0.00     0.018 C 
HETATM   15  C   UNK N   1       1.326   2.063   0.905  0.00  0.00     0.012 C 
HETATM   16  C   UNK N   1       0.097   1.112   0.907  0.00  0.00     0.007 C 
HETATM   17  C   UNK N   1      -0.079   0.382  -0.445  0.00  0.00    -0.002 C 
HETATM   18  C   UNK N   1      -1.358  -0.484  -0.504  0.00  0.00    -0.036 C 
HETATM   19  C   UNK N   1      -1.507  -1.027  -1.933  0.00  0.00     0.016 C 
HETATM   20  O   UNK N   1       3.958   1.624   1.906  0.00  0.00    -0.395 OA
HETATM   21  H   UNK N   1       3.852   1.502   2.862  0.00  0.00     0.210 HD
ENDROOT
BRANCH   1  22
HETATM   22  O   UNK N   1      -4.826  -2.681   0.318  0.00  0.00    -0.396 OA
HETATM   23  H   UNK N   1      -5.646  -2.256   0.615  0.00  0.00     0.210 HD
ENDBRANCH   1  22
TORSDOF 1
