MODEL 1
REMARK VINA RESULT:      -7.6      0.000      0.000
REMARK  1 active torsions:
REMARK  status: ('A' for Active; 'I' for Inactive)
REMARK    1  A    between atoms: C_1  and  O_20 
ROOT
HETATM    1  C   UNK N   1      20.570  16.494   4.764  0.00  0.00     0.118 C 
HETATM    2  C   UNK N   1      21.938  16.002   4.288  0.00  0.00     0.032 C 
HETATM    3  C   UNK N   1      22.398  14.726   5.024  0.00  0.00     0.012 C 
HETATM    4  C   UNK N   1      20.531  16.771   6.278  0.00  0.00     0.037 C 
HETATM    5  C   UNK N   1      21.490  15.869   7.076  0.00  0.00    -0.004 C 
HETATM    6  C   UNK N   1      21.086  15.783   8.559  0.00  0.00     0.006 C 
HETATM    7  C   UNK N   1      20.709  14.371   9.011  0.00  0.00     0.006 C 
HETATM    8  C   UNK N   1      21.772  13.306   8.662  0.00  0.00    -0.005 C 
HETATM    9  C   UNK N   1      22.768  13.101   9.825  0.00  0.00     0.001 C 
HETATM   10  C   UNK N   1      22.241  12.367  11.046  0.00  0.00     0.008 C 
HETATM   11  C   UNK N   1      23.494  11.741  11.683  0.00  0.00     0.033 C 
HETATM   12  C   UNK N   1      24.666  11.987  10.718  0.00  0.00     0.126 C 
HETATM   13  C   UNK N   1      23.976  12.283   9.392  0.00  0.00    -0.014 C 
HETATM   14  C   UNK N   1      23.577  10.943   8.762  0.00  0.00     0.018 C 
HETATM   15  C   UNK N   1      24.813  13.095   8.378  0.00  0.00     0.012 C 
HETATM   16  C   UNK N   1      23.961  14.090   7.543  0.00  0.00     0.007 C 
HETATM   17  C   UNK N   1      22.525  13.570   7.301  0.00  0.00    -0.002 C 
HETATM   18  C   UNK N   1      21.694  14.491   6.379  0.00  0.00    -0.036 C 
HETATM   19  C   UNK N   1      20.355  13.799   6.086  0.00  0.00     0.016 C 
HETATM   20  O   UNK N   1      25.383  13.098  11.171  0.00  0.00    -0.395 OA
HETATM   21  H   UNK N   1      25.887  13.911  11.329  0.00  0.00     0.210 HD
ENDROOT
BRANCH   1  22
HETATM   22  O   UNK N   1      20.182  17.628   4.055  0.00  0.00    -0.396 OA
HETATM   23  H   UNK N   1      20.718  18.022   3.348  0.00  0.00     0.210 HD
ENDBRANCH   1  22
TORSDOF 1
ENDMDL
MODEL 2
REMARK VINA RESULT:      -7.5     13.987     16.146
REMARK  1 active torsions:
REMARK  status: ('A' for Active; 'I' for Inactive)
REMARK    1  A    between atoms: C_1  and  O_20 
ROOT
HETATM    1  C   UNK N   1      36.023  13.636  13.031  0.00  0.00     0.118 C 
HETATM    2  C   UNK N   1      36.431  14.496  14.228  0.00  0.00     0.032 C 
HETATM    3  C   UNK N   1      36.791  13.651  15.469  0.00  0.00     0.012 C 
HETATM    4  C   UNK N   1      34.834  12.707  13.342  0.00  0.00     0.037 C 
HETATM    5  C   UNK N   1      34.784  12.275  14.818  0.00  0.00    -0.004 C 
HETATM    6  C   UNK N   1      33.951  10.994  15.007  0.00  0.00     0.006 C 
HETATM    7  C   UNK N   1      34.757   9.813  15.549  0.00  0.00     0.006 C 
HETATM    8  C   UNK N   1      35.559  10.146  16.826  0.00  0.00    -0.005 C 
HETATM    9  C   UNK N   1      34.754   9.810  18.102  0.00  0.00     0.001 C 
HETATM   10  C   UNK N   1      34.589   8.337  18.430  0.00  0.00     0.008 C 
HETATM   11  C   UNK N   1      34.387   8.308  19.954  0.00  0.00     0.033 C 
HETATM   12  C   UNK N   1      34.616   9.738  20.472  0.00  0.00     0.126 C 
HETATM   13  C   UNK N   1      35.402  10.399  19.346  0.00  0.00    -0.014 C 
HETATM   14  C   UNK N   1      36.870   9.979  19.492  0.00  0.00     0.018 C 
HETATM   15  C   UNK N   1      35.315  11.940  19.295  0.00  0.00     0.012 C 
HETATM   16  C   UNK N   1      35.301  12.503  17.847  0.00  0.00     0.007 C 
HETATM   17  C   UNK N   1      36.115  11.622  16.870  0.00  0.00    -0.002 C 
HETATM   18  C   UNK N   1      36.208  12.221  15.448  0.00  0.00    -0.036 C 
HETATM   19  C   UNK N   1      37.163  11.348  14.619  0.00  0.00     0.016 C 
HETATM   20  O   UNK N   1      33.370  10.350  20.640  0.00  0.00    -0.395 OA
HETATM   21  H   UNK N   1      32.576  10.904  20.692  0.00  0.00     0.210 HD
ENDROOT
BRANCH   1  22
HETATM   22  O   UNK N   1      35.735  14.436  11.927  0.00  0.00    -0.396 OA
HETATM   23  H   UNK N   1      36.389  14.651  11.243  0.00  0.00     0.210 HD
ENDBRANCH   1  22
TORSDOF 1
ENDMDL
MODEL 3
REMARK VINA RESULT:      -7.4     13.126     15.870
REMARK  1 active torsions:
REMARK  status: ('A' for Active; 'I' for Inactive)
REMARK    1  A    between atoms: C_1  and  O_20 
ROOT
HETATM    1  C   UNK N   1      35.329  11.137  17.546  0.00  0.00     0.118 C 
HETATM    2  C   UNK N   1      35.091  12.648  17.562  0.00  0.00     0.032 C 
HETATM    3  C   UNK N   1      34.701  13.202  16.175  0.00  0.00     0.012 C 
HETATM    4  C   UNK N   1      36.414  10.717  16.537  0.00  0.00     0.037 C 
HETATM    5  C   UNK N   1      36.493  11.653  15.318  0.00  0.00    -0.004 C 
HETATM    6  C   UNK N   1      37.177  10.969  14.120  0.00  0.00     0.006 C 
HETATM    7  C   UNK N   1      36.268  10.814  12.901  0.00  0.00     0.006 C 
HETATM    8  C   UNK N   1      35.581  12.130  12.471  0.00  0.00    -0.005 C 
HETATM    9  C   UNK N   1      36.409  12.874  11.399  0.00  0.00     0.001 C 
HETATM   10  C   UNK N   1      36.415  12.268  10.007  0.00  0.00     0.008 C 
HETATM   11  C   UNK N   1      36.694  13.459   9.075  0.00  0.00     0.033 C 
HETATM   12  C   UNK N   1      36.665  14.730   9.940  0.00  0.00     0.126 C 
HETATM   13  C   UNK N   1      35.902  14.293  11.185  0.00  0.00    -0.014 C 
HETATM   14  C   UNK N   1      34.406  14.334  10.855  0.00  0.00     0.018 C 
HETATM   15  C   UNK N   1      36.169  15.135  12.453  0.00  0.00     0.012 C 
HETATM   16  C   UNK N   1      36.171  14.289  13.756  0.00  0.00     0.007 C 
HETATM   17  C   UNK N   1      35.207  13.083  13.672  0.00  0.00    -0.002 C 
HETATM   18  C   UNK N   1      35.109  12.291  14.996  0.00  0.00    -0.036 C 
HETATM   19  C   UNK N   1      34.014  11.225  14.840  0.00  0.00     0.016 C 
HETATM   20  O   UNK N   1      37.982  15.080  10.254  0.00  0.00    -0.395 OA
HETATM   21  H   UNK N   1      38.837  15.352  10.620  0.00  0.00     0.210 HD
ENDROOT
BRANCH   1  22
HETATM   22  O   UNK N   1      35.649  10.676  18.821  0.00  0.00    -0.396 OA
HETATM   23  H   UNK N   1      36.357  10.035  18.992  0.00  0.00     0.210 HD
ENDBRANCH   1  22
TORSDOF 1
ENDMDL
MODEL 4
REMARK VINA RESULT:      -7.0     10.410     12.093
REMARK  1 active torsions:
REMARK  status: ('A' for Active; 'I' for Inactive)
REMARK    1  A    between atoms: C_1  and  O_20 
ROOT
HETATM    1  C   UNK N   1      32.201  16.675   3.740  0.00  0.00     0.118 C 
HETATM    2  C   UNK N   1      33.076  15.445   3.488  0.00  0.00     0.032 C 
HETATM    3  C   UNK N   1      33.386  14.663   4.782  0.00  0.00     0.012 C 
HETATM    4  C   UNK N   1      32.826  17.651   4.755  0.00  0.00     0.037 C 
HETATM    5  C   UNK N   1      33.707  16.944   5.800  0.00  0.00    -0.004 C 
HETATM    6  C   UNK N   1      33.893  17.807   7.062  0.00  0.00     0.006 C 
HETATM    7  C   UNK N   1      33.321  17.171   8.329  0.00  0.00     0.006 C 
HETATM    8  C   UNK N   1      33.809  15.725   8.569  0.00  0.00    -0.005 C 
HETATM    9  C   UNK N   1      35.066  15.694   9.467  0.00  0.00     0.001 C 
HETATM   10  C   UNK N   1      34.855  16.007  10.937  0.00  0.00     0.008 C 
HETATM   11  C   UNK N   1      36.013  15.288  11.649  0.00  0.00     0.033 C 
HETATM   12  C   UNK N   1      36.745  14.446  10.591  0.00  0.00     0.126 C 
HETATM   13  C   UNK N   1      35.721  14.321   9.469  0.00  0.00    -0.014 C 
HETATM   14  C   UNK N   1      34.739  13.208   9.854  0.00  0.00     0.018 C 
HETATM   15  C   UNK N   1      36.306  14.024   8.070  0.00  0.00     0.012 C 
HETATM   16  C   UNK N   1      35.532  14.731   6.923  0.00  0.00     0.007 C 
HETATM   17  C   UNK N   1      34.028  14.892   7.246  0.00  0.00    -0.002 C 
HETATM   18  C   UNK N   1      33.217  15.492   6.075  0.00  0.00    -0.036 C 
HETATM   19  C   UNK N   1      31.728  15.456   6.451  0.00  0.00     0.016 C 
HETATM   20  O   UNK N   1      37.872  15.156  10.166  0.00  0.00    -0.395 OA
HETATM   21  H   UNK N   1      38.612  15.599   9.722  0.00  0.00     0.210 HD
ENDROOT
BRANCH   1  22
HETATM   22  O   UNK N   1      31.922  17.332   2.545  0.00  0.00    -0.396 OA
HETATM   23  H   UNK N   1      31.097  17.208   2.050  0.00  0.00     0.210 HD
ENDBRANCH   1  22
TORSDOF 1
ENDMDL
MODEL 5
REMARK VINA RESULT:      -6.9     17.046     18.989
REMARK  1 active torsions:
REMARK  status: ('A' for Active; 'I' for Inactive)
REMARK    1  A    between atoms: C_1  and  O_20 
ROOT
HETATM    1  C   UNK N   1      31.740  22.174  -4.990  0.00  0.00     0.118 C 
HETATM    2  C   UNK N   1      30.338  21.567  -5.068  0.00  0.00     0.032 C 
HETATM    3  C   UNK N   1      29.279  22.582  -5.548  0.00  0.00     0.012 C 
HETATM    4  C   UNK N   1      31.804  23.409  -4.072  0.00  0.00     0.037 C 
HETATM    5  C   UNK N   1      30.481  24.194  -4.032  0.00  0.00    -0.004 C 
HETATM    6  C   UNK N   1      30.695  25.643  -3.558  0.00  0.00     0.006 C 
HETATM    7  C   UNK N   1      30.325  26.692  -4.607  0.00  0.00     0.006 C 
HETATM    8  C   UNK N   1      28.910  26.505  -5.197  0.00  0.00    -0.005 C 
HETATM    9  C   UNK N   1      27.860  27.331  -4.420  0.00  0.00     0.001 C 
HETATM   10  C   UNK N   1      27.892  28.834  -4.630  0.00  0.00     0.008 C 
HETATM   11  C   UNK N   1      26.454  29.289  -4.333  0.00  0.00     0.033 C 
HETATM   12  C   UNK N   1      25.606  28.022  -4.135  0.00  0.00     0.126 C 
HETATM   13  C   UNK N   1      26.441  26.932  -4.797  0.00  0.00    -0.014 C 
HETATM   14  C   UNK N   1      26.197  27.009  -6.309  0.00  0.00     0.018 C 
HETATM   15  C   UNK N   1      26.160  25.494  -4.307  0.00  0.00     0.012 C 
HETATM   16  C   UNK N   1      27.436  24.610  -4.249  0.00  0.00     0.007 C 
HETATM   17  C   UNK N   1      28.466  24.997  -5.336  0.00  0.00    -0.002 C 
HETATM   18  C   UNK N   1      29.694  24.059  -5.369  0.00  0.00    -0.036 C 
HETATM   19  C   UNK N   1      30.560  24.442  -6.579  0.00  0.00     0.016 C 
HETATM   20  O   UNK N   1      25.474  27.789  -2.763  0.00  0.00    -0.395 OA
HETATM   21  H   UNK N   1      25.408  27.473  -1.849  0.00  0.00     0.210 HD
ENDROOT
BRANCH   1  22
HETATM   22  O   UNK N   1      32.667  21.218  -4.581  0.00  0.00    -0.396 OA
HETATM   23  H   UNK N   1      33.239  21.331  -3.806  0.00  0.00     0.210 HD
ENDBRANCH   1  22
TORSDOF 1
ENDMDL
MODEL 6
REMARK VINA RESULT:      -6.8     16.167     18.802
REMARK  1 active torsions:
REMARK  status: ('A' for Active; 'I' for Inactive)
REMARK    1  A    between atoms: C_1  and  O_20 
ROOT
HETATM    1  C   UNK N   1      32.125  21.869  -3.013  0.00  0.00     0.118 C 
HETATM    2  C   UNK N   1      31.978  20.992  -4.257  0.00  0.00     0.032 C 
HETATM    3  C   UNK N   1      31.380  21.760  -5.456  0.00  0.00     0.012 C 
HETATM    4  C   UNK N   1      30.793  22.497  -2.566  0.00  0.00     0.037 C 
HETATM    5  C   UNK N   1      29.830  22.756  -3.739  0.00  0.00    -0.004 C 
HETATM    6  C   UNK N   1      28.770  23.814  -3.381  0.00  0.00     0.006 C 
HETATM    7  C   UNK N   1      28.843  25.072  -4.246  0.00  0.00     0.006 C 
HETATM    8  C   UNK N   1      28.845  24.780  -5.763  0.00  0.00    -0.005 C 
HETATM    9  C   UNK N   1      27.414  24.811  -6.346  0.00  0.00     0.001 C 
HETATM   10  C   UNK N   1      26.766  26.178  -6.476  0.00  0.00     0.008 C 
HETATM   11  C   UNK N   1      25.747  26.008  -7.615  0.00  0.00     0.033 C 
HETATM   12  C   UNK N   1      25.964  24.609  -8.216  0.00  0.00     0.126 C 
HETATM   13  C   UNK N   1      27.370  24.243  -7.757  0.00  0.00    -0.014 C 
HETATM   14  C   UNK N   1      28.365  24.936  -8.695  0.00  0.00     0.018 C 
HETATM   15  C   UNK N   1      27.678  22.729  -7.714  0.00  0.00     0.012 C 
HETATM   16  C   UNK N   1      28.603  22.328  -6.532  0.00  0.00     0.007 C 
HETATM   17  C   UNK N   1      29.599  23.452  -6.161  0.00  0.00    -0.002 C 
HETATM   18  C   UNK N   1      30.602  23.035  -5.063  0.00  0.00    -0.036 C 
HETATM   19  C   UNK N   1      31.629  24.165  -4.894  0.00  0.00     0.016 C 
HETATM   20  O   UNK N   1      25.015  23.742  -7.668  0.00  0.00    -0.395 OA
HETATM   21  H   UNK N   1      24.478  23.035  -7.278  0.00  0.00     0.210 HD
ENDROOT
BRANCH   1  22
HETATM   22  O   UNK N   1      32.693  21.145  -1.967  0.00  0.00    -0.396 OA
HETATM   23  H   UNK N   1      33.625  20.874  -1.953  0.00  0.00     0.210 HD
ENDBRANCH   1  22
TORSDOF 1
ENDMDL
MODEL 7
REMARK VINA RESULT:      -6.7      7.349     10.100
REMARK  1 active torsions:
REMARK  status: ('A' for Active; 'I' for Inactive)
REMARK    1  A    between atoms: C_1  and  O_20 
ROOT
HETATM    1  C   UNK N   1      33.631  17.374   7.028  0.00  0.00     0.118 C 
HETATM    2  C   UNK N   1      32.477  17.807   7.934  0.00  0.00     0.032 C 
HETATM    3  C   UNK N   1      31.172  17.037   7.641  0.00  0.00     0.012 C 
HETATM    4  C   UNK N   1      33.304  17.532   5.532  0.00  0.00     0.037 C 
HETATM    5  C   UNK N   1      31.805  17.358   5.225  0.00  0.00    -0.004 C 
HETATM    6  C   UNK N   1      31.566  17.008   3.745  0.00  0.00     0.006 C 
HETATM    7  C   UNK N   1      30.920  15.638   3.536  0.00  0.00     0.006 C 
HETATM    8  C   UNK N   1      29.637  15.425   4.371  0.00  0.00    -0.005 C 
HETATM    9  C   UNK N   1      28.373  15.822   3.576  0.00  0.00     0.001 C 
HETATM   10  C   UNK N   1      27.957  14.887   2.455  0.00  0.00     0.008 C 
HETATM   11  C   UNK N   1      26.443  15.113   2.314  0.00  0.00     0.033 C 
HETATM   12  C   UNK N   1      26.011  16.034   3.467  0.00  0.00     0.126 C 
HETATM   13  C   UNK N   1      27.147  15.897   4.473  0.00  0.00    -0.014 C 
HETATM   14  C   UNK N   1      26.921  14.601   5.260  0.00  0.00     0.018 C 
HETATM   15  C   UNK N   1      27.300  17.075   5.461  0.00  0.00     0.012 C 
HETATM   16  C   UNK N   1      28.781  17.389   5.810  0.00  0.00     0.007 C 
HETATM   17  C   UNK N   1      29.669  16.123   5.786  0.00  0.00    -0.002 C 
HETATM   18  C   UNK N   1      31.122  16.393   6.238  0.00  0.00    -0.036 C 
HETATM   19  C   UNK N   1      31.857  15.047   6.325  0.00  0.00     0.016 C 
HETATM   20  O   UNK N   1      25.928  17.342   2.978  0.00  0.00    -0.395 OA
HETATM   21  H   UNK N   1      25.941  18.291   2.778  0.00  0.00     0.210 HD
ENDROOT
BRANCH   1  22
HETATM   22  O   UNK N   1      34.793  18.073   7.346  0.00  0.00    -0.396 OA
HETATM   23  H   UNK N   1      35.554  18.138   6.747  0.00  0.00     0.210 HD
ENDBRANCH   1  22
TORSDOF 1
ENDMDL
MODEL 8
REMARK VINA RESULT:      -6.7     15.406     18.362
REMARK  1 active torsions:
REMARK  status: ('A' for Active; 'I' for Inactive)
REMARK    1  A    between atoms: C_1  and  O_20 
ROOT
HETATM    1  C   UNK N   1      31.084  21.217  -3.636  0.00  0.00     0.118 C 
HETATM    2  C   UNK N   1      31.767  22.508  -3.182  0.00  0.00     0.032 C 
HETATM    3  C   UNK N   1      30.760  23.645  -2.907  0.00  0.00     0.012 C 
HETATM    4  C   UNK N   1      30.220  21.411  -4.896  0.00  0.00     0.037 C 
HETATM    5  C   UNK N   1      29.627  22.827  -5.002  0.00  0.00    -0.004 C 
HETATM    6  C   UNK N   1      28.400  22.861  -5.932  0.00  0.00     0.006 C 
HETATM    7  C   UNK N   1      27.106  23.268  -5.226  0.00  0.00     0.006 C 
HETATM    8  C   UNK N   1      27.227  24.581  -4.421  0.00  0.00    -0.005 C 
HETATM    9  C   UNK N   1      26.810  25.803  -5.268  0.00  0.00     0.001 C 
HETATM   10  C   UNK N   1      25.327  25.958  -5.549  0.00  0.00     0.008 C 
HETATM   11  C   UNK N   1      25.138  27.467  -5.776  0.00  0.00     0.033 C 
HETATM   12  C   UNK N   1      26.477  28.148  -5.448  0.00  0.00     0.126 C 
HETATM   13  C   UNK N   1      27.201  27.112  -4.596  0.00  0.00    -0.014 C 
HETATM   14  C   UNK N   1      26.655  27.217  -3.167  0.00  0.00     0.018 C 
HETATM   15  C   UNK N   1      28.740  27.239  -4.566  0.00  0.00     0.012 C 
HETATM   16  C   UNK N   1      29.464  25.865  -4.515  0.00  0.00     0.007 C 
HETATM   17  C   UNK N   1      28.642  24.798  -3.755  0.00  0.00    -0.002 C 
HETATM   18  C   UNK N   1      29.391  23.456  -3.596  0.00  0.00    -0.036 C 
HETATM   19  C   UNK N   1      28.548  22.538  -2.697  0.00  0.00     0.016 C 
HETATM   20  O   UNK N   1      27.160  28.378  -6.646  0.00  0.00    -0.395 OA
HETATM   21  H   UNK N   1      27.764  28.488  -7.397  0.00  0.00     0.210 HD
ENDROOT
BRANCH   1  22
HETATM   22  O   UNK N   1      32.025  20.211  -3.845  0.00  0.00    -0.396 OA
HETATM   23  H   UNK N   1      32.504  19.774  -3.124  0.00  0.00     0.210 HD
ENDBRANCH   1  22
TORSDOF 1
ENDMDL
MODEL 9
REMARK VINA RESULT:      -6.6     10.985     14.463
REMARK  1 active torsions:
REMARK  status: ('A' for Active; 'I' for Inactive)
REMARK    1  A    between atoms: C_1  and  O_20 
ROOT
HETATM    1  C   UNK N   1      37.200  12.289  12.686  0.00  0.00     0.118 C 
HETATM    2  C   UNK N   1      36.366  13.397  13.330  0.00  0.00     0.032 C 
HETATM    3  C   UNK N   1      35.234  13.899  12.408  0.00  0.00     0.012 C 
HETATM    4  C   UNK N   1      37.825  12.718  11.346  0.00  0.00     0.037 C 
HETATM    5  C   UNK N   1      36.973  13.755  10.593  0.00  0.00    -0.004 C 
HETATM    6  C   UNK N   1      37.312  13.786   9.091  0.00  0.00     0.006 C 
HETATM    7  C   UNK N   1      36.140  13.394   8.190  0.00  0.00     0.006 C 
HETATM    8  C   UNK N   1      34.845  14.183   8.482  0.00  0.00    -0.005 C 
HETATM    9  C   UNK N   1      34.736  15.440   7.590  0.00  0.00     0.001 C 
HETATM   10  C   UNK N   1      34.418  15.204   6.125  0.00  0.00     0.008 C 
HETATM   11  C   UNK N   1      33.737  16.506   5.669  0.00  0.00     0.033 C 
HETATM   12  C   UNK N   1      33.529  17.373   6.922  0.00  0.00     0.126 C 
HETATM   13  C   UNK N   1      33.630  16.371   8.066  0.00  0.00    -0.014 C 
HETATM   14  C   UNK N   1      32.278  15.657   8.183  0.00  0.00     0.018 C 
HETATM   15  C   UNK N   1      34.012  16.970   9.438  0.00  0.00     0.012 C 
HETATM   16  C   UNK N   1      34.925  16.035  10.278  0.00  0.00     0.007 C 
HETATM   17  C   UNK N   1      34.639  14.540  10.005  0.00  0.00    -0.002 C 
HETATM   18  C   UNK N   1      35.457  13.591  10.911  0.00  0.00    -0.036 C 
HETATM   19  C   UNK N   1      34.977  12.154  10.663  0.00  0.00     0.016 C 
HETATM   20  O   UNK N   1      34.563  18.312   6.984  0.00  0.00    -0.395 OA
HETATM   21  H   UNK N   1      35.282  18.930   7.186  0.00  0.00     0.210 HD
ENDROOT
BRANCH   1  22
HETATM   22  O   UNK N   1      38.189  11.847  13.562  0.00  0.00    -0.396 OA
HETATM   23  H   UNK N   1      38.460  12.343  14.350  0.00  0.00     0.210 HD
ENDBRANCH   1  22
TORSDOF 1
ENDMDL
