MODEL 1
REMARK VINA RESULT:      -6.6      0.000      0.000
REMARK  5 active torsions:
REMARK  status: ('A' for Active; 'I' for Inactive)
REMARK    1  A    between atoms: N_2  and  C_9 
REMARK    2  A    between atoms: N_3  and  C_4 
REMARK    3  A    between atoms: N_3  and  C_12 
REMARK       I    between atoms: N_3  and  C_13 
REMARK    4  A    between atoms: C_9  and  C_10 
REMARK    5  A    between atoms: C_10  and  C_14 
ROOT
HETATM    1  N   UNK N   1      27.667  23.890  -7.832  0.00  0.00     0.093 N 
HETATM    2  C   UNK N   1      29.135  23.258  -5.623  0.00  0.00     0.096 C 
HETATM    3  C   UNK N   1      29.509  24.590  -6.275  0.00  0.00     0.056 C 
HETATM    4  C   UNK N   1      29.000  22.105  -6.601  0.00  0.00     0.056 C 
HETATM    5  C   UNK N   1      28.901  24.686  -7.686  0.00  0.00     0.275 C 
HETATM    6  C   UNK N   1      27.941  22.444  -7.664  0.00  0.00     0.275 C 
ENDROOT
BRANCH   2   7
HETATM    7  N   UNK N   1      29.789  22.897  -4.368  0.00  0.00    -0.314 N 
HETATM    8  C   UNK N   1      29.244  23.297  -3.159  0.00  0.00     0.220 C 
HETATM    9  O   UNK N   1      28.218  23.963  -3.142  0.00  0.00    -0.273 OA
HETATM   10  C   UNK N   1      29.839  22.941  -1.834  0.00  0.00     0.117 C 
BRANCH   7  11
HETATM   11  C   UNK N   1      31.034  22.163  -4.483  0.00  0.00     0.037 A 
HETATM   12  C   UNK N   1      31.102  20.762  -4.375  0.00  0.00     0.030 A 
HETATM   13  C   UNK N   1      32.329  20.093  -4.438  0.00  0.00     0.002 A 
HETATM   14  C   UNK N   1      33.511  20.813  -4.610  0.00  0.00     0.000 A 
HETATM   15  C   UNK N   1      33.469  22.202  -4.720  0.00  0.00     0.002 A 
HETATM   16  C   UNK N   1      32.244  22.870  -4.651  0.00  0.00     0.030 A 
ENDBRANCH   7  11
ENDBRANCH   2   7
BRANCH   1  17
HETATM   17  C   UNK N   1      26.611  24.377  -6.919  0.00  0.00     0.223 C 
HETATM   18  C   UNK N   1      25.507  23.347  -6.694  0.00  0.00     0.043 C 
BRANCH  17  19
HETATM   19  C   UNK N   1      25.995  25.699  -7.404  0.00  0.00     0.074 C 
BRANCH  19  20
HETATM   20  C   UNK N   1      26.176  26.843  -6.450  0.00  0.00    -0.056 A 
HETATM   21  C   UNK N   1      27.189  27.791  -6.646  0.00  0.00     0.007 A 
HETATM   22  C   UNK N   1      27.343  28.851  -5.748  0.00  0.00     0.001 A 
HETATM   23  C   UNK N   1      26.480  28.973  -4.657  0.00  0.00     0.000 A 
HETATM   24  C   UNK N   1      25.462  28.034  -4.463  0.00  0.00     0.001 A 
HETATM   25  C   UNK N   1      25.312  26.970  -5.357  0.00  0.00     0.007 A 
ENDBRANCH  19  20
ENDBRANCH  17  19
ENDBRANCH   1  17
TORSDOF 5
ENDMDL
MODEL 2
REMARK VINA RESULT:      -6.5      1.542      2.400
REMARK  5 active torsions:
REMARK  status: ('A' for Active; 'I' for Inactive)
REMARK    1  A    between atoms: N_2  and  C_9 
REMARK    2  A    between atoms: N_3  and  C_4 
REMARK    3  A    between atoms: N_3  and  C_12 
REMARK       I    between atoms: N_3  and  C_13 
REMARK    4  A    between atoms: C_9  and  C_10 
REMARK    5  A    between atoms: C_10  and  C_14 
ROOT
HETATM    1  N   UNK N   1      26.594  25.999  -7.025  0.00  0.00     0.093 N 
HETATM    2  C   UNK N   1      27.960  24.490  -5.212  0.00  0.00     0.096 C 
HETATM    3  C   UNK N   1      28.836  25.419  -6.055  0.00  0.00     0.056 C 
HETATM    4  C   UNK N   1      26.952  23.690  -6.016  0.00  0.00     0.056 C 
HETATM    5  C   UNK N   1      28.048  25.943  -7.269  0.00  0.00     0.275 C 
HETATM    6  C   UNK N   1      26.037  24.645  -6.802  0.00  0.00     0.275 C 
ENDROOT
BRANCH   2   7
HETATM    7  N   UNK N   1      28.595  23.733  -4.136  0.00  0.00    -0.314 N 
HETATM    8  C   UNK N   1      28.017  23.693  -2.878  0.00  0.00     0.220 C 
HETATM    9  O   UNK N   1      26.979  24.303  -2.662  0.00  0.00    -0.273 OA
HETATM   10  C   UNK N   1      28.592  22.916  -1.737  0.00  0.00     0.117 C 
BRANCH   7  11
HETATM   11  C   UNK N   1      29.857  23.094  -4.460  0.00  0.00     0.037 A 
HETATM   12  C   UNK N   1      29.933  21.841  -5.093  0.00  0.00     0.030 A 
HETATM   13  C   UNK N   1      31.167  21.232  -5.341  0.00  0.00     0.002 A 
HETATM   14  C   UNK N   1      32.349  21.867  -4.962  0.00  0.00     0.000 A 
HETATM   15  C   UNK N   1      32.299  23.111  -4.334  0.00  0.00     0.002 A 
HETATM   16  C   UNK N   1      31.066  23.715  -4.080  0.00  0.00     0.030 A 
ENDBRANCH   7  11
ENDBRANCH   2   7
BRANCH   1  17
HETATM   17  C   UNK N   1      26.276  26.931  -5.921  0.00  0.00     0.223 C 
HETATM   18  C   UNK N   1      24.775  27.128  -5.732  0.00  0.00     0.043 C 
BRANCH  17  19
HETATM   19  C   UNK N   1      26.959  28.296  -6.107  0.00  0.00     0.074 C 
BRANCH  19  20
HETATM   20  C   UNK N   1      27.238  29.018  -4.822  0.00  0.00    -0.056 A 
HETATM   21  C   UNK N   1      27.044  30.402  -4.717  0.00  0.00     0.007 A 
HETATM   22  C   UNK N   1      27.308  31.060  -3.511  0.00  0.00     0.001 A 
HETATM   23  C   UNK N   1      27.756  30.335  -2.404  0.00  0.00     0.000 A 
HETATM   24  C   UNK N   1      27.943  28.953  -2.503  0.00  0.00     0.001 A 
HETATM   25  C   UNK N   1      27.685  28.296  -3.710  0.00  0.00     0.007 A 
ENDBRANCH  19  20
ENDBRANCH  17  19
ENDBRANCH   1  17
TORSDOF 5
ENDMDL
MODEL 3
REMARK VINA RESULT:      -6.5      2.136      4.415
REMARK  5 active torsions:
REMARK  status: ('A' for Active; 'I' for Inactive)
REMARK    1  A    between atoms: N_2  and  C_9 
REMARK    2  A    between atoms: N_3  and  C_4 
REMARK    3  A    between atoms: N_3  and  C_12 
REMARK       I    between atoms: N_3  and  C_13 
REMARK    4  A    between atoms: C_9  and  C_10 
REMARK    5  A    between atoms: C_10  and  C_14 
ROOT
HETATM    1  N   UNK N   1      27.376  25.705  -4.338  0.00  0.00     0.093 N 
HETATM    2  C   UNK N   1      29.340  23.838  -4.036  0.00  0.00     0.096 C 
HETATM    3  C   UNK N   1      28.010  23.475  -3.372  0.00  0.00     0.056 C 
HETATM    4  C   UNK N   1      29.811  25.252  -3.750  0.00  0.00     0.056 C 
HETATM    5  C   UNK N   1      27.102  24.715  -3.279  0.00  0.00     0.275 C 
HETATM    6  C   UNK N   1      28.743  26.260  -4.209  0.00  0.00     0.275 C 
ENDROOT
BRANCH   2   7
HETATM    7  N   UNK N   1      30.409  22.843  -4.025  0.00  0.00    -0.314 N 
HETATM    8  C   UNK N   1      31.079  22.555  -2.847  0.00  0.00     0.220 C 
HETATM    9  O   UNK N   1      30.784  23.143  -1.816  0.00  0.00    -0.273 OA
HETATM   10  C   UNK N   1      32.162  21.529  -2.751  0.00  0.00     0.117 C 
BRANCH   7  11
HETATM   11  C   UNK N   1      30.738  22.241  -5.302  0.00  0.00     0.037 A 
HETATM   12  C   UNK N   1      31.352  22.959  -6.344  0.00  0.00     0.030 A 
HETATM   13  C   UNK N   1      31.605  22.359  -7.582  0.00  0.00     0.002 A 
HETATM   14  C   UNK N   1      31.251  21.028  -7.800  0.00  0.00     0.000 A 
HETATM   15  C   UNK N   1      30.642  20.295  -6.781  0.00  0.00     0.002 A 
HETATM   16  C   UNK N   1      30.383  20.897  -5.549  0.00  0.00     0.030 A 
ENDBRANCH   7  11
ENDBRANCH   2   7
BRANCH   1  17
HETATM   17  C   UNK N   1      27.120  25.134  -5.678  0.00  0.00     0.223 C 
HETATM   18  C   UNK N   1      26.891  26.205  -6.739  0.00  0.00     0.043 C 
BRANCH  17  19
HETATM   19  C   UNK N   1      25.938  24.152  -5.667  0.00  0.00     0.074 C 
BRANCH  19  20
HETATM   20  C   UNK N   1      26.114  22.975  -6.582  0.00  0.00    -0.056 A 
HETATM   21  C   UNK N   1      25.023  22.171  -6.940  0.00  0.00     0.007 A 
HETATM   22  C   UNK N   1      25.205  21.079  -7.794  0.00  0.00     0.001 A 
HETATM   23  C   UNK N   1      26.475  20.792  -8.300  0.00  0.00     0.000 A 
HETATM   24  C   UNK N   1      27.564  21.596  -7.951  0.00  0.00     0.001 A 
HETATM   25  C   UNK N   1      27.384  22.685  -7.092  0.00  0.00     0.007 A 
ENDBRANCH  19  20
ENDBRANCH  17  19
ENDBRANCH   1  17
TORSDOF 5
ENDMDL
MODEL 4
REMARK VINA RESULT:      -6.4     11.505     13.756
REMARK  5 active torsions:
REMARK  status: ('A' for Active; 'I' for Inactive)
REMARK    1  A    between atoms: N_2  and  C_9 
REMARK    2  A    between atoms: N_3  and  C_4 
REMARK    3  A    between atoms: N_3  and  C_12 
REMARK       I    between atoms: N_3  and  C_13 
REMARK    4  A    between atoms: C_9  and  C_10 
REMARK    5  A    between atoms: C_10  and  C_14 
ROOT
HETATM    1  N   UNK N   1      29.598  15.315   4.096  0.00  0.00     0.093 N 
HETATM    2  C   UNK N   1      30.379  16.568   6.387  0.00  0.00     0.096 C 
HETATM    3  C   UNK N   1      30.577  17.392   5.113  0.00  0.00     0.056 C 
HETATM    4  C   UNK N   1      30.881  15.140   6.288  0.00  0.00     0.056 C 
HETATM    5  C   UNK N   1      30.459  16.491   3.870  0.00  0.00     0.275 C 
HETATM    6  C   UNK N   1      30.176  14.420   5.125  0.00  0.00     0.275 C 
ENDROOT
BRANCH   2   7
HETATM    7  N   UNK N   1      30.659  17.207   7.671  0.00  0.00    -0.314 N 
HETATM    8  C   UNK N   1      29.657  17.886   8.344  0.00  0.00     0.220 C 
HETATM    9  O   UNK N   1      28.536  17.960   7.859  0.00  0.00    -0.273 OA
HETATM   10  C   UNK N   1      29.860  18.538   9.675  0.00  0.00     0.117 C 
BRANCH   7  11
HETATM   11  C   UNK N   1      32.029  17.125   8.141  0.00  0.00     0.037 A 
HETATM   12  C   UNK N   1      32.998  18.096   7.831  0.00  0.00     0.030 A 
HETATM   13  C   UNK N   1      34.322  17.956   8.259  0.00  0.00     0.002 A 
HETATM   14  C   UNK N   1      34.701  16.842   9.006  0.00  0.00     0.000 A 
HETATM   15  C   UNK N   1      33.758  15.866   9.328  0.00  0.00     0.002 A 
HETATM   16  C   UNK N   1      32.438  16.003   8.894  0.00  0.00     0.030 A 
ENDBRANCH   7  11
ENDBRANCH   2   7
BRANCH   1  17
HETATM   17  C   UNK N   1      28.213  15.725   4.413  0.00  0.00     0.223 C 
HETATM   18  C   UNK N   1      27.355  14.563   4.905  0.00  0.00     0.043 C 
BRANCH  17  19
HETATM   19  C   UNK N   1      27.528  16.407   3.218  0.00  0.00     0.074 C 
BRANCH  19  20
HETATM   20  C   UNK N   1      26.849  17.701   3.562  0.00  0.00    -0.056 A 
HETATM   21  C   UNK N   1      27.591  18.814   3.981  0.00  0.00     0.007 A 
HETATM   22  C   UNK N   1      26.943  20.012   4.296  0.00  0.00     0.001 A 
HETATM   23  C   UNK N   1      25.553  20.105   4.184  0.00  0.00     0.000 A 
HETATM   24  C   UNK N   1      24.811  18.999   3.758  0.00  0.00     0.001 A 
HETATM   25  C   UNK N   1      25.458  17.799   3.449  0.00  0.00     0.007 A 
ENDBRANCH  19  20
ENDBRANCH  17  19
ENDBRANCH   1  17
TORSDOF 5
ENDMDL
MODEL 5
REMARK VINA RESULT:      -6.3      2.075      2.806
REMARK  5 active torsions:
REMARK  status: ('A' for Active; 'I' for Inactive)
REMARK    1  A    between atoms: N_2  and  C_9 
REMARK    2  A    between atoms: N_3  and  C_4 
REMARK    3  A    between atoms: N_3  and  C_12 
REMARK       I    between atoms: N_3  and  C_13 
REMARK    4  A    between atoms: C_9  and  C_10 
REMARK    5  A    between atoms: C_10  and  C_14 
ROOT
HETATM    1  N   UNK N   1      25.776  24.309  -7.300  0.00  0.00     0.093 N 
HETATM    2  C   UNK N   1      28.364  23.484  -7.072  0.00  0.00     0.096 C 
HETATM    3  C   UNK N   1      28.148  24.637  -8.054  0.00  0.00     0.056 C 
HETATM    4  C   UNK N   1      27.384  22.337  -7.237  0.00  0.00     0.056 C 
HETATM    5  C   UNK N   1      26.653  24.785  -8.387  0.00  0.00     0.275 C 
HETATM    6  C   UNK N   1      25.944  22.855  -7.076  0.00  0.00     0.275 C 
ENDROOT
BRANCH   2   7
HETATM    7  N   UNK N   1      29.734  23.058  -6.800  0.00  0.00    -0.314 N 
HETATM    8  C   UNK N   1      30.574  22.707  -7.845  0.00  0.00     0.220 C 
HETATM    9  O   UNK N   1      30.165  22.744  -8.997  0.00  0.00    -0.273 OA
HETATM   10  C   UNK N   1      31.997  22.292  -7.648  0.00  0.00     0.117 C 
BRANCH   7  11
HETATM   11  C   UNK N   1      30.117  22.982  -5.404  0.00  0.00     0.037 A 
HETATM   12  C   UNK N   1      30.147  21.770  -4.690  0.00  0.00     0.030 A 
HETATM   13  C   UNK N   1      30.470  21.743  -3.329  0.00  0.00     0.002 A 
HETATM   14  C   UNK N   1      30.770  22.928  -2.657  0.00  0.00     0.000 A 
HETATM   15  C   UNK N   1      30.747  24.141  -3.344  0.00  0.00     0.002 A 
HETATM   16  C   UNK N   1      30.418  24.168  -4.701  0.00  0.00     0.030 A 
ENDBRANCH   7  11
ENDBRANCH   2   7
BRANCH   1  17
HETATM   17  C   UNK N   1      25.981  25.101  -6.068  0.00  0.00     0.223 C 
HETATM   18  C   UNK N   1      25.627  24.323  -4.804  0.00  0.00     0.043 C 
BRANCH  17  19
HETATM   19  C   UNK N   1      25.201  26.425  -6.098  0.00  0.00     0.074 C 
BRANCH  19  20
HETATM   20  C   UNK N   1      25.975  27.601  -5.580  0.00  0.00    -0.056 A 
HETATM   21  C   UNK N   1      27.047  28.136  -6.307  0.00  0.00     0.007 A 
HETATM   22  C   UNK N   1      27.756  29.233  -5.810  0.00  0.00     0.001 A 
HETATM   23  C   UNK N   1      27.392  29.805  -4.588  0.00  0.00     0.000 A 
HETATM   24  C   UNK N   1      26.318  29.279  -3.863  0.00  0.00     0.001 A 
HETATM   25  C   UNK N   1      25.612  28.178  -4.357  0.00  0.00     0.007 A 
ENDBRANCH  19  20
ENDBRANCH  17  19
ENDBRANCH   1  17
TORSDOF 5
ENDMDL
MODEL 6
REMARK VINA RESULT:      -6.3      2.210      3.701
REMARK  5 active torsions:
REMARK  status: ('A' for Active; 'I' for Inactive)
REMARK    1  A    between atoms: N_2  and  C_9 
REMARK    2  A    between atoms: N_3  and  C_4 
REMARK    3  A    between atoms: N_3  and  C_12 
REMARK       I    between atoms: N_3  and  C_13 
REMARK    4  A    between atoms: C_9  and  C_10 
REMARK    5  A    between atoms: C_10  and  C_14 
ROOT
HETATM    1  N   UNK N   1      29.084  24.493  -3.530  0.00  0.00     0.093 N 
HETATM    2  C   UNK N   1      30.957  22.559  -3.959  0.00  0.00     0.096 C 
HETATM    3  C   UNK N   1      29.913  22.208  -2.897  0.00  0.00     0.056 C 
HETATM    4  C   UNK N   1      31.555  23.946  -3.808  0.00  0.00     0.056 C 
HETATM    5  C   UNK N   1      29.140  23.469  -2.469  0.00  0.00     0.275 C 
HETATM    6  C   UNK N   1      30.436  25.002  -3.853  0.00  0.00     0.275 C 
ENDROOT
BRANCH   2   7
HETATM    7  N   UNK N   1      31.927  21.534  -4.336  0.00  0.00    -0.314 N 
HETATM    8  C   UNK N   1      32.839  21.063  -3.405  0.00  0.00     0.220 C 
HETATM    9  O   UNK N   1      32.841  21.514  -2.268  0.00  0.00    -0.273 OA
HETATM   10  C   UNK N   1      33.841  19.994  -3.708  0.00  0.00     0.117 C 
BRANCH   7  11
HETATM   11  C   UNK N   1      31.898  21.101  -5.720  0.00  0.00     0.037 A 
HETATM   12  C   UNK N   1      32.783  21.603  -6.691  0.00  0.00     0.030 A 
HETATM   13  C   UNK N   1      32.690  21.202  -8.027  0.00  0.00     0.002 A 
HETATM   14  C   UNK N   1      31.710  20.290  -8.418  0.00  0.00     0.000 A 
HETATM   15  C   UNK N   1      30.822  19.778  -7.473  0.00  0.00     0.002 A 
HETATM   16  C   UNK N   1      30.911  20.184  -6.140  0.00  0.00     0.030 A 
ENDBRANCH   7  11
ENDBRANCH   2   7
BRANCH   1  17
HETATM   17  C   UNK N   1      28.371  23.983  -4.721  0.00  0.00     0.223 C 
HETATM   18  C   UNK N   1      28.751  24.728  -5.997  0.00  0.00     0.043 C 
BRANCH  17  19
HETATM   19  C   UNK N   1      26.845  24.016  -4.536  0.00  0.00     0.074 C 
BRANCH  19  20
HETATM   20  C   UNK N   1      26.260  25.398  -4.546  0.00  0.00    -0.056 A 
HETATM   21  C   UNK N   1      26.471  26.277  -3.476  0.00  0.00     0.007 A 
HETATM   22  C   UNK N   1      25.918  27.562  -3.502  0.00  0.00     0.001 A 
HETATM   23  C   UNK N   1      25.162  27.974  -4.601  0.00  0.00     0.000 A 
HETATM   24  C   UNK N   1      24.956  27.102  -5.675  0.00  0.00     0.001 A 
HETATM   25  C   UNK N   1      25.503  25.815  -5.646  0.00  0.00     0.007 A 
ENDBRANCH  19  20
ENDBRANCH  17  19
ENDBRANCH   1  17
TORSDOF 5
ENDMDL
MODEL 7
REMARK VINA RESULT:      -6.3      2.265      4.469
REMARK  5 active torsions:
REMARK  status: ('A' for Active; 'I' for Inactive)
REMARK    1  A    between atoms: N_2  and  C_9 
REMARK    2  A    between atoms: N_3  and  C_4 
REMARK    3  A    between atoms: N_3  and  C_12 
REMARK       I    between atoms: N_3  and  C_13 
REMARK    4  A    between atoms: C_9  and  C_10 
REMARK    5  A    between atoms: C_10  and  C_14 
ROOT
HETATM    1  N   UNK N   1      30.874  28.286  -5.677  0.00  0.00     0.093 N 
HETATM    2  C   UNK N   1      29.963  25.943  -4.621  0.00  0.00     0.096 C 
HETATM    3  C   UNK N   1      29.582  27.191  -3.823  0.00  0.00     0.056 C 
HETATM    4  C   UNK N   1      31.425  25.887  -5.025  0.00  0.00     0.056 C 
HETATM    5  C   UNK N   1      30.427  28.396  -4.275  0.00  0.00     0.275 C 
HETATM    6  C   UNK N   1      31.782  27.130  -5.858  0.00  0.00     0.275 C 
ENDROOT
BRANCH   2   7
HETATM    7  N   UNK N   1      29.417  24.658  -4.192  0.00  0.00    -0.314 N 
HETATM    8  C   UNK N   1      30.024  23.952  -3.166  0.00  0.00     0.220 C 
HETATM    9  O   UNK N   1      31.026  24.399  -2.625  0.00  0.00    -0.273 OA
HETATM   10  C   UNK N   1      29.506  22.646  -2.652  0.00  0.00     0.117 C 
BRANCH   7  11
HETATM   11  C   UNK N   1      28.267  24.172  -4.929  0.00  0.00     0.037 A 
HETATM   12  C   UNK N   1      26.954  24.259  -4.433  0.00  0.00     0.030 A 
HETATM   13  C   UNK N   1      25.876  23.731  -5.149  0.00  0.00     0.002 A 
HETATM   14  C   UNK N   1      26.090  23.106  -6.378  0.00  0.00     0.000 A 
HETATM   15  C   UNK N   1      27.383  23.009  -6.891  0.00  0.00     0.002 A 
HETATM   16  C   UNK N   1      28.460  23.530  -6.172  0.00  0.00     0.030 A 
ENDBRANCH   7  11
ENDBRANCH   2   7
BRANCH   1  17
HETATM   17  C   UNK N   1      29.720  28.250  -6.601  0.00  0.00     0.223 C 
HETATM   18  C   UNK N   1      30.099  28.627  -8.030  0.00  0.00     0.043 C 
BRANCH  17  19
HETATM   19  C   UNK N   1      28.568  29.144  -6.116  0.00  0.00     0.074 C 
BRANCH  19  20
HETATM   20  C   UNK N   1      27.261  28.423  -5.957  0.00  0.00    -0.056 A 
HETATM   21  C   UNK N   1      26.831  27.492  -6.912  0.00  0.00     0.007 A 
HETATM   22  C   UNK N   1      25.611  26.829  -6.748  0.00  0.00     0.001 A 
HETATM   23  C   UNK N   1      24.822  27.087  -5.624  0.00  0.00     0.000 A 
HETATM   24  C   UNK N   1      25.251  28.009  -4.665  0.00  0.00     0.001 A 
HETATM   25  C   UNK N   1      26.468  28.678  -4.832  0.00  0.00     0.007 A 
ENDBRANCH  19  20
ENDBRANCH  17  19
ENDBRANCH   1  17
TORSDOF 5
ENDMDL
MODEL 8
REMARK VINA RESULT:      -6.2     11.598     12.950
REMARK  5 active torsions:
REMARK  status: ('A' for Active; 'I' for Inactive)
REMARK    1  A    between atoms: N_2  and  C_9 
REMARK    2  A    between atoms: N_3  and  C_4 
REMARK    3  A    between atoms: N_3  and  C_12 
REMARK       I    between atoms: N_3  and  C_13 
REMARK    4  A    between atoms: C_9  and  C_10 
REMARK    5  A    between atoms: C_10  and  C_14 
ROOT
HETATM    1  N   UNK N   1      24.216  15.449   4.644  0.00  0.00     0.093 N 
HETATM    2  C   UNK N   1      26.131  17.324   5.140  0.00  0.00     0.096 C 
HETATM    3  C   UNK N   1      25.873  17.056   3.656  0.00  0.00     0.056 C 
HETATM    4  C   UNK N   1      26.293  16.069   5.978  0.00  0.00     0.056 C 
HETATM    5  C   UNK N   1      25.066  15.757   3.478  0.00  0.00     0.275 C 
HETATM    6  C   UNK N   1      25.035  15.192   5.850  0.00  0.00     0.275 C 
ENDROOT
BRANCH   2   7
HETATM    7  N   UNK N   1      27.056  18.397   5.495  0.00  0.00    -0.314 N 
HETATM    8  C   UNK N   1      26.625  19.714   5.499  0.00  0.00     0.220 C 
HETATM    9  O   UNK N   1      25.471  19.981   5.194  0.00  0.00    -0.273 OA
HETATM   10  C   UNK N   1      27.504  20.862   5.881  0.00  0.00     0.117 C 
BRANCH   7  11
HETATM   11  C   UNK N   1      28.421  17.999   5.779  0.00  0.00     0.037 A 
HETATM   12  C   UNK N   1      29.356  17.714   4.768  0.00  0.00     0.030 A 
HETATM   13  C   UNK N   1      30.648  17.281   5.081  0.00  0.00     0.002 A 
HETATM   14  C   UNK N   1      31.031  17.127   6.413  0.00  0.00     0.000 A 
HETATM   15  C   UNK N   1      30.122  17.406   7.434  0.00  0.00     0.002 A 
HETATM   16  C   UNK N   1      28.830  17.831   7.120  0.00  0.00     0.030 A 
ENDBRANCH   7  11
ENDBRANCH   2   7
BRANCH   1  17
HETATM   17  C   UNK N   1      23.206  16.508   4.859  0.00  0.00     0.223 C 
HETATM   18  C   UNK N   1      22.547  16.422   6.232  0.00  0.00     0.043 C 
BRANCH  17  19
HETATM   19  C   UNK N   1      22.127  16.504   3.764  0.00  0.00     0.074 C 
BRANCH  19  20
HETATM   20  C   UNK N   1      21.622  17.870   3.401  0.00  0.00    -0.056 A 
HETATM   21  C   UNK N   1      20.277  18.075   3.065  0.00  0.00     0.007 A 
HETATM   22  C   UNK N   1      19.823  19.354   2.730  0.00  0.00     0.001 A 
HETATM   23  C   UNK N   1      20.709  20.434   2.739  0.00  0.00     0.000 A 
HETATM   24  C   UNK N   1      22.050  20.235   3.081  0.00  0.00     0.001 A 
HETATM   25  C   UNK N   1      22.506  18.955   3.411  0.00  0.00     0.007 A 
ENDBRANCH  19  20
ENDBRANCH  17  19
ENDBRANCH   1  17
TORSDOF 5
ENDMDL
MODEL 9
REMARK VINA RESULT:      -6.2     24.038     26.602
REMARK  5 active torsions:
REMARK  status: ('A' for Active; 'I' for Inactive)
REMARK    1  A    between atoms: N_2  and  C_9 
REMARK    2  A    between atoms: N_3  and  C_4 
REMARK    3  A    between atoms: N_3  and  C_12 
REMARK       I    between atoms: N_3  and  C_13 
REMARK    4  A    between atoms: C_9  and  C_10 
REMARK    5  A    between atoms: C_10  and  C_14 
ROOT
HETATM    1  N   UNK N   1      35.989  11.597  13.321  0.00  0.00     0.093 N 
HETATM    2  C   UNK N   1      37.507   9.441  14.013  0.00  0.00     0.096 C 
HETATM    3  C   UNK N   1      38.081  10.790  14.453  0.00  0.00     0.056 C 
HETATM    4  C   UNK N   1      37.043   9.405  12.569  0.00  0.00     0.056 C 
HETATM    5  C   UNK N   1      37.369  11.940  13.717  0.00  0.00     0.275 C 
HETATM    6  C   UNK N   1      35.976  10.489  12.338  0.00  0.00     0.275 C 
ENDROOT
BRANCH   2   7
HETATM    7  N   UNK N   1      38.195   8.227  14.445  0.00  0.00    -0.314 N 
HETATM    8  C   UNK N   1      37.498   7.232  15.111  0.00  0.00     0.220 C 
HETATM    9  O   UNK N   1      36.306   7.374  15.348  0.00  0.00    -0.273 OA
HETATM   10  C   UNK N   1      38.126   5.950  15.557  0.00  0.00     0.117 C 
BRANCH   7  11
HETATM   11  C   UNK N   1      39.620   8.169  14.182  0.00  0.00     0.037 A 
HETATM   12  C   UNK N   1      40.148   7.714  12.960  0.00  0.00     0.030 A 
HETATM   13  C   UNK N   1      41.529   7.622  12.761  0.00  0.00     0.002 A 
HETATM   14  C   UNK N   1      42.409   7.985  13.781  0.00  0.00     0.000 A 
HETATM   15  C   UNK N   1      41.909   8.440  15.001  0.00  0.00     0.002 A 
HETATM   16  C   UNK N   1      40.530   8.525  15.201  0.00  0.00     0.030 A 
ENDBRANCH   7  11
ENDBRANCH   2   7
BRANCH   1  17
HETATM   17  C   UNK N   1      35.152  11.314  14.506  0.00  0.00     0.223 C 
HETATM   18  C   UNK N   1      33.788  10.738  14.138  0.00  0.00     0.043 C 
BRANCH  17  19
HETATM   19  C   UNK N   1      34.968  12.558  15.390  0.00  0.00     0.074 C 
BRANCH  19  20
HETATM   20  C   UNK N   1      35.175  12.301  16.855  0.00  0.00    -0.056 A 
HETATM   21  C   UNK N   1      35.560  11.036  17.317  0.00  0.00     0.007 A 
HETATM   22  C   UNK N   1      35.749  10.814  18.684  0.00  0.00     0.001 A 
HETATM   23  C   UNK N   1      35.564  11.858  19.593  0.00  0.00     0.000 A 
HETATM   24  C   UNK N   1      35.187  13.125  19.135  0.00  0.00     0.001 A 
HETATM   25  C   UNK N   1      34.991  13.345  17.768  0.00  0.00     0.007 A 
ENDBRANCH  19  20
ENDBRANCH  17  19
ENDBRANCH   1  17
TORSDOF 5
ENDMDL
