MODEL 1
REMARK VINA RESULT:      -5.2      0.000      0.000
REMARK  6 active torsions:
REMARK  status: ('A' for Active; 'I' for Inactive)
REMARK    1  A    between atoms: N_3  and  C_4 
REMARK    2  A    between atoms: N_3  and  C_5 
REMARK    3  A    between atoms: N_3  and  C_6 
REMARK    4  A    between atoms: C_4  and  C_7 
REMARK    5  A    between atoms: C_9  and  C_12 
REMARK    6  A    between atoms: C_9  and  C_13 
ROOT
HETATM    1  C   UNK N   1      30.346  17.295   7.233  0.00  0.00     0.022 C 
HETATM    2  C   UNK N   1      31.553  17.043   6.684  0.00  0.00    -0.004 C 
ENDROOT
BRANCH   2   3
HETATM    3  C   UNK N   1      31.740  16.695   5.230  0.00  0.00     0.016 A 
HETATM    4  S   UNK N   1      31.556  15.200   4.535  0.00  0.00    -0.101 SA
HETATM    5  C   UNK N   1      31.893  15.554   2.952  0.00  0.00     0.050 A 
HETATM    6  C   UNK N   1      32.178  16.923   2.921  0.00  0.00     0.008 A 
HETATM    7  C   UNK N   1      32.096  17.562   4.192  0.00  0.00     0.020 A 
ENDBRANCH   2   3
BRANCH   2   8
HETATM    8  C   UNK N   1      32.727  17.143   7.601  0.00  0.00     0.016 A 
HETATM    9  S   UNK N   1      33.102  16.059   8.805  0.00  0.00    -0.101 SA
HETATM   10  C   UNK N   1      34.462  16.771   9.430  0.00  0.00     0.050 A 
HETATM   11  C   UNK N   1      34.667  17.934   8.678  0.00  0.00     0.008 A 
HETATM   12  C   UNK N   1      33.695  18.143   7.656  0.00  0.00     0.020 A 
ENDBRANCH   2   8
BRANCH   1  13
HETATM   13  C   UNK N   1      28.974  17.295   6.598  0.00  0.00     0.242 C 
HETATM   14  C   UNK N   1      27.925  17.023   7.672  0.00  0.00     0.047 C 
BRANCH  13  15
HETATM   15  N   UNK N   1      28.673  18.602   5.985  0.00  0.00     0.095 N 
BRANCH  15  16
HETATM   16  C   UNK N   1      27.830  18.464   4.797  0.00  0.00     0.268 C 
HETATM   17  C   UNK N   1      28.358  17.331   3.936  0.00  0.00     0.037 C 
ENDBRANCH  15  16
BRANCH  15  18
HETATM   18  C   UNK N   1      27.920  19.397   6.949  0.00  0.00     0.268 C 
HETATM   19  C   UNK N   1      27.371  20.649   6.289  0.00  0.00     0.037 C 
ENDBRANCH  15  18
ENDBRANCH  13  15
ENDBRANCH   1  13
TORSDOF 6
ENDMDL
MODEL 2
REMARK VINA RESULT:      -5.1      2.326      5.518
REMARK  6 active torsions:
REMARK  status: ('A' for Active; 'I' for Inactive)
REMARK    1  A    between atoms: N_3  and  C_4 
REMARK    2  A    between atoms: N_3  and  C_5 
REMARK    3  A    between atoms: N_3  and  C_6 
REMARK    4  A    between atoms: C_4  and  C_7 
REMARK    5  A    between atoms: C_9  and  C_12 
REMARK    6  A    between atoms: C_9  and  C_13 
ROOT
HETATM    1  C   UNK N   1      32.579  17.396   7.924  0.00  0.00     0.022 C 
HETATM    2  C   UNK N   1      31.583  17.134   7.052  0.00  0.00    -0.004 C 
ENDROOT
BRANCH   2   3
HETATM    3  C   UNK N   1      31.827  16.732   5.620  0.00  0.00     0.016 A 
HETATM    4  S   UNK N   1      31.697  15.206   4.981  0.00  0.00    -0.101 SA
HETATM    5  C   UNK N   1      32.083  15.503   3.397  0.00  0.00     0.050 A 
HETATM    6  C   UNK N   1      32.342  16.875   3.320  0.00  0.00     0.008 A 
HETATM    7  C   UNK N   1      32.203  17.564   4.561  0.00  0.00     0.020 A 
ENDBRANCH   2   3
BRANCH   2   8
HETATM    8  C   UNK N   1      30.194  17.248   7.586  0.00  0.00     0.016 A 
HETATM    9  S   UNK N   1      29.793  17.668   9.144  0.00  0.00    -0.101 SA
HETATM   10  C   UNK N   1      28.140  17.572   9.060  0.00  0.00     0.050 A 
HETATM   11  C   UNK N   1      27.845  17.188   7.746  0.00  0.00     0.008 A 
HETATM   12  C   UNK N   1      28.993  17.005   6.922  0.00  0.00     0.020 A 
ENDBRANCH   2   8
BRANCH   1  13
HETATM   13  C   UNK N   1      34.078  17.363   7.723  0.00  0.00     0.242 C 
HETATM   14  C   UNK N   1      34.690  18.629   8.312  0.00  0.00     0.047 C 
BRANCH  13  15
HETATM   15  N   UNK N   1      34.679  16.203   8.405  0.00  0.00     0.095 N 
BRANCH  15  16
HETATM   16  C   UNK N   1      33.960  15.861   9.632  0.00  0.00     0.268 C 
HETATM   17  C   UNK N   1      34.940  15.811  10.790  0.00  0.00     0.037 C 
ENDBRANCH  15  16
BRANCH  15  18
HETATM   18  C   UNK N   1      34.577  15.048   7.518  0.00  0.00     0.268 C 
HETATM   19  C   UNK N   1      35.311  15.313   6.216  0.00  0.00     0.037 C 
ENDBRANCH  15  18
ENDBRANCH  13  15
ENDBRANCH   1  13
TORSDOF 6
ENDMDL
MODEL 3
REMARK VINA RESULT:      -5.0      2.198      5.601
REMARK  6 active torsions:
REMARK  status: ('A' for Active; 'I' for Inactive)
REMARK    1  A    between atoms: N_3  and  C_4 
REMARK    2  A    between atoms: N_3  and  C_5 
REMARK    3  A    between atoms: N_3  and  C_6 
REMARK    4  A    between atoms: C_4  and  C_7 
REMARK    5  A    between atoms: C_9  and  C_12 
REMARK    6  A    between atoms: C_9  and  C_13 
ROOT
HETATM    1  C   UNK N   1      32.352  17.265   7.756  0.00  0.00     0.022 C 
HETATM    2  C   UNK N   1      31.605  17.081   6.647  0.00  0.00    -0.004 C 
ENDROOT
BRANCH   2   3
HETATM    3  C   UNK N   1      32.177  16.597   5.340  0.00  0.00     0.016 A 
HETATM    4  S   UNK N   1      32.383  15.020   4.868  0.00  0.00    -0.101 SA
HETATM    5  C   UNK N   1      33.028  15.233   3.357  0.00  0.00     0.050 A 
HETATM    6  C   UNK N   1      33.110  16.616   3.170  0.00  0.00     0.008 A 
HETATM    7  C   UNK N   1      32.638  17.381   4.277  0.00  0.00     0.020 A 
ENDBRANCH   2   3
BRANCH   2   8
HETATM    8  C   UNK N   1      30.147  17.371   6.781  0.00  0.00     0.016 A 
HETATM    9  S   UNK N   1      29.028  17.265   5.556  0.00  0.00    -0.101 SA
HETATM   10  C   UNK N   1      27.660  17.740   6.363  0.00  0.00     0.050 A 
HETATM   11  C   UNK N   1      28.064  18.008   7.677  0.00  0.00     0.008 A 
HETATM   12  C   UNK N   1      29.455  17.804   7.911  0.00  0.00     0.020 A 
ENDBRANCH   2   8
BRANCH   1  13
HETATM   13  C   UNK N   1      33.834  17.056   7.972  0.00  0.00     0.242 C 
HETATM   14  C   UNK N   1      34.499  18.406   8.219  0.00  0.00     0.047 C 
BRANCH  13  15
HETATM   15  N   UNK N   1      34.084  16.200   9.146  0.00  0.00     0.095 N 
BRANCH  15  16
HETATM   16  C   UNK N   1      34.493  14.850   8.757  0.00  0.00     0.268 C 
HETATM   17  C   UNK N   1      35.258  14.915   7.448  0.00  0.00     0.037 C 
ENDBRANCH  15  16
BRANCH  15  18
HETATM   18  C   UNK N   1      35.190  16.776   9.904  0.00  0.00     0.268 C 
HETATM   19  C   UNK N   1      35.338  16.072  11.241  0.00  0.00     0.037 C 
ENDBRANCH  15  18
ENDBRANCH  13  15
ENDBRANCH   1  13
TORSDOF 6
ENDMDL
MODEL 4
REMARK VINA RESULT:      -4.9      1.405      4.282
REMARK  6 active torsions:
REMARK  status: ('A' for Active; 'I' for Inactive)
REMARK    1  A    between atoms: N_3  and  C_4 
REMARK    2  A    between atoms: N_3  and  C_5 
REMARK    3  A    between atoms: N_3  and  C_6 
REMARK    4  A    between atoms: C_4  and  C_7 
REMARK    5  A    between atoms: C_9  and  C_12 
REMARK    6  A    between atoms: C_9  and  C_13 
ROOT
HETATM    1  C   UNK N   1      30.501  17.207   6.985  0.00  0.00     0.022 C 
HETATM    2  C   UNK N   1      31.772  16.808   6.772  0.00  0.00    -0.004 C 
ENDROOT
BRANCH   2   3
HETATM    3  C   UNK N   1      32.729  16.476   7.887  0.00  0.00     0.016 A 
HETATM    4  S   UNK N   1      33.987  17.412   8.429  0.00  0.00    -0.101 SA
HETATM    5  C   UNK N   1      34.578  16.458   9.647  0.00  0.00     0.050 A 
HETATM    6  C   UNK N   1      33.768  15.317   9.663  0.00  0.00     0.008 A 
HETATM    7  C   UNK N   1      32.737  15.323   8.680  0.00  0.00     0.020 A 
ENDBRANCH   2   3
BRANCH   2   8
HETATM    8  C   UNK N   1      32.195  16.694   5.345  0.00  0.00     0.016 A 
HETATM    9  S   UNK N   1      33.290  15.594   4.750  0.00  0.00    -0.101 SA
HETATM   10  C   UNK N   1      33.312  16.032   3.152  0.00  0.00     0.050 A 
HETATM   11  C   UNK N   1      32.419  17.104   3.036  0.00  0.00     0.008 A 
HETATM   12  C   UNK N   1      31.795  17.476   4.262  0.00  0.00     0.020 A 
ENDBRANCH   2   8
BRANCH   1  13
HETATM   13  C   UNK N   1      29.755  17.413   8.285  0.00  0.00     0.242 C 
HETATM   14  C   UNK N   1      30.361  18.599   9.028  0.00  0.00     0.047 C 
BRANCH  13  15
HETATM   15  N   UNK N   1      28.331  17.705   8.039  0.00  0.00     0.095 N 
BRANCH  15  16
HETATM   16  C   UNK N   1      28.069  19.144   8.006  0.00  0.00     0.268 C 
HETATM   17  C   UNK N   1      27.737  19.561   6.584  0.00  0.00     0.037 C 
ENDBRANCH  15  16
BRANCH  15  18
HETATM   18  C   UNK N   1      27.978  17.180   6.723  0.00  0.00     0.268 C 
HETATM   19  C   UNK N   1      26.949  16.070   6.855  0.00  0.00     0.037 C 
ENDBRANCH  15  18
ENDBRANCH  13  15
ENDBRANCH   1  13
TORSDOF 6
ENDMDL
MODEL 5
REMARK VINA RESULT:      -4.8      6.475     10.273
REMARK  6 active torsions:
REMARK  status: ('A' for Active; 'I' for Inactive)
REMARK    1  A    between atoms: N_3  and  C_4 
REMARK    2  A    between atoms: N_3  and  C_5 
REMARK    3  A    between atoms: N_3  and  C_6 
REMARK    4  A    between atoms: C_4  and  C_7 
REMARK    5  A    between atoms: C_9  and  C_12 
REMARK    6  A    between atoms: C_9  and  C_13 
ROOT
HETATM    1  C   UNK N   1      35.779  14.188  13.434  0.00  0.00     0.022 C 
HETATM    2  C   UNK N   1      35.834  13.836  12.132  0.00  0.00    -0.004 C 
ENDROOT
BRANCH   2   3
HETATM    3  C   UNK N   1      36.394  12.520  11.658  0.00  0.00     0.016 A 
HETATM    4  S   UNK N   1      35.541  11.128  11.358  0.00  0.00    -0.101 SA
HETATM    5  C   UNK N   1      36.761  10.120  10.869  0.00  0.00     0.050 A 
HETATM    6  C   UNK N   1      37.933  10.881  10.934  0.00  0.00     0.008 A 
HETATM    7  C   UNK N   1      37.731  12.221  11.377  0.00  0.00     0.020 A 
ENDBRANCH   2   3
BRANCH   2   8
HETATM    8  C   UNK N   1      35.290  14.828  11.159  0.00  0.00     0.016 A 
HETATM    9  S   UNK N   1      34.106  14.522  10.032  0.00  0.00    -0.101 SA
HETATM   10  C   UNK N   1      34.013  16.002   9.291  0.00  0.00     0.050 A 
HETATM   11  C   UNK N   1      34.953  16.814   9.937  0.00  0.00     0.008 A 
HETATM   12  C   UNK N   1      35.669  16.158  10.980  0.00  0.00     0.020 A 
ENDBRANCH   2   8
BRANCH   1  13
HETATM   13  C   UNK N   1      36.223  13.427  14.663  0.00  0.00     0.242 C 
HETATM   14  C   UNK N   1      36.999  14.367  15.580  0.00  0.00     0.047 C 
BRANCH  13  15
HETATM   15  N   UNK N   1      35.065  12.908  15.413  0.00  0.00     0.095 N 
BRANCH  15  16
HETATM   16  C   UNK N   1      34.995  11.448  15.364  0.00  0.00     0.268 C 
HETATM   17  C   UNK N   1      33.723  11.030  14.648  0.00  0.00     0.037 C 
ENDBRANCH  15  16
BRANCH  15  18
HETATM   18  C   UNK N   1      35.226  13.278  16.816  0.00  0.00     0.268 C 
HETATM   19  C   UNK N   1      35.232  12.038  17.693  0.00  0.00     0.037 C 
ENDBRANCH  15  18
ENDBRANCH  13  15
ENDBRANCH   1  13
TORSDOF 6
ENDMDL
MODEL 6
REMARK VINA RESULT:      -4.8     12.079     14.750
REMARK  6 active torsions:
REMARK  status: ('A' for Active; 'I' for Inactive)
REMARK    1  A    between atoms: N_3  and  C_4 
REMARK    2  A    between atoms: N_3  and  C_5 
REMARK    3  A    between atoms: N_3  and  C_6 
REMARK    4  A    between atoms: C_4  and  C_7 
REMARK    5  A    between atoms: C_9  and  C_12 
REMARK    6  A    between atoms: C_9  and  C_13 
ROOT
HETATM    1  C   UNK N   1      28.280  23.823  -5.440  0.00  0.00     0.022 C 
HETATM    2  C   UNK N   1      27.064  24.070  -5.969  0.00  0.00    -0.004 C 
ENDROOT
BRANCH   2   3
HETATM    3  C   UNK N   1      26.390  23.147  -6.951  0.00  0.00     0.016 A 
HETATM    4  S   UNK N   1      26.761  22.964  -8.558  0.00  0.00    -0.101 SA
HETATM    5  C   UNK N   1      25.660  21.807  -8.998  0.00  0.00     0.050 A 
HETATM    6  C   UNK N   1      24.928  21.519  -7.841  0.00  0.00     0.008 A 
HETATM    7  C   UNK N   1      25.332  22.268  -6.697  0.00  0.00     0.020 A 
ENDBRANCH   2   3
BRANCH   2   8
HETATM    8  C   UNK N   1      26.391  25.323  -5.516  0.00  0.00     0.016 A 
HETATM    9  S   UNK N   1      26.635  26.070  -4.051  0.00  0.00    -0.101 SA
HETATM   10  C   UNK N   1      25.584  27.345  -4.190  0.00  0.00     0.050 A 
HETATM   11  C   UNK N   1      24.984  27.211  -5.449  0.00  0.00     0.008 A 
HETATM   12  C   UNK N   1      25.434  26.080  -6.190  0.00  0.00     0.020 A 
ENDBRANCH   2   8
BRANCH   1  13
HETATM   13  C   UNK N   1      29.217  22.657  -5.666  0.00  0.00     0.242 C 
HETATM   14  C   UNK N   1      30.288  23.065  -6.673  0.00  0.00     0.047 C 
BRANCH  13  15
HETATM   15  N   UNK N   1      29.890  22.266  -4.414  0.00  0.00     0.095 N 
BRANCH  15  16
HETATM   16  C   UNK N   1      31.279  21.869  -4.645  0.00  0.00     0.268 C 
HETATM   17  C   UNK N   1      31.434  20.389  -4.346  0.00  0.00     0.037 C 
ENDBRANCH  15  16
BRANCH  15  18
HETATM   18  C   UNK N   1      29.922  23.428  -3.531  0.00  0.00     0.268 C 
HETATM   19  C   UNK N   1      29.762  22.996  -2.084  0.00  0.00     0.037 C 
ENDBRANCH  15  18
ENDBRANCH  13  15
ENDBRANCH   1  13
TORSDOF 6
ENDMDL
MODEL 7
REMARK VINA RESULT:      -4.8     13.087     15.106
REMARK  6 active torsions:
REMARK  status: ('A' for Active; 'I' for Inactive)
REMARK    1  A    between atoms: N_3  and  C_4 
REMARK    2  A    between atoms: N_3  and  C_5 
REMARK    3  A    between atoms: N_3  and  C_6 
REMARK    4  A    between atoms: C_4  and  C_7 
REMARK    5  A    between atoms: C_9  and  C_12 
REMARK    6  A    between atoms: C_9  and  C_13 
ROOT
HETATM    1  C   UNK N   1      26.863  25.367  -5.652  0.00  0.00     0.022 C 
HETATM    2  C   UNK N   1      27.216  24.065  -5.657  0.00  0.00    -0.004 C 
ENDROOT
BRANCH   2   3
HETATM    3  C   UNK N   1      26.674  23.069  -6.650  0.00  0.00     0.016 A 
HETATM    4  S   UNK N   1      27.451  22.484  -7.994  0.00  0.00    -0.101 SA
HETATM    5  C   UNK N   1      26.301  21.450  -8.588  0.00  0.00     0.050 A 
HETATM    6  C   UNK N   1      25.218  21.541  -7.707  0.00  0.00     0.008 A 
HETATM    7  C   UNK N   1      25.422  22.446  -6.626  0.00  0.00     0.020 A 
ENDBRANCH   2   3
BRANCH   2   8
HETATM    8  C   UNK N   1      28.202  23.647  -4.618  0.00  0.00     0.016 A 
HETATM    9  S   UNK N   1      29.613  22.818  -4.908  0.00  0.00    -0.101 SA
HETATM   10  C   UNK N   1      30.187  22.660  -3.361  0.00  0.00     0.050 A 
HETATM   11  C   UNK N   1      29.242  23.281  -2.536  0.00  0.00     0.008 A 
HETATM   12  C   UNK N   1      28.130  23.831  -3.238  0.00  0.00     0.020 A 
ENDBRANCH   2   8
BRANCH   1  13
HETATM   13  C   UNK N   1      25.913  26.118  -6.559  0.00  0.00     0.242 C 
HETATM   14  C   UNK N   1      24.953  26.941  -5.707  0.00  0.00     0.047 C 
BRANCH  13  15
HETATM   15  N   UNK N   1      26.645  27.040  -7.446  0.00  0.00     0.095 N 
BRANCH  15  16
HETATM   16  C   UNK N   1      27.927  27.446  -6.871  0.00  0.00     0.268 C 
HETATM   17  C   UNK N   1      27.938  28.952  -6.682  0.00  0.00     0.037 C 
ENDBRANCH  15  16
BRANCH  15  18
HETATM   18  C   UNK N   1      26.942  26.338  -8.691  0.00  0.00     0.268 C 
HETATM   19  C   UNK N   1      25.688  25.684  -9.243  0.00  0.00     0.037 C 
ENDBRANCH  15  18
ENDBRANCH  13  15
ENDBRANCH   1  13
TORSDOF 6
ENDMDL
MODEL 8
REMARK VINA RESULT:      -4.8     12.710     14.725
REMARK  6 active torsions:
REMARK  status: ('A' for Active; 'I' for Inactive)
REMARK    1  A    between atoms: N_3  and  C_4 
REMARK    2  A    between atoms: N_3  and  C_5 
REMARK    3  A    between atoms: N_3  and  C_6 
REMARK    4  A    between atoms: C_4  and  C_7 
REMARK    5  A    between atoms: C_9  and  C_12 
REMARK    6  A    between atoms: C_9  and  C_13 
ROOT
HETATM    1  C   UNK N   1      27.042  26.194  -4.792  0.00  0.00     0.022 C 
HETATM    2  C   UNK N   1      27.342  24.893  -4.986  0.00  0.00    -0.004 C 
ENDROOT
BRANCH   2   3
HETATM    3  C   UNK N   1      26.917  24.125  -6.211  0.00  0.00     0.016 A 
HETATM    4  S   UNK N   1      27.606  24.198  -7.718  0.00  0.00    -0.101 SA
HETATM    5  C   UNK N   1      26.664  23.109  -8.539  0.00  0.00     0.050 A 
HETATM    6  C   UNK N   1      25.732  22.636  -7.610  0.00  0.00     0.008 A 
HETATM    7  C   UNK N   1      25.869  23.203  -6.309  0.00  0.00     0.020 A 
ENDBRANCH   2   3
BRANCH   2   8
HETATM    8  C   UNK N   1      28.147  24.236  -3.915  0.00  0.00     0.016 A 
HETATM    9  S   UNK N   1      29.794  24.011  -3.949  0.00  0.00    -0.101 SA
HETATM   10  C   UNK N   1      30.014  23.219  -2.510  0.00  0.00     0.050 A 
HETATM   11  C   UNK N   1      28.742  23.104  -1.937  0.00  0.00     0.008 A 
HETATM   12  C   UNK N   1      27.697  23.671  -2.723  0.00  0.00     0.020 A 
ENDBRANCH   2   8
BRANCH   1  13
HETATM   13  C   UNK N   1      26.266  27.152  -5.668  0.00  0.00     0.242 C 
HETATM   14  C   UNK N   1      24.779  26.827  -5.570  0.00  0.00     0.047 C 
BRANCH  13  15
HETATM   15  N   UNK N   1      26.460  28.546  -5.232  0.00  0.00     0.095 N 
BRANCH  15  16
HETATM   16  C   UNK N   1      26.081  28.736  -3.832  0.00  0.00     0.268 C 
HETATM   17  C   UNK N   1      27.067  29.681  -3.169  0.00  0.00     0.037 C 
ENDBRANCH  15  16
BRANCH  15  18
HETATM   18  C   UNK N   1      27.882  28.863  -5.332  0.00  0.00     0.268 C 
HETATM   19  C   UNK N   1      28.262  29.137  -6.777  0.00  0.00     0.037 C 
ENDBRANCH  15  18
ENDBRANCH  13  15
ENDBRANCH   1  13
TORSDOF 6
ENDMDL
MODEL 9
REMARK VINA RESULT:      -4.8      2.497      4.431
REMARK  6 active torsions:
REMARK  status: ('A' for Active; 'I' for Inactive)
REMARK    1  A    between atoms: N_3  and  C_4 
REMARK    2  A    between atoms: N_3  and  C_5 
REMARK    3  A    between atoms: N_3  and  C_6 
REMARK    4  A    between atoms: C_4  and  C_7 
REMARK    5  A    between atoms: C_9  and  C_12 
REMARK    6  A    between atoms: C_9  and  C_13 
ROOT
HETATM    1  C   UNK N   1      28.752  18.297   4.837  0.00  0.00     0.022 C 
HETATM    2  C   UNK N   1      29.554  17.687   5.736  0.00  0.00    -0.004 C 
ENDROOT
BRANCH   2   3
HETATM    3  C   UNK N   1      29.246  17.635   7.210  0.00  0.00     0.016 A 
HETATM    4  S   UNK N   1      30.271  18.032   8.453  0.00  0.00    -0.101 SA
HETATM    5  C   UNK N   1      29.290  17.760   9.759  0.00  0.00     0.050 A 
HETATM    6  C   UNK N   1      28.069  17.323   9.233  0.00  0.00     0.008 A 
HETATM    7  C   UNK N   1      28.043  17.250   7.810  0.00  0.00     0.020 A 
ENDBRANCH   2   3
BRANCH   2   8
HETATM    8  C   UNK N   1      30.781  17.037   5.189  0.00  0.00     0.016 A 
HETATM    9  S   UNK N   1      31.254  15.471   5.485  0.00  0.00    -0.101 SA
HETATM   10  C   UNK N   1      32.670  15.423   4.624  0.00  0.00     0.050 A 
HETATM   11  C   UNK N   1      32.817  16.694   4.055  0.00  0.00     0.008 A 
HETATM   12  C   UNK N   1      31.761  17.598   4.372  0.00  0.00     0.020 A 
ENDBRANCH   2   8
BRANCH   1  13
HETATM   13  C   UNK N   1      27.446  19.030   5.043  0.00  0.00     0.242 C 
HETATM   14  C   UNK N   1      27.739  20.459   5.489  0.00  0.00     0.047 C 
BRANCH  13  15
HETATM   15  N   UNK N   1      26.668  19.090   3.792  0.00  0.00     0.095 N 
BRANCH  15  16
HETATM   16  C   UNK N   1      25.890  17.870   3.576  0.00  0.00     0.268 C 
HETATM   17  C   UNK N   1      25.158  17.508   4.856  0.00  0.00     0.037 C 
ENDBRANCH  15  16
BRANCH  15  18
HETATM   18  C   UNK N   1      25.712  20.188   3.901  0.00  0.00     0.268 C 
HETATM   19  C   UNK N   1      25.098  20.491   2.545  0.00  0.00     0.037 C 
ENDBRANCH  15  18
ENDBRANCH  13  15
ENDBRANCH   1  13
TORSDOF 6
ENDMDL
