MODEL 1
REMARK VINA RESULT:      -4.5      0.000      0.000
REMARK  7 active torsions:
REMARK  status: ('A' for Active; 'I' for Inactive)
REMARK    1  A    between atoms: O_4  and  C_9 
REMARK    2  A    between atoms: O_4  and  C_13 
REMARK    3  A    between atoms: O_5  and  C_7 
REMARK    4  A    between atoms: O_6  and  C_13 
REMARK    5  A    between atoms: C_7  and  C_8 
REMARK    6  A    between atoms: C_8  and  C_9 
REMARK    7  A    between atoms: C_13  and  C_14 
ROOT
HETATM    1  O   UNK N   1      36.565  13.759  12.592  0.00  0.00    -0.352 OA
ENDROOT
BRANCH   1   2
HETATM    2  C   UNK N   1      35.878  13.379  11.433  0.00  0.00     0.123 C 
HETATM    3  C   UNK N   1      36.680  12.307  10.711  0.00  0.00     0.040 C 
BRANCH   2   4
HETATM    4  C   UNK N   1      35.682  14.611  10.540  0.00  0.00     0.068 C 
BRANCH   4   5
HETATM    5  C   UNK N   1      34.241  14.893  10.087  0.00  0.00     0.053 C 
HETATM    6  C   UNK N   1      33.746  13.794   9.166  0.00  0.00     0.045 C 
HETATM    7  C   UNK N   1      34.120  16.231   9.380  0.00  0.00     0.045 C 
BRANCH   5   8
HETATM    8  O   UNK N   1      33.424  14.926  11.216  0.00  0.00    -0.391 OA
HETATM    9  H   UNK N   1      33.197  14.339  11.955  0.00  0.00     0.210 HD
ENDBRANCH   5   8
ENDBRANCH   4   5
ENDBRANCH   2   4
ENDBRANCH   1   2
BRANCH   1  10
HETATM   10  C   UNK N   1      35.593  13.860  13.602  0.00  0.00     0.311 C 
BRANCH  10  11
HETATM   11  O   UNK N   1      34.507  13.044  13.283  0.00  0.00    -0.367 OA
HETATM   12  H   UNK N   1      34.590  12.225  12.769  0.00  0.00     0.212 HD
ENDBRANCH  10  11
BRANCH  10  13
HETATM   13  C   UNK N   1      36.174  13.469  14.965  0.00  0.00     0.237 C 
HETATM   14 Cl   UNK N   1      37.187  12.011  14.786  0.00  0.00    -0.078 Cl
HETATM   15 Cl   UNK N   1      37.177  14.784  15.634  0.00  0.00    -0.078 Cl
HETATM   16 Cl   UNK N   1      34.862  13.099  16.111  0.00  0.00    -0.078 Cl
ENDBRANCH  10  13
ENDBRANCH   1  10
TORSDOF 7
ENDMDL
MODEL 2
REMARK VINA RESULT:      -4.4      2.120      3.537
REMARK  7 active torsions:
REMARK  status: ('A' for Active; 'I' for Inactive)
REMARK    1  A    between atoms: O_4  and  C_9 
REMARK    2  A    between atoms: O_4  and  C_13 
REMARK    3  A    between atoms: O_5  and  C_7 
REMARK    4  A    between atoms: O_6  and  C_13 
REMARK    5  A    between atoms: C_7  and  C_8 
REMARK    6  A    between atoms: C_8  and  C_9 
REMARK    7  A    between atoms: C_13  and  C_14 
ROOT
HETATM    1  O   UNK N   1      35.132  13.438  15.059  0.00  0.00    -0.352 OA
ENDROOT
BRANCH   1   2
HETATM    2  C   UNK N   1      36.368  13.825  14.526  0.00  0.00     0.123 C 
HETATM    3  C   UNK N   1      37.089  14.704  15.537  0.00  0.00     0.040 C 
BRANCH   2   4
HETATM    4  C   UNK N   1      36.131  14.582  13.213  0.00  0.00     0.068 C 
BRANCH   4   5
HETATM    5  C   UNK N   1      35.645  13.737  12.025  0.00  0.00     0.053 C 
HETATM    6  C   UNK N   1      36.417  12.433  11.948  0.00  0.00     0.045 C 
HETATM    7  C   UNK N   1      35.781  14.479  10.708  0.00  0.00     0.045 C 
BRANCH   5   8
HETATM    8  O   UNK N   1      34.296  13.443  12.219  0.00  0.00    -0.391 OA
HETATM    9  H   UNK N   1      33.747  12.655  12.362  0.00  0.00     0.210 HD
ENDBRANCH   5   8
ENDBRANCH   4   5
ENDBRANCH   2   4
ENDBRANCH   1   2
BRANCH   1  10
HETATM   10  C   UNK N   1      35.427  12.577  16.131  0.00  0.00     0.311 C 
BRANCH  10  11
HETATM   11  O   UNK N   1      34.690  12.965  17.251  0.00  0.00    -0.367 OA
HETATM   12  H   UNK N   1      35.018  12.876  18.160  0.00  0.00     0.212 HD
ENDBRANCH  10  11
BRANCH  10  13
HETATM   13  C   UNK N   1      35.121  11.121  15.767  0.00  0.00     0.237 C 
HETATM   14 Cl   UNK N   1      34.742  10.203  17.249  0.00  0.00    -0.078 Cl
HETATM   15 Cl   UNK N   1      33.727  11.018  14.658  0.00  0.00    -0.078 Cl
HETATM   16 Cl   UNK N   1      36.537  10.368  14.992  0.00  0.00    -0.078 Cl
ENDBRANCH  10  13
ENDBRANCH   1  10
TORSDOF 7
ENDMDL
MODEL 3
REMARK VINA RESULT:      -4.4     19.729     21.718
REMARK  7 active torsions:
REMARK  status: ('A' for Active; 'I' for Inactive)
REMARK    1  A    between atoms: O_4  and  C_9 
REMARK    2  A    between atoms: O_4  and  C_13 
REMARK    3  A    between atoms: O_5  and  C_7 
REMARK    4  A    between atoms: O_6  and  C_13 
REMARK    5  A    between atoms: C_7  and  C_8 
REMARK    6  A    between atoms: C_8  and  C_9 
REMARK    7  A    between atoms: C_13  and  C_14 
ROOT
HETATM    1  O   UNK N   1      28.184  25.816  -4.081  0.00  0.00    -0.352 OA
ENDROOT
BRANCH   1   2
HETATM    2  C   UNK N   1      28.541  24.503  -4.412  0.00  0.00     0.123 C 
HETATM    3  C   UNK N   1      27.445  23.894  -5.273  0.00  0.00     0.040 C 
BRANCH   2   4
HETATM    4  C   UNK N   1      28.735  23.697  -3.121  0.00  0.00     0.068 C 
BRANCH   4   5
HETATM    5  C   UNK N   1      30.139  23.115  -2.894  0.00  0.00     0.053 C 
HETATM    6  C   UNK N   1      31.192  23.995  -3.540  0.00  0.00     0.045 C 
HETATM    7  C   UNK N   1      30.262  21.704  -3.438  0.00  0.00     0.045 C 
BRANCH   5   8
HETATM    8  O   UNK N   1      30.379  23.072  -1.521  0.00  0.00    -0.391 OA
HETATM    9  H   UNK N   1      30.016  23.474  -0.716  0.00  0.00     0.210 HD
ENDBRANCH   5   8
ENDBRANCH   4   5
ENDBRANCH   2   4
ENDBRANCH   1   2
BRANCH   1  10
HETATM   10  C   UNK N   1      26.778  25.845  -4.078  0.00  0.00     0.311 C 
BRANCH  10  11
HETATM   11  O   UNK N   1      26.318  25.787  -2.761  0.00  0.00    -0.367 OA
HETATM   12  H   UNK N   1      25.443  25.447  -2.518  0.00  0.00     0.212 HD
ENDBRANCH  10  11
BRANCH  10  13
HETATM   13  C   UNK N   1      26.252  27.103  -4.774  0.00  0.00     0.237 C 
HETATM   14 Cl   UNK N   1      27.500  27.740  -5.879  0.00  0.00    -0.078 Cl
HETATM   15 Cl   UNK N   1      24.781  26.743  -5.719  0.00  0.00    -0.078 Cl
HETATM   16 Cl   UNK N   1      25.876  28.362  -3.573  0.00  0.00    -0.078 Cl
ENDBRANCH  10  13
ENDBRANCH   1  10
TORSDOF 7
ENDMDL
MODEL 4
REMARK VINA RESULT:      -4.4      2.150      3.050
REMARK  7 active torsions:
REMARK  status: ('A' for Active; 'I' for Inactive)
REMARK    1  A    between atoms: O_4  and  C_9 
REMARK    2  A    between atoms: O_4  and  C_13 
REMARK    3  A    between atoms: O_5  and  C_7 
REMARK    4  A    between atoms: O_6  and  C_13 
REMARK    5  A    between atoms: C_7  and  C_8 
REMARK    6  A    between atoms: C_8  and  C_9 
REMARK    7  A    between atoms: C_13  and  C_14 
ROOT
HETATM    1  O   UNK N   1      34.572  13.167  13.474  0.00  0.00    -0.352 OA
ENDROOT
BRANCH   1   2
HETATM    2  C   UNK N   1      35.729  13.756  12.948  0.00  0.00     0.123 C 
HETATM    3  C   UNK N   1      36.480  14.457  14.070  0.00  0.00     0.040 C 
BRANCH   2   4
HETATM    4  C   UNK N   1      35.330  14.751  11.851  0.00  0.00     0.068 C 
BRANCH   4   5
HETATM    5  C   UNK N   1      36.312  14.888  10.676  0.00  0.00     0.053 C 
HETATM    6  C   UNK N   1      35.560  15.036   9.368  0.00  0.00     0.045 C 
HETATM    7  C   UNK N   1      37.253  13.700  10.583  0.00  0.00     0.045 C 
BRANCH   5   8
HETATM    8  O   UNK N   1      37.080  16.033  10.878  0.00  0.00    -0.391 OA
HETATM    9  H   UNK N   1      37.595  16.656  10.341  0.00  0.00     0.210 HD
ENDBRANCH   5   8
ENDBRANCH   4   5
ENDBRANCH   2   4
ENDBRANCH   1   2
BRANCH   1  10
HETATM   10  C   UNK N   1      34.958  12.570  14.686  0.00  0.00     0.311 C 
BRANCH  10  11
HETATM   11  O   UNK N   1      34.078  12.962  15.696  0.00  0.00    -0.367 OA
HETATM   12  H   UNK N   1      33.978  13.882  15.987  0.00  0.00     0.212 HD
ENDBRANCH  10  11
BRANCH  10  13
HETATM   13  C   UNK N   1      34.986  11.044  14.564  0.00  0.00     0.237 C 
HETATM   14 Cl   UNK N   1      36.631  10.511  14.122  0.00  0.00    -0.078 Cl
HETATM   15 Cl   UNK N   1      34.528  10.270  16.104  0.00  0.00    -0.078 Cl
HETATM   16 Cl   UNK N   1      33.866  10.507  13.288  0.00  0.00    -0.078 Cl
ENDBRANCH  10  13
ENDBRANCH   1  10
TORSDOF 7
ENDMDL
MODEL 5
REMARK VINA RESULT:      -4.4      2.750      5.264
REMARK  7 active torsions:
REMARK  status: ('A' for Active; 'I' for Inactive)
REMARK    1  A    between atoms: O_4  and  C_9 
REMARK    2  A    between atoms: O_4  and  C_13 
REMARK    3  A    between atoms: O_5  and  C_7 
REMARK    4  A    between atoms: O_6  and  C_13 
REMARK    5  A    between atoms: C_7  and  C_8 
REMARK    6  A    between atoms: C_8  and  C_9 
REMARK    7  A    between atoms: C_13  and  C_14 
ROOT
HETATM    1  O   UNK N   1      34.460  12.765  13.607  0.00  0.00    -0.352 OA
ENDROOT
BRANCH   1   2
HETATM    2  C   UNK N   1      34.740  11.435  13.946  0.00  0.00     0.123 C 
HETATM    3  C   UNK N   1      33.924  10.515  13.049  0.00  0.00     0.040 C 
BRANCH   2   4
HETATM    4  C   UNK N   1      34.392  11.210  15.423  0.00  0.00     0.068 C 
BRANCH   4   5
HETATM    5  C   UNK N   1      35.433  11.697  16.442  0.00  0.00     0.053 C 
HETATM    6  C   UNK N   1      35.641  10.660  17.529  0.00  0.00     0.045 C 
HETATM    7  C   UNK N   1      35.031  13.015  17.078  0.00  0.00     0.045 C 
BRANCH   5   8
HETATM    8  O   UNK N   1      36.642  11.890  15.776  0.00  0.00    -0.391 OA
HETATM    9  H   UNK N   1      36.944  12.054  14.868  0.00  0.00     0.210 HD
ENDBRANCH   5   8
ENDBRANCH   4   5
ENDBRANCH   2   4
ENDBRANCH   1   2
BRANCH   1  10
HETATM   10  C   UNK N   1      34.961  12.946  12.307  0.00  0.00     0.311 C 
BRANCH  10  11
HETATM   11  O   UNK N   1      34.067  13.725  11.571  0.00  0.00    -0.367 OA
HETATM   12  H   UNK N   1      33.342  14.227  11.975  0.00  0.00     0.212 HD
ENDBRANCH  10  11
BRANCH  10  13
HETATM   13  C   UNK N   1      36.344  13.603  12.336  0.00  0.00     0.237 C 
HETATM   14 Cl   UNK N   1      36.512  14.575  13.824  0.00  0.00    -0.078 Cl
HETATM   15 Cl   UNK N   1      37.637  12.374  12.308  0.00  0.00    -0.078 Cl
HETATM   16 Cl   UNK N   1      36.543  14.688  10.938  0.00  0.00    -0.078 Cl
ENDBRANCH  10  13
ENDBRANCH   1  10
TORSDOF 7
ENDMDL
MODEL 6
REMARK VINA RESULT:      -4.4      1.527      1.872
REMARK  7 active torsions:
REMARK  status: ('A' for Active; 'I' for Inactive)
REMARK    1  A    between atoms: O_4  and  C_9 
REMARK    2  A    between atoms: O_4  and  C_13 
REMARK    3  A    between atoms: O_5  and  C_7 
REMARK    4  A    between atoms: O_6  and  C_13 
REMARK    5  A    between atoms: C_7  and  C_8 
REMARK    6  A    between atoms: C_8  and  C_9 
REMARK    7  A    between atoms: C_13  and  C_14 
ROOT
HETATM    1  O   UNK N   1      34.863  13.463  13.573  0.00  0.00    -0.352 OA
ENDROOT
BRANCH   1   2
HETATM    2  C   UNK N   1      35.288  13.056  12.303  0.00  0.00     0.123 C 
HETATM    3  C   UNK N   1      36.325  11.953  12.458  0.00  0.00     0.040 C 
BRANCH   2   4
HETATM    4  C   UNK N   1      35.879  14.262  11.562  0.00  0.00     0.068 C 
BRANCH   4   5
HETATM    5  C   UNK N   1      34.884  15.112  10.757  0.00  0.00     0.053 C 
HETATM    6  C   UNK N   1      34.828  14.647   9.315  0.00  0.00     0.045 C 
HETATM    7  C   UNK N   1      35.239  16.588  10.794  0.00  0.00     0.045 C 
BRANCH   5   8
HETATM    8  O   UNK N   1      33.618  14.958  11.321  0.00  0.00    -0.391 OA
HETATM    9  H   UNK N   1      32.699  14.898  11.016  0.00  0.00     0.210 HD
ENDBRANCH   5   8
ENDBRANCH   4   5
ENDBRANCH   2   4
ENDBRANCH   1   2
BRANCH   1  10
HETATM   10  C   UNK N   1      35.827  12.981  14.476  0.00  0.00     0.311 C 
BRANCH  10  11
HETATM   11  O   UNK N   1      36.550  14.055  14.997  0.00  0.00    -0.367 OA
HETATM   12  H   UNK N   1      36.334  14.482  15.840  0.00  0.00     0.212 HD
ENDBRANCH  10  11
BRANCH  10  13
HETATM   13  C   UNK N   1      35.171  12.180  15.604  0.00  0.00     0.237 C 
HETATM   14 Cl   UNK N   1      36.354  11.031  16.286  0.00  0.00    -0.078 Cl
HETATM   15 Cl   UNK N   1      34.604  13.257  16.908  0.00  0.00    -0.078 Cl
HETATM   16 Cl   UNK N   1      33.788  11.249  14.977  0.00  0.00    -0.078 Cl
ENDBRANCH  10  13
ENDBRANCH   1  10
TORSDOF 7
ENDMDL
MODEL 7
REMARK VINA RESULT:      -4.4      4.205      5.979
REMARK  7 active torsions:
REMARK  status: ('A' for Active; 'I' for Inactive)
REMARK    1  A    between atoms: O_4  and  C_9 
REMARK    2  A    between atoms: O_4  and  C_13 
REMARK    3  A    between atoms: O_5  and  C_7 
REMARK    4  A    between atoms: O_6  and  C_13 
REMARK    5  A    between atoms: C_7  and  C_8 
REMARK    6  A    between atoms: C_8  and  C_9 
REMARK    7  A    between atoms: C_13  and  C_14 
ROOT
HETATM    1  O   UNK N   1      32.701  16.327   9.170  0.00  0.00    -0.352 OA
ENDROOT
BRANCH   1   2
HETATM    2  C   UNK N   1      32.508  17.344   8.227  0.00  0.00     0.123 C 
HETATM    3  C   UNK N   1      31.250  18.120   8.588  0.00  0.00     0.040 C 
BRANCH   2   4
HETATM    4  C   UNK N   1      32.382  16.716   6.833  0.00  0.00     0.068 C 
BRANCH   4   5
HETATM    5  C   UNK N   1      33.509  17.046   5.841  0.00  0.00     0.053 C 
HETATM    6  C   UNK N   1      32.936  17.563   4.535  0.00  0.00     0.045 C 
HETATM    7  C   UNK N   1      34.389  15.842   5.562  0.00  0.00     0.045 C 
BRANCH   5   8
HETATM    8  O   UNK N   1      34.307  18.044   6.400  0.00  0.00    -0.391 OA
HETATM    9  H   UNK N   1      34.189  18.828   6.959  0.00  0.00     0.210 HD
ENDBRANCH   5   8
ENDBRANCH   4   5
ENDBRANCH   2   4
ENDBRANCH   1   2
BRANCH   1  10
HETATM   10  C   UNK N   1      34.093  16.196   9.317  0.00  0.00     0.311 C 
BRANCH  10  11
HETATM   11  O   UNK N   1      34.530  17.031  10.346  0.00  0.00    -0.367 OA
HETATM   12  H   UNK N   1      35.412  16.967  10.746  0.00  0.00     0.212 HD
ENDBRANCH  10  11
BRANCH  10  13
HETATM   13  C   UNK N   1      34.482  14.744   9.605  0.00  0.00     0.237 C 
HETATM   14 Cl   UNK N   1      34.574  14.489  11.369  0.00  0.00    -0.078 Cl
HETATM   15 Cl   UNK N   1      33.281  13.613   8.925  0.00  0.00    -0.078 Cl
HETATM   16 Cl   UNK N   1      36.080  14.382   8.906  0.00  0.00    -0.078 Cl
ENDBRANCH  10  13
ENDBRANCH   1  10
TORSDOF 7
ENDMDL
MODEL 8
REMARK VINA RESULT:      -4.3     19.915     22.055
REMARK  7 active torsions:
REMARK  status: ('A' for Active; 'I' for Inactive)
REMARK    1  A    between atoms: O_4  and  C_9 
REMARK    2  A    between atoms: O_4  and  C_13 
REMARK    3  A    between atoms: O_5  and  C_7 
REMARK    4  A    between atoms: O_6  and  C_13 
REMARK    5  A    between atoms: C_7  and  C_8 
REMARK    6  A    between atoms: C_8  and  C_9 
REMARK    7  A    between atoms: C_13  and  C_14 
ROOT
HETATM    1  O   UNK N   1      26.954  25.097  -4.787  0.00  0.00    -0.352 OA
ENDROOT
BRANCH   1   2
HETATM    2  C   UNK N   1      26.183  26.254  -4.618  0.00  0.00     0.123 C 
HETATM    3  C   UNK N   1      25.107  26.293  -5.693  0.00  0.00     0.040 C 
BRANCH   2   4
HETATM    4  C   UNK N   1      27.097  27.482  -4.714  0.00  0.00     0.068 C 
BRANCH   4   5
HETATM    5  C   UNK N   1      27.000  28.487  -3.555  0.00  0.00     0.053 C 
HETATM    6  C   UNK N   1      26.404  29.797  -4.033  0.00  0.00     0.045 C 
HETATM    7  C   UNK N   1      28.353  28.753  -2.921  0.00  0.00     0.045 C 
BRANCH   5   8
HETATM    8  O   UNK N   1      26.164  27.950  -2.578  0.00  0.00    -0.391 OA
HETATM    9  H   UNK N   1      25.224  27.724  -2.482  0.00  0.00     0.210 HD
ENDBRANCH   5   8
ENDBRANCH   4   5
ENDBRANCH   2   4
ENDBRANCH   1   2
BRANCH   1  10
HETATM   10  C   UNK N   1      27.442  24.768  -3.511  0.00  0.00     0.311 C 
BRANCH  10  11
HETATM   11  O   UNK N   1      26.527  23.933  -2.867  0.00  0.00    -0.367 OA
HETATM   12  H   UNK N   1      26.744  23.417  -2.075  0.00  0.00     0.212 HD
ENDBRANCH  10  11
BRANCH  10  13
HETATM   13  C   UNK N   1      28.812  24.090  -3.604  0.00  0.00     0.237 C 
HETATM   14 Cl   UNK N   1      30.092  25.333  -3.632  0.00  0.00    -0.078 Cl
HETATM   15 Cl   UNK N   1      29.090  23.015  -2.207  0.00  0.00    -0.078 Cl
HETATM   16 Cl   UNK N   1      28.928  23.136  -5.104  0.00  0.00    -0.078 Cl
ENDBRANCH  10  13
ENDBRANCH   1  10
TORSDOF 7
ENDMDL
MODEL 9
REMARK VINA RESULT:      -4.2     21.357     23.288
REMARK  7 active torsions:
REMARK  status: ('A' for Active; 'I' for Inactive)
REMARK    1  A    between atoms: O_4  and  C_9 
REMARK    2  A    between atoms: O_4  and  C_13 
REMARK    3  A    between atoms: O_5  and  C_7 
REMARK    4  A    between atoms: O_6  and  C_13 
REMARK    5  A    between atoms: C_7  and  C_8 
REMARK    6  A    between atoms: C_8  and  C_9 
REMARK    7  A    between atoms: C_13  and  C_14 
ROOT
HETATM    1  O   UNK N   1      27.302  26.498  -3.413  0.00  0.00    -0.352 OA
ENDROOT
BRANCH   1   2
HETATM    2  C   UNK N   1      26.806  25.283  -3.901  0.00  0.00     0.123 C 
HETATM    3  C   UNK N   1      27.368  24.146  -3.060  0.00  0.00     0.040 C 
BRANCH   2   4
HETATM    4  C   UNK N   1      27.214  25.131  -5.371  0.00  0.00     0.068 C 
BRANCH   4   5
HETATM    5  C   UNK N   1      26.084  24.776  -6.351  0.00  0.00     0.053 C 
HETATM    6  C   UNK N   1      26.253  23.361  -6.870  0.00  0.00     0.045 C 
HETATM    7  C   UNK N   1      26.028  25.738  -7.524  0.00  0.00     0.045 C 
BRANCH   5   8
HETATM    8  O   UNK N   1      24.871  24.855  -5.669  0.00  0.00    -0.391 OA
HETATM    9  H   UNK N   1      24.285  25.548  -5.323  0.00  0.00     0.210 HD
ENDBRANCH   5   8
ENDBRANCH   4   5
ENDBRANCH   2   4
ENDBRANCH   1   2
BRANCH   1  10
HETATM   10  C   UNK N   1      26.436  27.493  -3.899  0.00  0.00     0.311 C 
BRANCH  10  11
HETATM   11  O   UNK N   1      25.504  27.818  -2.913  0.00  0.00    -0.367 OA
HETATM   12  H   UNK N   1      24.702  27.298  -2.747  0.00  0.00     0.212 HD
ENDBRANCH  10  11
BRANCH  10  13
HETATM   13  C   UNK N   1      27.215  28.739  -4.330  0.00  0.00     0.237 C 
HETATM   14 Cl   UNK N   1      27.386  28.753  -6.106  0.00  0.00    -0.078 Cl
HETATM   15 Cl   UNK N   1      26.372  30.228  -3.824  0.00  0.00    -0.078 Cl
HETATM   16 Cl   UNK N   1      28.847  28.724  -3.614  0.00  0.00    -0.078 Cl
ENDBRANCH  10  13
ENDBRANCH   1  10
TORSDOF 7
ENDMDL
