MODEL 1
REMARK VINA RESULT:      -6.8      0.000      0.000
REMARK  8 active torsions:
REMARK  status: ('A' for Active; 'I' for Inactive)
REMARK    1  A    between atoms: O_1  and  C_12 
REMARK    2  A    between atoms: N_4  and  C_11 
REMARK    3  A    between atoms: N_5  and  C_6 
REMARK    4  A    between atoms: N_5  and  C_13 
REMARK       I    between atoms: N_5  and  C_15 
REMARK    5  A    between atoms: C_6  and  C_12 
REMARK    6  A    between atoms: C_11  and  C_14 
REMARK    7  A    between atoms: C_14  and  C_17 
REMARK    8  A    between atoms: C_15  and  C_16 
ROOT
HETATM    1  N   UNK N   1      29.622  15.745   4.290  0.00  0.00     0.088 N 
HETATM    2  C   UNK N   1      27.710  17.728   5.103  0.00  0.00     0.131 C 
HETATM    3  C   UNK N   1      29.235  18.075   4.921  0.00  0.00     0.072 C 
HETATM    4  C   UNK N   1      27.402  16.988   3.785  0.00  0.00     0.072 C 
HETATM    5  C   UNK N   1      30.103  17.102   4.112  0.00  0.00     0.275 C 
HETATM    6  C   UNK N   1      28.244  15.652   3.734  0.00  0.00     0.275 C 
ENDROOT
BRANCH   2   7
HETATM    7  N   UNK N   1      26.995  19.009   5.358  0.00  0.00    -0.298 N 
HETATM    8  C   UNK N   1      27.472  19.893   6.310  0.00  0.00     0.225 C 
HETATM    9  O   UNK N   1      28.394  19.587   7.045  0.00  0.00    -0.273 OA
BRANCH   7  10
HETATM   10  C   UNK N   1      25.938  19.398   4.437  0.00  0.00     0.038 A 
HETATM   11  C   UNK N   1      26.187  20.241   3.340  0.00  0.00     0.030 A 
HETATM   12  C   UNK N   1      25.137  20.680   2.524  0.00  0.00     0.002 A 
HETATM   13  C   UNK N   1      23.823  20.288   2.788  0.00  0.00     0.000 A 
HETATM   14  C   UNK N   1      23.554  19.442   3.858  0.00  0.00     0.002 A 
HETATM   15  C   UNK N   1      24.598  19.006   4.667  0.00  0.00     0.030 A 
ENDBRANCH   7  10
BRANCH   8  16
HETATM   16  C   UNK N   1      26.950  21.306   6.398  0.00  0.00     0.099 C 
HETATM   17  C   UNK N   1      26.032  21.487   7.586  0.00  0.00     0.014 C 
ENDBRANCH   8  16
ENDBRANCH   2   7
BRANCH   2  18
HETATM   18  C   UNK N   1      27.278  16.795   6.245  0.00  0.00     0.287 C 
HETATM   19  O   UNK N   1      27.930  16.742   7.277  0.00  0.00    -0.262 OA
BRANCH  18  20
HETATM   20  O   UNK N   1      26.126  16.075   6.130  0.00  0.00    -0.325 OA
HETATM   21  C   UNK N   1      25.876  14.931   6.849  0.00  0.00     0.213 C 
ENDBRANCH  18  20
ENDBRANCH   2  18
BRANCH   1  22
HETATM   22  C   UNK N   1      29.681  15.481   5.737  0.00  0.00     0.277 C 
BRANCH  22  23
HETATM   23  C   UNK N   1      31.037  15.049   6.225  0.00  0.00     0.068 C 
BRANCH  23  24
HETATM   24  C   UNK N   1      31.862  16.169   6.768  0.00  0.00    -0.057 A 
HETATM   25  C   UNK N   1      33.140  16.486   6.273  0.00  0.00     0.007 A 
HETATM   26  C   UNK N   1      33.889  17.504   6.873  0.00  0.00     0.001 A 
HETATM   27  C   UNK N   1      33.366  18.201   7.966  0.00  0.00     0.000 A 
HETATM   28  C   UNK N   1      32.090  17.894   8.446  0.00  0.00     0.001 A 
HETATM   29  C   UNK N   1      31.342  16.883   7.845  0.00  0.00     0.007 A 
ENDBRANCH  23  24
ENDBRANCH  22  23
ENDBRANCH   1  22
TORSDOF 8
ENDMDL
MODEL 2
REMARK VINA RESULT:      -6.4      6.884     11.345
REMARK  8 active torsions:
REMARK  status: ('A' for Active; 'I' for Inactive)
REMARK    1  A    between atoms: O_1  and  C_12 
REMARK    2  A    between atoms: N_4  and  C_11 
REMARK    3  A    between atoms: N_5  and  C_6 
REMARK    4  A    between atoms: N_5  and  C_13 
REMARK       I    between atoms: N_5  and  C_15 
REMARK    5  A    between atoms: C_6  and  C_12 
REMARK    6  A    between atoms: C_11  and  C_14 
REMARK    7  A    between atoms: C_14  and  C_17 
REMARK    8  A    between atoms: C_15  and  C_16 
ROOT
HETATM    1  N   UNK N   1      33.832  14.859   8.718  0.00  0.00     0.088 N 
HETATM    2  C   UNK N   1      35.387  13.768  10.872  0.00  0.00     0.131 C 
HETATM    3  C   UNK N   1      34.156  14.714  11.136  0.00  0.00     0.072 C 
HETATM    4  C   UNK N   1      34.786  12.747   9.884  0.00  0.00     0.072 C 
HETATM    5  C   UNK N   1      33.150  14.922   9.997  0.00  0.00     0.275 C 
HETATM    6  C   UNK N   1      34.397  13.492   8.546  0.00  0.00     0.275 C 
ENDROOT
BRANCH   2   7
HETATM    7  N   UNK N   1      35.844  13.261  12.195  0.00  0.00    -0.298 N 
HETATM    8  C   UNK N   1      36.131  14.149  13.218  0.00  0.00     0.225 C 
HETATM    9  O   UNK N   1      36.148  15.350  13.020  0.00  0.00    -0.273 OA
BRANCH   7  10
HETATM   10  C   UNK N   1      35.760  11.831  12.446  0.00  0.00     0.038 A 
HETATM   11  C   UNK N   1      34.591  11.237  12.954  0.00  0.00     0.030 A 
HETATM   12  C   UNK N   1      34.564   9.876  13.279  0.00  0.00     0.002 A 
HETATM   13  C   UNK N   1      35.701   9.083  13.105  0.00  0.00     0.000 A 
HETATM   14  C   UNK N   1      36.864   9.644  12.589  0.00  0.00     0.002 A 
HETATM   15  C   UNK N   1      36.888  10.997  12.266  0.00  0.00     0.030 A 
ENDBRANCH   7  10
BRANCH   8  16
HETATM   16  C   UNK N   1      36.319  13.674  14.638  0.00  0.00     0.099 C 
HETATM   17  C   UNK N   1      37.086  14.681  15.465  0.00  0.00     0.014 C 
ENDBRANCH   8  16
ENDBRANCH   2   7
BRANCH   2  18
HETATM   18  C   UNK N   1      36.649  14.339  10.205  0.00  0.00     0.287 C 
HETATM   19  O   UNK N   1      36.898  15.533  10.279  0.00  0.00    -0.262 OA
BRANCH  18  20
HETATM   20  O   UNK N   1      37.526  13.497   9.588  0.00  0.00    -0.325 OA
HETATM   21  C   UNK N   1      38.815  13.300  10.023  0.00  0.00     0.213 C 
ENDBRANCH  18  20
ENDBRANCH   2  18
BRANCH   1  22
HETATM   22  C   UNK N   1      34.863  15.910   8.756  0.00  0.00     0.277 C 
BRANCH  22  23
HETATM   23  C   UNK N   1      34.341  17.290   8.461  0.00  0.00     0.068 C 
BRANCH  23  24
HETATM   24  C   UNK N   1      33.383  17.335   7.317  0.00  0.00    -0.057 A 
HETATM   25  C   UNK N   1      31.986  17.325   7.489  0.00  0.00     0.007 A 
HETATM   26  C   UNK N   1      31.145  17.299   6.372  0.00  0.00     0.001 A 
HETATM   27  C   UNK N   1      31.694  17.277   5.087  0.00  0.00     0.000 A 
HETATM   28  C   UNK N   1      33.081  17.301   4.919  0.00  0.00     0.001 A 
HETATM   29  C   UNK N   1      33.920  17.333   6.032  0.00  0.00     0.007 A 
ENDBRANCH  23  24
ENDBRANCH  22  23
ENDBRANCH   1  22
TORSDOF 8
ENDMDL
MODEL 3
REMARK VINA RESULT:      -6.3      4.068      6.681
REMARK  8 active torsions:
REMARK  status: ('A' for Active; 'I' for Inactive)
REMARK    1  A    between atoms: O_1  and  C_12 
REMARK    2  A    between atoms: N_4  and  C_11 
REMARK    3  A    between atoms: N_5  and  C_6 
REMARK    4  A    between atoms: N_5  and  C_13 
REMARK       I    between atoms: N_5  and  C_15 
REMARK    5  A    between atoms: C_6  and  C_12 
REMARK    6  A    between atoms: C_11  and  C_14 
REMARK    7  A    between atoms: C_14  and  C_17 
REMARK    8  A    between atoms: C_15  and  C_16 
ROOT
HETATM    1  N   UNK N   1      34.163  14.989   9.396  0.00  0.00     0.088 N 
HETATM    2  C   UNK N   1      32.587  16.292   7.379  0.00  0.00     0.131 C 
HETATM    3  C   UNK N   1      34.016  15.710   7.064  0.00  0.00     0.072 C 
HETATM    4  C   UNK N   1      31.919  15.102   8.097  0.00  0.00     0.072 C 
HETATM    5  C   UNK N   1      34.611  14.694   8.048  0.00  0.00     0.275 C 
HETATM    6  C   UNK N   1      32.684  14.822   9.452  0.00  0.00     0.275 C 
ENDROOT
BRANCH   2   7
HETATM    7  N   UNK N   1      31.998  16.736   6.085  0.00  0.00    -0.298 N 
HETATM    8  C   UNK N   1      32.781  17.401   5.157  0.00  0.00     0.225 C 
HETATM    9  O   UNK N   1      33.914  17.755   5.430  0.00  0.00    -0.273 OA
BRANCH   7  10
HETATM   10  C   UNK N   1      30.669  16.255   5.738  0.00  0.00     0.038 A 
HETATM   11  C   UNK N   1      29.515  17.012   6.008  0.00  0.00     0.030 A 
HETATM   12  C   UNK N   1      28.242  16.489   5.755  0.00  0.00     0.002 A 
HETATM   13  C   UNK N   1      28.097  15.203   5.229  0.00  0.00     0.000 A 
HETATM   14  C   UNK N   1      29.223  14.442   4.938  0.00  0.00     0.002 A 
HETATM   15  C   UNK N   1      30.487  14.963   5.190  0.00  0.00     0.030 A 
ENDBRANCH   7  10
BRANCH   8  16
HETATM   16  C   UNK N   1      32.308  17.611   3.740  0.00  0.00     0.099 C 
HETATM   17  C   UNK N   1      32.880  16.572   2.802  0.00  0.00     0.014 C 
ENDBRANCH   8  16
ENDBRANCH   2   7
BRANCH   2  18
HETATM   18  C   UNK N   1      32.455  17.505   8.314  0.00  0.00     0.287 C 
HETATM   19  O   UNK N   1      33.299  18.387   8.302  0.00  0.00    -0.262 OA
BRANCH  18  20
HETATM   20  O   UNK N   1      31.354  17.626   9.110  0.00  0.00    -0.325 OA
HETATM   21  C   UNK N   1      30.477  18.681   9.029  0.00  0.00     0.213 C 
ENDBRANCH  18  20
ENDBRANCH   2  18
BRANCH   1  22
HETATM   22  C   UNK N   1      34.600  16.366   9.677  0.00  0.00     0.277 C 
BRANCH  22  23
HETATM   23  C   UNK N   1      35.580  16.477  10.813  0.00  0.00     0.068 C 
BRANCH  23  24
HETATM   24  C   UNK N   1      36.098  15.159  11.286  0.00  0.00    -0.057 A 
HETATM   25  C   UNK N   1      35.686  14.564  12.493  0.00  0.00     0.007 A 
HETATM   26  C   UNK N   1      36.262  13.361  12.912  0.00  0.00     0.001 A 
HETATM   27  C   UNK N   1      37.250  12.754  12.132  0.00  0.00     0.000 A 
HETATM   28  C   UNK N   1      37.647  13.338  10.925  0.00  0.00     0.001 A 
HETATM   29  C   UNK N   1      37.069  14.535  10.506  0.00  0.00     0.007 A 
ENDBRANCH  23  24
ENDBRANCH  22  23
ENDBRANCH   1  22
TORSDOF 8
ENDMDL
MODEL 4
REMARK VINA RESULT:      -6.2     11.011     14.556
REMARK  8 active torsions:
REMARK  status: ('A' for Active; 'I' for Inactive)
REMARK    1  A    between atoms: O_1  and  C_12 
REMARK    2  A    between atoms: N_4  and  C_11 
REMARK    3  A    between atoms: N_5  and  C_6 
REMARK    4  A    between atoms: N_5  and  C_13 
REMARK       I    between atoms: N_5  and  C_15 
REMARK    5  A    between atoms: C_6  and  C_12 
REMARK    6  A    between atoms: C_11  and  C_14 
REMARK    7  A    between atoms: C_14  and  C_17 
REMARK    8  A    between atoms: C_15  and  C_16 
ROOT
HETATM    1  N   UNK N   1      25.525  28.130  -4.404  0.00  0.00     0.088 N 
HETATM    2  C   UNK N   1      26.911  25.777  -5.295  0.00  0.00     0.131 C 
HETATM    3  C   UNK N   1      26.972  26.256  -3.796  0.00  0.00     0.072 C 
HETATM    4  C   UNK N   1      25.393  25.815  -5.569  0.00  0.00     0.072 C 
HETATM    5  C   UNK N   1      25.910  27.253  -3.315  0.00  0.00     0.275 C 
HETATM    6  C   UNK N   1      24.889  27.310  -5.473  0.00  0.00     0.275 C 
ENDROOT
BRANCH   2   7
HETATM    7  N   UNK N   1      27.591  24.454  -5.362  0.00  0.00    -0.298 N 
HETATM    8  C   UNK N   1      27.408  23.634  -6.462  0.00  0.00     0.225 C 
HETATM    9  O   UNK N   1      26.592  23.910  -7.322  0.00  0.00    -0.273 OA
BRANCH   7  10
HETATM   10  C   UNK N   1      28.611  24.158  -4.367  0.00  0.00     0.038 A 
HETATM   11  C   UNK N   1      29.962  24.492  -4.571  0.00  0.00     0.030 A 
HETATM   12  C   UNK N   1      30.940  24.111  -3.645  0.00  0.00     0.002 A 
HETATM   13  C   UNK N   1      30.589  23.391  -2.501  0.00  0.00     0.000 A 
HETATM   14  C   UNK N   1      29.257  23.063  -2.269  0.00  0.00     0.002 A 
HETATM   15  C   UNK N   1      28.287  23.443  -3.190  0.00  0.00     0.030 A 
ENDBRANCH   7  10
BRANCH   8  16
HETATM   16  C   UNK N   1      28.289  22.431  -6.697  0.00  0.00     0.099 C 
HETATM   17  C   UNK N   1      27.700  21.505  -7.737  0.00  0.00     0.014 C 
ENDBRANCH   8  16
ENDBRANCH   2   7
BRANCH   2  18
HETATM   18  C   UNK N   1      27.580  26.626  -6.387  0.00  0.00     0.287 C 
HETATM   19  O   UNK N   1      28.714  27.050  -6.230  0.00  0.00    -0.262 OA
BRANCH  18  20
HETATM   20  O   UNK N   1      26.927  26.848  -7.564  0.00  0.00    -0.325 OA
HETATM   21  C   UNK N   1      27.562  26.895  -8.782  0.00  0.00     0.213 C 
ENDBRANCH  18  20
ENDBRANCH   2  18
BRANCH   1  22
HETATM   22  C   UNK N   1      26.761  28.796  -4.845  0.00  0.00     0.277 C 
BRANCH  22  23
HETATM   23  C   UNK N   1      27.022  30.113  -4.167  0.00  0.00     0.068 C 
BRANCH  23  24
HETATM   24  C   UNK N   1      28.098  30.051  -3.134  0.00  0.00    -0.057 A 
HETATM   25  C   UNK N   1      29.254  29.261  -3.282  0.00  0.00     0.007 A 
HETATM   26  C   UNK N   1      30.191  29.194  -2.246  0.00  0.00     0.001 A 
HETATM   27  C   UNK N   1      29.975  29.908  -1.064  0.00  0.00     0.000 A 
HETATM   28  C   UNK N   1      28.834  30.704  -0.926  0.00  0.00     0.001 A 
HETATM   29  C   UNK N   1      27.903  30.775  -1.960  0.00  0.00     0.007 A 
ENDBRANCH  23  24
ENDBRANCH  22  23
ENDBRANCH   1  22
TORSDOF 8
ENDMDL
MODEL 5
REMARK VINA RESULT:      -6.2      9.618     13.048
REMARK  8 active torsions:
REMARK  status: ('A' for Active; 'I' for Inactive)
REMARK    1  A    between atoms: O_1  and  C_12 
REMARK    2  A    between atoms: N_4  and  C_11 
REMARK    3  A    between atoms: N_5  and  C_6 
REMARK    4  A    between atoms: N_5  and  C_13 
REMARK       I    between atoms: N_5  and  C_15 
REMARK    5  A    between atoms: C_6  and  C_12 
REMARK    6  A    between atoms: C_11  and  C_14 
REMARK    7  A    between atoms: C_14  and  C_17 
REMARK    8  A    between atoms: C_15  and  C_16 
ROOT
HETATM    1  N   UNK N   1      37.067  10.015  14.432  0.00  0.00     0.088 N 
HETATM    2  C   UNK N   1      36.394  11.969  12.437  0.00  0.00     0.131 C 
HETATM    3  C   UNK N   1      37.179  12.359  13.745  0.00  0.00     0.072 C 
HETATM    4  C   UNK N   1      37.198  10.748  11.946  0.00  0.00     0.072 C 
HETATM    5  C   UNK N   1      37.847  11.233  14.547  0.00  0.00     0.275 C 
HETATM    6  C   UNK N   1      37.066   9.583  13.007  0.00  0.00     0.275 C 
ENDROOT
BRANCH   2   7
HETATM    7  N   UNK N   1      36.369  13.175  11.564  0.00  0.00    -0.298 N 
HETATM    8  C   UNK N   1      35.933  14.389  12.067  0.00  0.00     0.225 C 
HETATM    9  O   UNK N   1      35.437  14.466  13.177  0.00  0.00    -0.273 OA
BRANCH   7  10
HETATM   10  C   UNK N   1      37.020  13.093  10.265  0.00  0.00     0.038 A 
HETATM   11  C   UNK N   1      36.309  12.742   9.103  0.00  0.00     0.030 A 
HETATM   12  C   UNK N   1      36.974  12.574   7.883  0.00  0.00     0.002 A 
HETATM   13  C   UNK N   1      38.357  12.752   7.800  0.00  0.00     0.000 A 
HETATM   14  C   UNK N   1      39.079  13.114   8.932  0.00  0.00     0.002 A 
HETATM   15  C   UNK N   1      38.417  13.281  10.143  0.00  0.00     0.030 A 
ENDBRANCH   7  10
BRANCH   8  16
HETATM   16  C   UNK N   1      36.157  15.676  11.313  0.00  0.00     0.099 C 
HETATM   17  C   UNK N   1      34.929  16.082  10.530  0.00  0.00     0.014 C 
ENDBRANCH   8  16
ENDBRANCH   2   7
BRANCH   2  18
HETATM   18  C   UNK N   1      34.928  11.521  12.542  0.00  0.00     0.287 C 
HETATM   19  O   UNK N   1      34.269  11.793  13.534  0.00  0.00    -0.262 OA
BRANCH  18  20
HETATM   20  O   UNK N   1      34.343  10.876  11.492  0.00  0.00    -0.325 OA
HETATM   21  C   UNK N   1      33.588   9.737  11.632  0.00  0.00     0.213 C 
ENDBRANCH  18  20
ENDBRANCH   2  18
BRANCH   1  22
HETATM   22  C   UNK N   1      35.724  10.344  14.937  0.00  0.00     0.277 C 
BRANCH  22  23
HETATM   23  C   UNK N   1      35.504   9.969  16.377  0.00  0.00     0.068 C 
BRANCH  23  24
HETATM   24  C   UNK N   1      35.338  11.146  17.282  0.00  0.00    -0.057 A 
HETATM   25  C   UNK N   1      35.166  12.458  16.805  0.00  0.00     0.007 A 
HETATM   26  C   UNK N   1      35.085  13.524  17.707  0.00  0.00     0.001 A 
HETATM   27  C   UNK N   1      35.182  13.283  19.080  0.00  0.00     0.000 A 
HETATM   28  C   UNK N   1      35.337  11.977  19.552  0.00  0.00     0.001 A 
HETATM   29  C   UNK N   1      35.412  10.914  18.654  0.00  0.00     0.007 A 
ENDBRANCH  23  24
ENDBRANCH  22  23
ENDBRANCH   1  22
TORSDOF 8
ENDMDL
MODEL 6
REMARK VINA RESULT:      -6.2     11.384     14.964
REMARK  8 active torsions:
REMARK  status: ('A' for Active; 'I' for Inactive)
REMARK    1  A    between atoms: O_1  and  C_12 
REMARK    2  A    between atoms: N_4  and  C_11 
REMARK    3  A    between atoms: N_5  and  C_6 
REMARK    4  A    between atoms: N_5  and  C_13 
REMARK       I    between atoms: N_5  and  C_15 
REMARK    5  A    between atoms: C_6  and  C_12 
REMARK    6  A    between atoms: C_11  and  C_14 
REMARK    7  A    between atoms: C_14  and  C_17 
REMARK    8  A    between atoms: C_15  and  C_16 
ROOT
HETATM    1  N   UNK N   1      26.130  25.560  -4.429  0.00  0.00     0.088 N 
HETATM    2  C   UNK N   1      27.868  23.662  -5.703  0.00  0.00     0.131 C 
HETATM    3  C   UNK N   1      28.028  24.039  -4.183  0.00  0.00     0.072 C 
HETATM    4  C   UNK N   1      26.357  23.363  -5.790  0.00  0.00     0.072 C 
HETATM    5  C   UNK N   1      26.848  24.726  -3.484  0.00  0.00     0.275 C 
HETATM    6  C   UNK N   1      25.551  24.689  -5.489  0.00  0.00     0.275 C 
ENDROOT
BRANCH   2   7
HETATM    7  N   UNK N   1      28.809  22.541  -5.980  0.00  0.00    -0.298 N 
HETATM    8  C   UNK N   1      28.638  21.751  -7.103  0.00  0.00     0.225 C 
HETATM    9  O   UNK N   1      27.649  21.863  -7.805  0.00  0.00    -0.273 OA
BRANCH   7  10
HETATM   10  C   UNK N   1      30.020  22.452  -5.178  0.00  0.00     0.038 A 
HETATM   11  C   UNK N   1      31.166  23.209  -5.482  0.00  0.00     0.030 A 
HETATM   12  C   UNK N   1      32.350  23.035  -4.756  0.00  0.00     0.002 A 
HETATM   13  C   UNK N   1      32.414  22.104  -3.717  0.00  0.00     0.000 A 
HETATM   14  C   UNK N   1      31.289  21.355  -3.387  0.00  0.00     0.002 A 
HETATM   15  C   UNK N   1      30.113  21.530  -4.108  0.00  0.00     0.030 A 
ENDBRANCH   7  10
BRANCH   8  16
HETATM   16  C   UNK N   1      29.717  20.802  -7.565  0.00  0.00     0.099 C 
HETATM   17  C   UNK N   1      29.208  19.381  -7.652  0.00  0.00     0.014 C 
ENDBRANCH   8  16
ENDBRANCH   2   7
BRANCH   2  18
HETATM   18  C   UNK N   1      28.173  24.715  -6.780  0.00  0.00     0.287 C 
HETATM   19  O   UNK N   1      29.213  25.355  -6.738  0.00  0.00    -0.262 OA
BRANCH  18  20
HETATM   20  O   UNK N   1      27.310  24.885  -7.822  0.00  0.00    -0.325 OA
HETATM   21  C   UNK N   1      27.714  25.244  -9.086  0.00  0.00     0.213 C 
ENDBRANCH  18  20
ENDBRANCH   2  18
BRANCH   1  22
HETATM   22  C   UNK N   1      27.114  26.525  -4.947  0.00  0.00     0.277 C 
BRANCH  22  23
HETATM   23  C   UNK N   1      26.501  27.721  -5.623  0.00  0.00     0.068 C 
BRANCH  23  24
HETATM   24  C   UNK N   1      27.474  28.822  -5.886  0.00  0.00    -0.057 A 
HETATM   25  C   UNK N   1      27.585  29.957  -5.060  0.00  0.00     0.007 A 
HETATM   26  C   UNK N   1      28.469  30.985  -5.402  0.00  0.00     0.001 A 
HETATM   27  C   UNK N   1      29.237  30.886  -6.566  0.00  0.00     0.000 A 
HETATM   28  C   UNK N   1      29.136  29.751  -7.376  0.00  0.00     0.001 A 
HETATM   29  C   UNK N   1      28.258  28.724  -7.033  0.00  0.00     0.007 A 
ENDBRANCH  23  24
ENDBRANCH  22  23
ENDBRANCH   1  22
TORSDOF 8
ENDMDL
MODEL 7
REMARK VINA RESULT:      -6.2     11.005     14.583
REMARK  8 active torsions:
REMARK  status: ('A' for Active; 'I' for Inactive)
REMARK    1  A    between atoms: O_1  and  C_12 
REMARK    2  A    between atoms: N_4  and  C_11 
REMARK    3  A    between atoms: N_5  and  C_6 
REMARK    4  A    between atoms: N_5  and  C_13 
REMARK       I    between atoms: N_5  and  C_15 
REMARK    5  A    between atoms: C_6  and  C_12 
REMARK    6  A    between atoms: C_11  and  C_14 
REMARK    7  A    between atoms: C_14  and  C_17 
REMARK    8  A    between atoms: C_15  and  C_16 
ROOT
HETATM    1  N   UNK N   1      28.617  26.090  -7.333  0.00  0.00     0.088 N 
HETATM    2  C   UNK N   1      29.277  23.502  -6.276  0.00  0.00     0.131 C 
HETATM    3  C   UNK N   1      29.148  23.755  -7.825  0.00  0.00     0.072 C 
HETATM    4  C   UNK N   1      30.197  24.664  -5.849  0.00  0.00     0.072 C 
HETATM    5  C   UNK N   1      29.199  25.205  -8.324  0.00  0.00     0.275 C 
HETATM    6  C   UNK N   1      29.449  26.034  -6.099  0.00  0.00     0.275 C 
ENDROOT
BRANCH   2   7
HETATM    7  N   UNK N   1      29.789  22.115  -6.098  0.00  0.00    -0.298 N 
HETATM    8  C   UNK N   1      29.365  21.104  -6.943  0.00  0.00     0.225 C 
HETATM    9  O   UNK N   1      28.473  21.293  -7.750  0.00  0.00    -0.273 OA
BRANCH   7  10
HETATM   10  C   UNK N   1      30.898  21.908  -5.179  0.00  0.00     0.038 A 
HETATM   11  C   UNK N   1      32.234  21.913  -5.620  0.00  0.00     0.030 A 
HETATM   12  C   UNK N   1      33.279  21.616  -4.737  0.00  0.00     0.002 A 
HETATM   13  C   UNK N   1      33.010  21.307  -3.401  0.00  0.00     0.000 A 
HETATM   14  C   UNK N   1      31.699  21.312  -2.938  0.00  0.00     0.002 A 
HETATM   15  C   UNK N   1      30.663  21.609  -3.817  0.00  0.00     0.030 A 
ENDBRANCH   7  10
BRANCH   8  16
HETATM   16  C   UNK N   1      30.064  19.767  -6.978  0.00  0.00     0.099 C 
HETATM   17  C   UNK N   1      29.303  18.763  -7.813  0.00  0.00     0.014 C 
ENDBRANCH   8  16
ENDBRANCH   2   7
BRANCH   2  18
HETATM   18  C   UNK N   1      28.023  23.582  -5.390  0.00  0.00     0.287 C 
HETATM   19  O   UNK N   1      26.941  23.212  -5.820  0.00  0.00    -0.262 OA
BRANCH  18  20
HETATM   20  O   UNK N   1      28.136  24.003  -4.098  0.00  0.00    -0.325 OA
HETATM   21  C   UNK N   1      27.054  24.313  -3.309  0.00  0.00     0.213 C 
ENDBRANCH  18  20
ENDBRANCH   2  18
BRANCH   1  22
HETATM   22  C   UNK N   1      27.239  25.616  -7.124  0.00  0.00     0.277 C 
BRANCH  22  23
HETATM   23  C   UNK N   1      26.204  26.707  -7.160  0.00  0.00     0.068 C 
BRANCH  23  24
HETATM   24  C   UNK N   1      26.257  27.619  -5.980  0.00  0.00    -0.057 A 
HETATM   25  C   UNK N   1      27.063  28.772  -5.940  0.00  0.00     0.007 A 
HETATM   26  C   UNK N   1      27.118  29.546  -4.776  0.00  0.00     0.001 A 
HETATM   27  C   UNK N   1      26.376  29.169  -3.653  0.00  0.00     0.000 A 
HETATM   28  C   UNK N   1      25.563  28.033  -3.701  0.00  0.00     0.001 A 
HETATM   29  C   UNK N   1      25.504  27.264  -4.862  0.00  0.00     0.007 A 
ENDBRANCH  23  24
ENDBRANCH  22  23
ENDBRANCH   1  22
TORSDOF 8
ENDMDL
MODEL 8
REMARK VINA RESULT:      -6.2     10.951     14.563
REMARK  8 active torsions:
REMARK  status: ('A' for Active; 'I' for Inactive)
REMARK    1  A    between atoms: O_1  and  C_12 
REMARK    2  A    between atoms: N_4  and  C_11 
REMARK    3  A    between atoms: N_5  and  C_6 
REMARK    4  A    between atoms: N_5  and  C_13 
REMARK       I    between atoms: N_5  and  C_15 
REMARK    5  A    between atoms: C_6  and  C_12 
REMARK    6  A    between atoms: C_11  and  C_14 
REMARK    7  A    between atoms: C_14  and  C_17 
REMARK    8  A    between atoms: C_15  and  C_16 
ROOT
HETATM    1  N   UNK N   1      31.184  27.055  -5.796  0.00  0.00     0.088 N 
HETATM    2  C   UNK N   1      30.984  24.274  -5.108  0.00  0.00     0.131 C 
HETATM    3  C   UNK N   1      30.670  24.791  -6.562  0.00  0.00     0.072 C 
HETATM    4  C   UNK N   1      32.344  24.946  -4.828  0.00  0.00     0.072 C 
HETATM    5  C   UNK N   1      31.180  26.184  -6.956  0.00  0.00     0.275 C 
HETATM    6  C   UNK N   1      32.148  26.514  -4.798  0.00  0.00     0.275 C 
ENDROOT
BRANCH   2   7
HETATM    7  N   UNK N   1      30.946  22.786  -5.154  0.00  0.00    -0.298 N 
HETATM    8  C   UNK N   1      29.958  22.137  -5.874  0.00  0.00     0.225 C 
HETATM    9  O   UNK N   1      29.031  22.756  -6.365  0.00  0.00    -0.273 OA
BRANCH   7  10
HETATM   10  C   UNK N   1      32.088  22.056  -4.623  0.00  0.00     0.038 A 
HETATM   11  C   UNK N   1      32.137  21.635  -3.282  0.00  0.00     0.030 A 
HETATM   12  C   UNK N   1      33.285  21.020  -2.767  0.00  0.00     0.002 A 
HETATM   13  C   UNK N   1      34.403  20.817  -3.579  0.00  0.00     0.000 A 
HETATM   14  C   UNK N   1      34.373  21.211  -4.913  0.00  0.00     0.002 A 
HETATM   15  C   UNK N   1      33.231  21.821  -5.422  0.00  0.00     0.030 A 
ENDBRANCH   7  10
BRANCH   8  16
HETATM   16  C   UNK N   1      30.049  20.662  -6.176  0.00  0.00     0.099 C 
HETATM   17  C   UNK N   1      29.326  20.311  -7.457  0.00  0.00     0.014 C 
ENDBRANCH   8  16
ENDBRANCH   2   7
BRANCH   2  18
HETATM   18  C   UNK N   1      30.051  24.662  -3.950  0.00  0.00     0.287 C 
HETATM   19  O   UNK N   1      30.487  24.762  -2.814  0.00  0.00    -0.262 OA
BRANCH  18  20
HETATM   20  O   UNK N   1      28.745  24.961  -4.208  0.00  0.00    -0.325 OA
HETATM   21  C   UNK N   1      27.695  24.417  -3.508  0.00  0.00     0.213 C 
ENDBRANCH  18  20
ENDBRANCH   2  18
BRANCH   1  22
HETATM   22  C   UNK N   1      29.796  27.083  -5.304  0.00  0.00     0.277 C 
BRANCH  22  23
HETATM   23  C   UNK N   1      28.913  28.069  -6.020  0.00  0.00     0.068 C 
BRANCH  23  24
HETATM   24  C   UNK N   1      27.455  27.784  -5.869  0.00  0.00    -0.057 A 
HETATM   25  C   UNK N   1      26.696  28.240  -4.775  0.00  0.00     0.007 A 
HETATM   26  C   UNK N   1      25.350  27.879  -4.660  0.00  0.00     0.001 A 
HETATM   27  C   UNK N   1      24.763  27.061  -5.629  0.00  0.00     0.000 A 
HETATM   28  C   UNK N   1      25.515  26.621  -6.723  0.00  0.00     0.001 A 
HETATM   29  C   UNK N   1      26.855  26.985  -6.840  0.00  0.00     0.007 A 
ENDBRANCH  23  24
ENDBRANCH  22  23
ENDBRANCH   1  22
TORSDOF 8
ENDMDL
MODEL 9
REMARK VINA RESULT:      -6.2      3.642      5.745
REMARK  8 active torsions:
REMARK  status: ('A' for Active; 'I' for Inactive)
REMARK    1  A    between atoms: O_1  and  C_12 
REMARK    2  A    between atoms: N_4  and  C_11 
REMARK    3  A    between atoms: N_5  and  C_6 
REMARK    4  A    between atoms: N_5  and  C_13 
REMARK       I    between atoms: N_5  and  C_15 
REMARK    5  A    between atoms: C_6  and  C_12 
REMARK    6  A    between atoms: C_11  and  C_14 
REMARK    7  A    between atoms: C_14  and  C_17 
REMARK    8  A    between atoms: C_15  and  C_16 
ROOT
HETATM    1  N   UNK N   1      34.635  17.098   7.772  0.00  0.00     0.088 N 
HETATM    2  C   UNK N   1      31.840  16.555   7.399  0.00  0.00     0.131 C 
HETATM    3  C   UNK N   1      32.338  17.827   8.181  0.00  0.00     0.072 C 
HETATM    4  C   UNK N   1      32.694  16.627   6.116  0.00  0.00     0.072 C 
HETATM    5  C   UNK N   1      33.797  18.262   7.994  0.00  0.00     0.275 C 
HETATM    6  C   UNK N   1      34.217  16.446   6.500  0.00  0.00     0.275 C 
ENDROOT
BRANCH   2   7
HETATM    7  N   UNK N   1      30.363  16.680   7.251  0.00  0.00    -0.298 N 
HETATM    8  C   UNK N   1      29.610  17.252   8.262  0.00  0.00     0.225 C 
HETATM    9  O   UNK N   1      30.111  17.535   9.335  0.00  0.00    -0.273 OA
BRANCH   7  10
HETATM   10  C   UNK N   1      29.780  16.401   5.948  0.00  0.00     0.038 A 
HETATM   11  C   UNK N   1      29.305  15.121   5.609  0.00  0.00     0.030 A 
HETATM   12  C   UNK N   1      28.838  14.851   4.317  0.00  0.00     0.002 A 
HETATM   13  C   UNK N   1      28.836  15.851   3.342  0.00  0.00     0.000 A 
HETATM   14  C   UNK N   1      29.285  17.129   3.658  0.00  0.00     0.002 A 
HETATM   15  C   UNK N   1      29.749  17.394   4.941  0.00  0.00     0.030 A 
ENDBRANCH   7  10
BRANCH   8  16
HETATM   16  C   UNK N   1      28.172  17.650   8.038  0.00  0.00     0.099 C 
HETATM   17  C   UNK N   1      28.047  19.121   7.711  0.00  0.00     0.014 C 
ENDBRANCH   8  16
ENDBRANCH   2   7
BRANCH   2  18
HETATM   18  C   UNK N   1      32.065  15.160   8.003  0.00  0.00     0.287 C 
HETATM   19  O   UNK N   1      32.060  15.006   9.215  0.00  0.00    -0.262 OA
BRANCH  18  20
HETATM   20  O   UNK N   1      32.202  14.082   7.179  0.00  0.00    -0.325 OA
HETATM   21  C   UNK N   1      33.109  13.074   7.402  0.00  0.00     0.213 C 
ENDBRANCH  18  20
ENDBRANCH   2  18
BRANCH   1  22
HETATM   22  C   UNK N   1      34.452  16.236   8.951  0.00  0.00     0.277 C 
BRANCH  22  23
HETATM   23  C   UNK N   1      35.524  15.193   9.119  0.00  0.00     0.068 C 
BRANCH  23  24
HETATM   24  C   UNK N   1      35.545  14.571  10.476  0.00  0.00    -0.057 A 
HETATM   25  C   UNK N   1      35.074  13.269  10.727  0.00  0.00     0.007 A 
HETATM   26  C   UNK N   1      35.058  12.771  12.034  0.00  0.00     0.001 A 
HETATM   27  C   UNK N   1      35.505  13.572  13.089  0.00  0.00     0.000 A 
HETATM   28  C   UNK N   1      35.986  14.859  12.836  0.00  0.00     0.001 A 
HETATM   29  C   UNK N   1      36.007  15.353  11.532  0.00  0.00     0.007 A 
ENDBRANCH  23  24
ENDBRANCH  22  23
ENDBRANCH   1  22
TORSDOF 8
ENDMDL
