MODEL 1
REMARK VINA RESULT:      -7.7      0.000      0.000
REMARK  0 active torsions:
REMARK  status: ('A' for Active; 'I' for Inactive)
ROOT
HETATM    1  O   UNK N   1      36.040  12.220  11.517  0.00  0.00    -0.297 OA
HETATM    2  O   UNK N   1      34.927   9.269  21.780  0.00  0.00    -0.293 OA
HETATM    3  C   UNK N   1      35.787  12.365  16.339  0.00  0.00    -0.004 C 
HETATM    4  C   UNK N   1      34.908  11.094  16.520  0.00  0.00     0.002 C 
HETATM    5  C   UNK N   1      35.617  12.883  14.905  0.00  0.00     0.006 C 
HETATM    6  C   UNK N   1      36.015  11.828  13.870  0.00  0.00     0.021 C 
HETATM    7  C   UNK N   1      35.192  10.459  17.906  0.00  0.00    -0.016 C 
HETATM    8  C   UNK N   1      35.116  10.060  15.380  0.00  0.00     0.007 C 
HETATM    9  C   UNK N   1      35.005  10.687  13.976  0.00  0.00     0.018 C 
HETATM   10  C   UNK N   1      35.303  13.421  17.331  0.00  0.00     0.010 C 
HETATM   11  C   UNK N   1      36.362  14.138  14.469  0.00  0.00     0.013 C 
HETATM   12  C   UNK N   1      35.103  11.490  19.030  0.00  0.00    -0.068 C 
HETATM   13  C   UNK N   1      35.994  12.673  12.650  0.00  0.00     0.135 C 
HETATM   14  C   UNK N   1      35.312  12.966  18.792  0.00  0.00     0.035 C 
HETATM   15  C   UNK N   1      36.159  14.130  12.945  0.00  0.00     0.079 C 
HETATM   16  C   UNK N   1      34.191   9.327  18.192  0.00  0.00     0.022 C 
HETATM   17  C   UNK N   1      37.441  11.291  14.029  0.00  0.00     0.024 C 
HETATM   18  C   UNK N   1      36.609   9.870  17.925  0.00  0.00     0.020 C 
HETATM   19  C   UNK N   1      34.454   8.652  19.550  0.00  0.00     0.084 C 
HETATM   20  C   UNK N   1      35.002  11.076  20.304  0.00  0.00     0.053 C 
HETATM   21  C   UNK N   1      34.806   9.647  20.626  0.00  0.00     0.149 C 
ENDROOT
TORSDOF 0
ENDMDL
MODEL 2
REMARK VINA RESULT:      -7.4     22.649     25.992
REMARK  0 active torsions:
REMARK  status: ('A' for Active; 'I' for Inactive)
ROOT
HETATM    1  O   UNK N   1      32.760  21.288  -2.345  0.00  0.00    -0.297 OA
HETATM    2  O   UNK N   1      24.684  27.225  -6.193  0.00  0.00    -0.293 OA
HETATM    3  C   UNK N   1      29.290  23.007  -5.233  0.00  0.00    -0.004 C 
HETATM    4  C   UNK N   1      28.423  23.660  -4.118  0.00  0.00     0.002 C 
HETATM    5  C   UNK N   1      30.191  21.941  -4.597  0.00  0.00     0.006 C 
HETATM    6  C   UNK N   1      31.099  22.536  -3.519  0.00  0.00     0.021 C 
HETATM    7  C   UNK N   1      27.626  24.852  -4.710  0.00  0.00    -0.016 C 
HETATM    8  C   UNK N   1      29.266  24.105  -2.893  0.00  0.00     0.007 C 
HETATM    9  C   UNK N   1      30.199  22.994  -2.372  0.00  0.00     0.018 C 
HETATM   10  C   UNK N   1      28.349  22.352  -6.244  0.00  0.00     0.010 C 
HETATM   11  C   UNK N   1      31.135  21.134  -5.481  0.00  0.00     0.013 C 
HETATM   12  C   UNK N   1      26.879  24.457  -5.983  0.00  0.00    -0.068 C 
HETATM   13  C   UNK N   1      31.989  21.370  -3.289  0.00  0.00     0.135 C 
HETATM   14  C   UNK N   1      27.318  23.305  -6.854  0.00  0.00     0.035 C 
HETATM   15  C   UNK N   1      32.030  20.427  -4.449  0.00  0.00     0.079 C 
HETATM   16  C   UNK N   1      26.610  25.380  -3.683  0.00  0.00     0.022 C 
HETATM   17  C   UNK N   1      31.979  23.695  -3.999  0.00  0.00     0.024 C 
HETATM   18  C   UNK N   1      28.590  25.990  -5.069  0.00  0.00     0.020 C 
HETATM   19  C   UNK N   1      25.815  26.582  -4.222  0.00  0.00     0.084 C 
HETATM   20  C   UNK N   1      25.900  25.249  -6.449  0.00  0.00     0.053 C 
HETATM   21  C   UNK N   1      25.417  26.405  -5.666  0.00  0.00     0.149 C 
ENDROOT
TORSDOF 0
ENDMDL
MODEL 3
REMARK VINA RESULT:      -7.3     22.401     25.313
REMARK  0 active torsions:
REMARK  status: ('A' for Active; 'I' for Inactive)
ROOT
HETATM    1  O   UNK N   1      25.328  24.800  -7.129  0.00  0.00    -0.297 OA
HETATM    2  O   UNK N   1      34.410  20.325  -3.556  0.00  0.00    -0.293 OA
HETATM    3  C   UNK N   1      29.041  23.575  -4.293  0.00  0.00    -0.004 C 
HETATM    4  C   UNK N   1      29.380  22.230  -4.997  0.00  0.00     0.002 C 
HETATM    5  C   UNK N   1      27.594  23.958  -4.629  0.00  0.00     0.006 C 
HETATM    6  C   UNK N   1      27.380  24.096  -6.138  0.00  0.00     0.021 C 
HETATM    7  C   UNK N   1      30.886  21.909  -4.807  0.00  0.00    -0.016 C 
HETATM    8  C   UNK N   1      28.995  22.232  -6.500  0.00  0.00     0.007 C 
HETATM    9  C   UNK N   1      27.549  22.705  -6.748  0.00  0.00     0.018 C 
HETATM   10  C   UNK N   1      29.185  23.371  -2.785  0.00  0.00     0.010 C 
HETATM   11  C   UNK N   1      27.002  25.235  -4.047  0.00  0.00     0.013 C 
HETATM   12  C   UNK N   1      31.307  22.014  -3.342  0.00  0.00    -0.068 C 
HETATM   13  C   UNK N   1      26.024  24.699  -6.131  0.00  0.00     0.135 C 
HETATM   14  C   UNK N   1      30.561  22.868  -2.345  0.00  0.00     0.035 C 
HETATM   15  C   UNK N   1      25.697  25.388  -4.845  0.00  0.00     0.079 C 
HETATM   16  C   UNK N   1      31.200  20.491  -5.312  0.00  0.00     0.022 C 
HETATM   17  C   UNK N   1      28.320  25.094  -6.823  0.00  0.00     0.024 C 
HETATM   18  C   UNK N   1      31.732  22.908  -5.608  0.00  0.00     0.020 C 
HETATM   19  C   UNK N   1      32.691  20.141  -5.166  0.00  0.00     0.084 C 
HETATM   20  C   UNK N   1      32.470  21.471  -2.946  0.00  0.00     0.053 C 
HETATM   21  C   UNK N   1      33.269  20.630  -3.862  0.00  0.00     0.149 C 
ENDROOT
TORSDOF 0
ENDMDL
MODEL 4
REMARK VINA RESULT:      -6.9      1.756      6.754
REMARK  0 active torsions:
REMARK  status: ('A' for Active; 'I' for Inactive)
ROOT
HETATM    1  O   UNK N   1      35.914   9.863  18.689  0.00  0.00    -0.297 OA
HETATM    2  O   UNK N   1      36.928  13.428   8.612  0.00  0.00    -0.293 OA
HETATM    3  C   UNK N   1      35.900  12.741  14.809  0.00  0.00    -0.004 C 
HETATM    4  C   UNK N   1      36.944  11.942  13.978  0.00  0.00     0.002 C 
HETATM    5  C   UNK N   1      36.065  12.377  16.291  0.00  0.00     0.006 C 
HETATM    6  C   UNK N   1      35.877  10.877  16.530  0.00  0.00     0.021 C 
HETATM    7  C   UNK N   1      36.688  12.167  12.465  0.00  0.00    -0.016 C 
HETATM    8  C   UNK N   1      36.948  10.428  14.324  0.00  0.00     0.007 C 
HETATM    9  C   UNK N   1      37.037  10.161  15.840  0.00  0.00     0.018 C 
HETATM   10  C   UNK N   1      36.174  14.231  14.609  0.00  0.00     0.010 C 
HETATM   11  C   UNK N   1      35.167  13.039  17.328  0.00  0.00     0.013 C 
HETATM   12  C   UNK N   1      36.568  13.652  12.126  0.00  0.00    -0.068 C 
HETATM   13  C   UNK N   1      35.836  10.878  18.014  0.00  0.00     0.135 C 
HETATM   14  C   UNK N   1      36.158  14.685  13.148  0.00  0.00     0.035 C 
HETATM   15  C   UNK N   1      35.446  12.202  18.588  0.00  0.00     0.079 C 
HETATM   16  C   UNK N   1      37.827  11.558  11.631  0.00  0.00     0.022 C 
HETATM   17  C   UNK N   1      34.538  10.318  16.036  0.00  0.00     0.024 C 
HETATM   18  C   UNK N   1      35.372  11.489  12.058  0.00  0.00     0.020 C 
HETATM   19  C   UNK N   1      37.598  11.738  10.120  0.00  0.00     0.084 C 
HETATM   20  C   UNK N   1      36.664  14.049  10.847  0.00  0.00     0.053 C 
HETATM   21  C   UNK N   1      37.050  13.101   9.781  0.00  0.00     0.149 C 
ENDROOT
TORSDOF 0
ENDMDL
MODEL 5
REMARK VINA RESULT:      -6.7      9.455     12.551
REMARK  0 active torsions:
REMARK  status: ('A' for Active; 'I' for Inactive)
ROOT
HETATM    1  O   UNK N   1      28.588  15.454   2.257  0.00  0.00    -0.297 OA
HETATM    2  O   UNK N   1      35.395  17.500  10.304  0.00  0.00    -0.293 OA
HETATM    3  C   UNK N   1      31.513  14.885   6.059  0.00  0.00    -0.004 C 
HETATM    4  C   UNK N   1      32.382  16.153   5.820  0.00  0.00     0.002 C 
HETATM    5  C   UNK N   1      30.827  14.501   4.741  0.00  0.00     0.006 C 
HETATM    6  C   UNK N   1      29.949  15.634   4.208  0.00  0.00     0.021 C 
HETATM    7  C   UNK N   1      32.951  16.656   7.172  0.00  0.00    -0.016 C 
HETATM    8  C   UNK N   1      31.600  17.279   5.091  0.00  0.00     0.007 C 
HETATM    9  C   UNK N   1      30.879  16.784   3.822  0.00  0.00     0.018 C 
HETATM   10  C   UNK N   1      32.438  13.754   6.508  0.00  0.00     0.010 C 
HETATM   11  C   UNK N   1      29.925  13.274   4.696  0.00  0.00     0.013 C 
HETATM   12  C   UNK N   1      33.625  15.530   7.956  0.00  0.00    -0.068 C 
HETATM   13  C   UNK N   1      29.250  14.903   3.122  0.00  0.00     0.135 C 
HETATM   14  C   UNK N   1      33.270  14.077   7.752  0.00  0.00     0.035 C 
HETATM   15  C   UNK N   1      29.233  13.422   3.332  0.00  0.00     0.079 C 
HETATM   16  C   UNK N   1      33.975  17.779   6.939  0.00  0.00     0.022 C 
HETATM   17  C   UNK N   1      28.879  16.124   5.190  0.00  0.00     0.024 C 
HETATM   18  C   UNK N   1      31.812  17.209   8.039  0.00  0.00     0.020 C 
HETATM   19  C   UNK N   1      34.547  18.324   8.260  0.00  0.00     0.084 C 
HETATM   20  C   UNK N   1      34.441  15.831   8.979  0.00  0.00     0.053 C 
HETATM   21  C   UNK N   1      34.831  17.229   9.256  0.00  0.00     0.149 C 
ENDROOT
TORSDOF 0
ENDMDL
MODEL 6
REMARK VINA RESULT:      -6.6      6.596     10.266
REMARK  0 active torsions:
REMARK  status: ('A' for Active; 'I' for Inactive)
ROOT
HETATM    1  O   UNK N   1      31.803  17.953   4.119  0.00  0.00    -0.297 OA
HETATM    2  O   UNK N   1      36.782  13.643  12.598  0.00  0.00    -0.293 OA
HETATM    3  C   UNK N   1      34.608  15.128   6.853  0.00  0.00    -0.004 C 
HETATM    4  C   UNK N   1      34.794  16.129   8.030  0.00  0.00     0.002 C 
HETATM    5  C   UNK N   1      34.196  15.910   5.600  0.00  0.00     0.006 C 
HETATM    6  C   UNK N   1      32.900  16.693   5.821  0.00  0.00     0.021 C 
HETATM    7  C   UNK N   1      35.049  15.345   9.344  0.00  0.00    -0.016 C 
HETATM    8  C   UNK N   1      33.591  17.097   8.182  0.00  0.00     0.007 C 
HETATM    9  C   UNK N   1      33.198  17.778   6.855  0.00  0.00     0.018 C 
HETATM   10  C   UNK N   1      35.946  14.429   6.610  0.00  0.00     0.010 C 
HETATM   11  C   UNK N   1      33.965  15.162   4.293  0.00  0.00     0.013 C 
HETATM   12  C   UNK N   1      36.156  14.306   9.178  0.00  0.00    -0.068 C 
HETATM   13  C   UNK N   1      32.634  17.111   4.422  0.00  0.00     0.135 C 
HETATM   14  C   UNK N   1      36.517  13.715   7.837  0.00  0.00     0.035 C 
HETATM   15  C   UNK N   1      33.301  16.233   3.412  0.00  0.00     0.079 C 
HETATM   16  C   UNK N   1      35.439  16.310  10.476  0.00  0.00     0.022 C 
HETATM   17  C   UNK N   1      31.712  15.838   6.276  0.00  0.00     0.024 C 
HETATM   18  C   UNK N   1      33.771  14.602   9.758  0.00  0.00     0.020 C 
HETATM   19  C   UNK N   1      35.676  15.574  11.807  0.00  0.00     0.084 C 
HETATM   20  C   UNK N   1      36.726  13.765  10.267  0.00  0.00     0.053 C 
HETATM   21  C   UNK N   1      36.422  14.277  11.620  0.00  0.00     0.149 C 
ENDROOT
TORSDOF 0
ENDMDL
MODEL 7
REMARK VINA RESULT:      -6.5     23.436     26.510
REMARK  0 active torsions:
REMARK  status: ('A' for Active; 'I' for Inactive)
ROOT
HETATM    1  O   UNK N   1      32.563  20.204  -6.643  0.00  0.00    -0.297 OA
HETATM    2  O   UNK N   1      24.427  27.126  -5.562  0.00  0.00    -0.293 OA
HETATM    3  C   UNK N   1      28.989  22.832  -4.733  0.00  0.00    -0.004 C 
HETATM    4  C   UNK N   1      29.014  23.978  -5.785  0.00  0.00     0.002 C 
HETATM    5  C   UNK N   1      30.339  22.104  -4.763  0.00  0.00     0.006 C 
HETATM    6  C   UNK N   1      30.641  21.527  -6.147  0.00  0.00     0.021 C 
HETATM    7  C   UNK N   1      27.606  24.620  -5.889  0.00  0.00    -0.016 C 
HETATM    8  C   UNK N   1      29.513  23.498  -7.175  0.00  0.00     0.007 C 
HETATM    9  C   UNK N   1      30.835  22.709  -7.097  0.00  0.00     0.018 C 
HETATM   10  C   UNK N   1      28.769  23.458  -3.356  0.00  0.00     0.010 C 
HETATM   11  C   UNK N   1      30.584  20.942  -3.809  0.00  0.00     0.013 C 
HETATM   12  C   UNK N   1      27.052  24.995  -4.516  0.00  0.00    -0.068 C 
HETATM   13  C   UNK N   1      31.826  20.700  -5.806  0.00  0.00     0.135 C 
HETATM   14  C   UNK N   1      27.506  24.315  -3.247  0.00  0.00     0.035 C 
HETATM   15  C   UNK N   1      31.885  20.333  -4.357  0.00  0.00     0.079 C 
HETATM   16  C   UNK N   1      27.656  25.883  -6.765  0.00  0.00     0.022 C 
HETATM   17  C   UNK N   1      29.565  20.581  -6.689  0.00  0.00     0.024 C 
HETATM   18  C   UNK N   1      26.630  23.624  -6.529  0.00  0.00     0.020 C 
HETATM   19  C   UNK N   1      26.272  26.538  -6.915  0.00  0.00     0.084 C 
HETATM   20  C   UNK N   1      26.009  25.836  -4.429  0.00  0.00     0.053 C 
HETATM   21  C   UNK N   1      25.494  26.537  -5.624  0.00  0.00     0.149 C 
ENDROOT
TORSDOF 0
ENDMDL
MODEL 8
REMARK VINA RESULT:      -6.5     22.569     25.071
REMARK  0 active torsions:
REMARK  status: ('A' for Active; 'I' for Inactive)
ROOT
HETATM    1  O   UNK N   1      35.059  19.922  -4.062  0.00  0.00    -0.297 OA
HETATM    2  O   UNK N   1      25.935  25.530  -4.826  0.00  0.00    -0.293 OA
HETATM    3  C   UNK N   1      30.891  21.714  -5.722  0.00  0.00    -0.004 C 
HETATM    4  C   UNK N   1      30.281  22.085  -4.340  0.00  0.00     0.002 C 
HETATM    5  C   UNK N   1      31.985  20.658  -5.512  0.00  0.00     0.006 C 
HETATM    6  C   UNK N   1      33.088  21.163  -4.581  0.00  0.00     0.021 C 
HETATM    7  C   UNK N   1      29.292  23.267  -4.508  0.00  0.00    -0.016 C 
HETATM    8  C   UNK N   1      31.367  22.412  -3.280  0.00  0.00     0.007 C 
HETATM    9  C   UNK N   1      32.466  21.335  -3.195  0.00  0.00     0.018 C 
HETATM   10  C   UNK N   1      29.775  21.136  -6.593  0.00  0.00     0.010 C 
HETATM   11  C   UNK N   1      32.734  20.107  -6.719  0.00  0.00     0.013 C 
HETATM   12  C   UNK N   1      28.285  23.008  -5.627  0.00  0.00    -0.068 C 
HETATM   13  C   UNK N   1      34.079  20.075  -4.775  0.00  0.00     0.135 C 
HETATM   14  C   UNK N   1      28.570  22.062  -6.769  0.00  0.00     0.035 C 
HETATM   15  C   UNK N   1      33.895  19.340  -6.064  0.00  0.00     0.079 C 
HETATM   16  C   UNK N   1      28.525  23.515  -3.198  0.00  0.00     0.022 C 
HETATM   17  C   UNK N   1      33.751  22.469  -5.030  0.00  0.00     0.024 C 
HETATM   18  C   UNK N   1      30.067  24.543  -4.865  0.00  0.00     0.020 C 
HETATM   19  C   UNK N   1      27.549  24.699  -3.315  0.00  0.00     0.084 C 
HETATM   20  C   UNK N   1      27.174  23.758  -5.706  0.00  0.00     0.053 C 
HETATM   21  C   UNK N   1      26.824  24.717  -4.637  0.00  0.00     0.149 C 
ENDROOT
TORSDOF 0
ENDMDL
MODEL 9
REMARK VINA RESULT:      -6.5      8.937     12.153
REMARK  0 active torsions:
REMARK  status: ('A' for Active; 'I' for Inactive)
ROOT
HETATM    1  O   UNK N   1      29.023  15.589   2.266  0.00  0.00    -0.297 OA
HETATM    2  O   UNK N   1      36.220  15.997  10.223  0.00  0.00    -0.293 OA
HETATM    3  C   UNK N   1      31.411  16.954   6.237  0.00  0.00    -0.004 C 
HETATM    4  C   UNK N   1      32.052  15.573   6.555  0.00  0.00     0.002 C 
HETATM    5  C   UNK N   1      30.189  16.735   5.335  0.00  0.00     0.006 C 
HETATM    6  C   UNK N   1      30.565  16.029   4.032  0.00  0.00     0.021 C 
HETATM    7  C   UNK N   1      33.382  15.782   7.326  0.00  0.00    -0.016 C 
HETATM    8  C   UNK N   1      32.275  14.713   5.282  0.00  0.00     0.007 C 
HETATM    9  C   UNK N   1      31.016  14.615   4.398  0.00  0.00     0.018 C 
HETATM   10  C   UNK N   1      30.973  17.589   7.556  0.00  0.00     0.010 C 
HETATM   11  C   UNK N   1      29.364  17.936   4.887  0.00  0.00     0.013 C 
HETATM   12  C   UNK N   1      33.203  16.719   8.519  0.00  0.00    -0.068 C 
HETATM   13  C   UNK N   1      29.286  16.189   3.297  0.00  0.00     0.135 C 
HETATM   14  C   UNK N   1      32.095  17.743   8.585  0.00  0.00     0.035 C 
HETATM   15  C   UNK N   1      28.460  17.329   3.802  0.00  0.00     0.079 C 
HETATM   16  C   UNK N   1      33.926  14.436   7.831  0.00  0.00     0.022 C 
HETATM   17  C   UNK N   1      31.652  16.737   3.216  0.00  0.00     0.024 C 
HETATM   18  C   UNK N   1      34.427  16.410   6.393  0.00  0.00     0.020 C 
HETATM   19  C   UNK N   1      35.261  14.596   8.581  0.00  0.00     0.084 C 
HETATM   20  C   UNK N   1      34.147  16.765   9.473  0.00  0.00     0.053 C 
HETATM   21  C   UNK N   1      35.272  15.807   9.479  0.00  0.00     0.149 C 
ENDROOT
TORSDOF 0
ENDMDL
