MODEL 1
REMARK VINA RESULT:      -4.7      0.000      0.000
REMARK  5 active torsions:
REMARK  status: ('A' for Active; 'I' for Inactive)
REMARK    1  A    between atoms: O_2  and  C_7 
REMARK    2  A    between atoms: O_3  and  C_10 
REMARK    3  A    between atoms: N_4  and  C_8 
REMARK    4  A    between atoms: C_5  and  C_6 
REMARK    5  A    between atoms: C_6  and  C_8 
ROOT
HETATM    1 Br   UNK N   1      22.752  13.017   7.052  0.00  0.00    -0.048 Br
HETATM    2  C   UNK N   1      20.061  16.604   8.555  0.00  0.00    -0.021 A 
HETATM    3  C   UNK N   1      21.016  16.800   7.510  0.00  0.00     0.076 A 
HETATM    4  C   UNK N   1      19.939  15.325   9.124  0.00  0.00     0.048 A 
HETATM    5  C   UNK N   1      20.724  14.250   8.696  0.00  0.00     0.086 A 
HETATM    6  C   UNK N   1      21.793  15.713   7.093  0.00  0.00     0.059 A 
HETATM    7  C   UNK N   1      21.656  14.452   7.674  0.00  0.00     0.047 A 
ENDROOT
BRANCH   2   8
HETATM    8  C   UNK N   1      19.176  17.714   9.075  0.00  0.00     0.060 C 
BRANCH   8   9
HETATM    9  C   UNK N   1      17.716  17.296   9.255  0.00  0.00     0.115 C 
BRANCH   9  10
HETATM   10  N   UNK N   1      17.009  18.266  10.068  0.00  0.00    -0.430 N 
HETATM   11  H   UNK N   1      16.927  18.127  11.075  0.00  0.00     0.149 HD
HETATM   12  H   UNK N   1      16.592  19.089   9.632  0.00  0.00     0.149 HD
ENDBRANCH   9  10
ENDBRANCH   8   9
ENDBRANCH   2   8
BRANCH   3  13
HETATM   13  O   UNK N   1      21.233  17.986   6.875  0.00  0.00    -0.355 OA
HETATM   14  C   UNK N   1      21.459  18.166   5.533  0.00  0.00     0.210 C 
ENDBRANCH   3  13
BRANCH   5  15
HETATM   15  O   UNK N   1      20.594  13.021   9.254  0.00  0.00    -0.355 OA
HETATM   16  C   UNK N   1      21.024  12.722  10.528  0.00  0.00     0.210 C 
ENDBRANCH   5  15
TORSDOF 5
ENDMDL
MODEL 2
REMARK VINA RESULT:      -4.6     11.459     12.613
REMARK  5 active torsions:
REMARK  status: ('A' for Active; 'I' for Inactive)
REMARK    1  A    between atoms: O_2  and  C_7 
REMARK    2  A    between atoms: O_3  and  C_10 
REMARK    3  A    between atoms: N_4  and  C_8 
REMARK    4  A    between atoms: C_5  and  C_6 
REMARK    5  A    between atoms: C_6  and  C_8 
ROOT
HETATM    1 Br   UNK N   1      29.011  16.915   5.493  0.00  0.00    -0.048 Br
HETATM    2  C   UNK N   1      33.068  17.579   7.830  0.00  0.00    -0.021 A 
HETATM    3  C   UNK N   1      33.076  17.105   6.482  0.00  0.00     0.076 A 
HETATM    4  C   UNK N   1      31.833  17.845   8.444  0.00  0.00     0.048 A 
HETATM    5  C   UNK N   1      30.621  17.656   7.773  0.00  0.00     0.086 A 
HETATM    6  C   UNK N   1      31.854  16.922   5.825  0.00  0.00     0.059 A 
HETATM    7  C   UNK N   1      30.638  17.191   6.455  0.00  0.00     0.047 A 
ENDROOT
BRANCH   2   8
HETATM    8  C   UNK N   1      34.334  17.809   8.626  0.00  0.00     0.060 C 
BRANCH   8   9
HETATM    9  C   UNK N   1      34.715  16.627   9.518  0.00  0.00     0.115 C 
BRANCH   9  10
HETATM   10  N   UNK N   1      35.200  17.098  10.801  0.00  0.00    -0.430 N 
HETATM   11  H   UNK N   1      35.249  18.099  10.993  0.00  0.00     0.149 HD
HETATM   12  H   UNK N   1      35.491  16.428  11.513  0.00  0.00     0.149 HD
ENDBRANCH   9  10
ENDBRANCH   8   9
ENDBRANCH   2   8
BRANCH   3  13
HETATM   13  O   UNK N   1      34.201  16.811   5.773  0.00  0.00    -0.355 OA
HETATM   14  C   UNK N   1      34.816  15.587   5.683  0.00  0.00     0.210 C 
ENDBRANCH   3  13
BRANCH   5  15
HETATM   15  O   UNK N   1      29.436  17.918   8.377  0.00  0.00    -0.355 OA
HETATM   16  C   UNK N   1      29.138  17.511   9.659  0.00  0.00     0.210 C 
ENDBRANCH   5  15
TORSDOF 5
ENDMDL
MODEL 3
REMARK VINA RESULT:      -4.6     16.284     18.718
REMARK  5 active torsions:
REMARK  status: ('A' for Active; 'I' for Inactive)
REMARK    1  A    between atoms: O_2  and  C_7 
REMARK    2  A    between atoms: O_3  and  C_10 
REMARK    3  A    between atoms: N_4  and  C_8 
REMARK    4  A    between atoms: C_5  and  C_6 
REMARK    5  A    between atoms: C_6  and  C_8 
ROOT
HETATM    1 Br   UNK N   1      27.068  22.433  -8.499  0.00  0.00    -0.048 Br
HETATM    2  C   UNK N   1      25.488  26.102  -5.968  0.00  0.00    -0.021 A 
HETATM    3  C   UNK N   1      25.903  24.898  -5.321  0.00  0.00     0.076 A 
HETATM    4  C   UNK N   1      25.561  26.173  -7.370  0.00  0.00     0.048 A 
HETATM    5  C   UNK N   1      26.025  25.101  -8.138  0.00  0.00     0.086 A 
HETATM    6  C   UNK N   1      26.364  23.835  -6.105  0.00  0.00     0.059 A 
HETATM    7  C   UNK N   1      26.427  23.927  -7.496  0.00  0.00     0.047 A 
ENDROOT
BRANCH   2   8
HETATM    8  C   UNK N   1      24.973  27.305  -5.210  0.00  0.00     0.060 C 
BRANCH   8   9
HETATM    9  C   UNK N   1      26.043  27.996  -4.364  0.00  0.00     0.115 C 
BRANCH   9  10
HETATM   10  N   UNK N   1      25.822  27.733  -2.955  0.00  0.00    -0.430 N 
HETATM   11  H   UNK N   1      25.139  28.283  -2.434  0.00  0.00     0.149 HD
HETATM   12  H   UNK N   1      26.349  26.996  -2.485  0.00  0.00     0.149 HD
ENDBRANCH   9  10
ENDBRANCH   8   9
ENDBRANCH   2   8
BRANCH   3  13
HETATM   13  O   UNK N   1      25.883  24.699  -3.973  0.00  0.00    -0.355 OA
HETATM   14  C   UNK N   1      26.933  24.288  -3.190  0.00  0.00     0.210 C 
ENDBRANCH   3  13
BRANCH   5  15
HETATM   15  O   UNK N   1      26.091  25.184  -9.490  0.00  0.00    -0.355 OA
HETATM   16  C   UNK N   1      25.216  25.935 -10.243  0.00  0.00     0.210 C 
ENDBRANCH   5  15
TORSDOF 5
ENDMDL
MODEL 4
REMARK VINA RESULT:      -4.6      9.726     10.863
REMARK  5 active torsions:
REMARK  status: ('A' for Active; 'I' for Inactive)
REMARK    1  A    between atoms: O_2  and  C_7 
REMARK    2  A    between atoms: O_3  and  C_10 
REMARK    3  A    between atoms: N_4  and  C_8 
REMARK    4  A    between atoms: C_5  and  C_6 
REMARK    5  A    between atoms: C_6  and  C_8 
ROOT
HETATM    1 Br   UNK N   1      32.548  17.140   3.444  0.00  0.00    -0.048 Br
HETATM    2  C   UNK N   1      30.368  17.215   7.641  0.00  0.00    -0.021 A 
HETATM    3  C   UNK N   1      29.611  17.173   6.430  0.00  0.00     0.076 A 
HETATM    4  C   UNK N   1      31.770  17.233   7.558  0.00  0.00     0.048 A 
HETATM    5  C   UNK N   1      32.436  17.211   6.329  0.00  0.00     0.086 A 
HETATM    6  C   UNK N   1      30.293  17.151   5.208  0.00  0.00     0.059 A 
HETATM    7  C   UNK N   1      31.687  17.171   5.150  0.00  0.00     0.047 A 
ENDROOT
BRANCH   2   8
HETATM    8  C   UNK N   1      29.725  17.242   9.009  0.00  0.00     0.060 C 
BRANCH   8   9
HETATM    9  C   UNK N   1      29.086  18.587   9.356  0.00  0.00     0.115 C 
BRANCH   9  10
HETATM   10  N   UNK N   1      27.654  18.540   9.135  0.00  0.00    -0.430 N 
HETATM   11  H   UNK N   1      27.013  18.538   9.929  0.00  0.00     0.149 HD
HETATM   12  H   UNK N   1      27.286  18.507   8.183  0.00  0.00     0.149 HD
ENDBRANCH   9  10
ENDBRANCH   8   9
ENDBRANCH   2   8
BRANCH   3  13
HETATM   13  O   UNK N   1      28.250  17.151   6.370  0.00  0.00    -0.355 OA
HETATM   14  C   UNK N   1      27.452  17.943   5.582  0.00  0.00     0.210 C 
ENDBRANCH   3  13
BRANCH   5  15
HETATM   15  O   UNK N   1      33.790  17.227   6.264  0.00  0.00    -0.355 OA
HETATM   16  C   UNK N   1      34.588  16.324   6.932  0.00  0.00     0.210 C 
ENDBRANCH   5  15
TORSDOF 5
ENDMDL
MODEL 5
REMARK VINA RESULT:      -4.5      6.119      6.971
REMARK  5 active torsions:
REMARK  status: ('A' for Active; 'I' for Inactive)
REMARK    1  A    between atoms: O_2  and  C_7 
REMARK    2  A    between atoms: O_3  and  C_10 
REMARK    3  A    between atoms: N_4  and  C_8 
REMARK    4  A    between atoms: C_5  and  C_6 
REMARK    5  A    between atoms: C_6  and  C_8 
ROOT
HETATM    1 Br   UNK N   1      26.390  20.280   3.607  0.00  0.00    -0.048 Br
HETATM    2  C   UNK N   1      21.834  19.021   3.453  0.00  0.00    -0.021 A 
HETATM    3  C   UNK N   1      22.278  20.218   2.813  0.00  0.00     0.076 A 
HETATM    4  C   UNK N   1      22.777  18.227   4.127  0.00  0.00     0.048 A 
HETATM    5  C   UNK N   1      24.128  18.580   4.185  0.00  0.00     0.086 A 
HETATM    6  C   UNK N   1      23.635  20.556   2.881  0.00  0.00     0.059 A 
HETATM    7  C   UNK N   1      24.554  19.753   3.557  0.00  0.00     0.047 A 
ENDROOT
BRANCH   2   8
HETATM    8  C   UNK N   1      20.390  18.570   3.437  0.00  0.00     0.060 C 
BRANCH   8   9
HETATM    9  C   UNK N   1      20.136  17.371   2.523  0.00  0.00     0.115 C 
BRANCH   9  10
HETATM   10  N   UNK N   1      19.125  17.694   1.535  0.00  0.00    -0.430 N 
HETATM   11  H   UNK N   1      19.400  18.063   0.624  0.00  0.00     0.149 HD
HETATM   12  H   UNK N   1      18.138  17.551   1.750  0.00  0.00     0.149 HD
ENDBRANCH   9  10
ENDBRANCH   8   9
ENDBRANCH   2   8
BRANCH   3  13
HETATM   13  O   UNK N   1      21.469  21.074   2.128  0.00  0.00    -0.355 OA
HETATM   14  C   UNK N   1      20.875  20.843   0.912  0.00  0.00     0.210 C 
ENDBRANCH   3  13
BRANCH   5  15
HETATM   15  O   UNK N   1      25.028  17.803   4.838  0.00  0.00    -0.355 OA
HETATM   16  C   UNK N   1      24.754  16.518   5.252  0.00  0.00     0.210 C 
ENDBRANCH   5  15
TORSDOF 5
ENDMDL
MODEL 6
REMARK VINA RESULT:      -4.4     16.178     18.382
REMARK  5 active torsions:
REMARK  status: ('A' for Active; 'I' for Inactive)
REMARK    1  A    between atoms: O_2  and  C_7 
REMARK    2  A    between atoms: O_3  and  C_10 
REMARK    3  A    between atoms: N_4  and  C_8 
REMARK    4  A    between atoms: C_5  and  C_6 
REMARK    5  A    between atoms: C_6  and  C_8 
ROOT
HETATM    1 Br   UNK N   1      26.452  27.658  -3.733  0.00  0.00    -0.048 Br
HETATM    2  C   UNK N   1      25.815  24.360  -7.062  0.00  0.00    -0.021 A 
HETATM    3  C   UNK N   1      25.891  25.742  -7.414  0.00  0.00     0.076 A 
HETATM    4  C   UNK N   1      25.936  24.002  -5.709  0.00  0.00     0.048 A 
HETATM    5  C   UNK N   1      26.125  24.960  -4.708  0.00  0.00     0.086 A 
HETATM    6  C   UNK N   1      26.080  26.688  -6.400  0.00  0.00     0.059 A 
HETATM    7  C   UNK N   1      26.196  26.310  -5.062  0.00  0.00     0.047 A 
ENDROOT
BRANCH   2   8
HETATM    8  C   UNK N   1      25.612  23.263  -8.083  0.00  0.00     0.060 C 
BRANCH   8   9
HETATM    9  C   UNK N   1      25.248  21.913  -7.464  0.00  0.00     0.115 C 
BRANCH   9  10
HETATM   10  N   UNK N   1      23.823  21.670  -7.583  0.00  0.00    -0.430 N 
HETATM   11  H   UNK N   1      23.441  20.752  -7.354  0.00  0.00     0.149 HD
HETATM   12  H   UNK N   1      23.203  22.417  -7.895  0.00  0.00     0.149 HD
ENDBRANCH   9  10
ENDBRANCH   8   9
ENDBRANCH   2   8
BRANCH   3  13
HETATM   13  O   UNK N   1      25.790  26.222  -8.686  0.00  0.00    -0.355 OA
HETATM   14  C   UNK N   1      26.817  26.393  -9.580  0.00  0.00     0.210 C 
ENDBRANCH   3  13
BRANCH   5  15
HETATM   15  O   UNK N   1      26.241  24.600  -3.405  0.00  0.00    -0.355 OA
HETATM   16  C   UNK N   1      27.380  24.031  -2.879  0.00  0.00     0.210 C 
ENDBRANCH   5  15
TORSDOF 5
ENDMDL
MODEL 7
REMARK VINA RESULT:      -4.4     10.152     11.615
REMARK  5 active torsions:
REMARK  status: ('A' for Active; 'I' for Inactive)
REMARK    1  A    between atoms: O_2  and  C_7 
REMARK    2  A    between atoms: O_3  and  C_10 
REMARK    3  A    between atoms: N_4  and  C_8 
REMARK    4  A    between atoms: C_5  and  C_6 
REMARK    5  A    between atoms: C_6  and  C_8 
ROOT
HETATM    1 Br   UNK N   1      28.274  17.677   4.244  0.00  0.00    -0.048 Br
HETATM    2  C   UNK N   1      31.667  17.052   7.478  0.00  0.00    -0.021 A 
HETATM    3  C   UNK N   1      30.319  17.303   7.879  0.00  0.00     0.076 A 
HETATM    4  C   UNK N   1      31.962  16.993   6.106  0.00  0.00     0.048 A 
HETATM    5  C   UNK N   1      30.976  17.175   5.132  0.00  0.00     0.086 A 
HETATM    6  C   UNK N   1      29.344  17.483   6.892  0.00  0.00     0.059 A 
HETATM    7  C   UNK N   1      29.660  17.422   5.534  0.00  0.00     0.047 A 
ENDROOT
BRANCH   2   8
HETATM    8  C   UNK N   1      32.792  16.845   8.468  0.00  0.00     0.060 C 
BRANCH   8   9
HETATM    9  C   UNK N   1      32.897  15.409   8.981  0.00  0.00     0.115 C 
BRANCH   9  10
HETATM   10  N   UNK N   1      32.071  15.231  10.160  0.00  0.00    -0.430 N 
HETATM   11  H   UNK N   1      31.619  16.037  10.594  0.00  0.00     0.149 HD
HETATM   12  H   UNK N   1      31.942  14.300  10.556  0.00  0.00     0.149 HD
ENDBRANCH   9  10
ENDBRANCH   8   9
ENDBRANCH   2   8
BRANCH   3  13
HETATM   13  O   UNK N   1      29.900  17.384   9.173  0.00  0.00    -0.355 OA
HETATM   14  C   UNK N   1      29.528  18.522   9.844  0.00  0.00     0.210 C 
ENDBRANCH   3  13
BRANCH   5  15
HETATM   15  O   UNK N   1      31.274  17.114   3.811  0.00  0.00    -0.355 OA
HETATM   16  C   UNK N   1      32.563  17.028   3.333  0.00  0.00     0.210 C 
ENDBRANCH   5  15
TORSDOF 5
ENDMDL
MODEL 8
REMARK VINA RESULT:      -4.3     10.697     12.136
REMARK  5 active torsions:
REMARK  status: ('A' for Active; 'I' for Inactive)
REMARK    1  A    between atoms: O_2  and  C_7 
REMARK    2  A    between atoms: O_3  and  C_10 
REMARK    3  A    between atoms: N_4  and  C_8 
REMARK    4  A    between atoms: C_5  and  C_6 
REMARK    5  A    between atoms: C_6  and  C_8 
ROOT
HETATM    1 Br   UNK N   1      28.572  17.921   9.077  0.00  0.00    -0.048 Br
HETATM    2  C   UNK N   1      32.048  17.190   5.955  0.00  0.00    -0.021 A 
HETATM    3  C   UNK N   1      32.341  17.349   7.344  0.00  0.00     0.076 A 
HETATM    4  C   UNK N   1      30.708  17.254   5.537  0.00  0.00     0.048 A 
HETATM    5  C   UNK N   1      29.664  17.469   6.442  0.00  0.00     0.086 A 
HETATM    6  C   UNK N   1      31.285  17.563   8.236  0.00  0.00     0.059 A 
HETATM    7  C   UNK N   1      29.961  17.625   7.799  0.00  0.00     0.047 A 
ENDROOT
BRANCH   2   8
HETATM    8  C   UNK N   1      33.118  16.955   4.912  0.00  0.00     0.060 C 
BRANCH   8   9
HETATM    9  C   UNK N   1      32.610  17.087   3.476  0.00  0.00     0.115 C 
BRANCH   9  10
HETATM   10  N   UNK N   1      33.220  16.081   2.629  0.00  0.00    -0.430 N 
HETATM   11  H   UNK N   1      33.852  16.359   1.878  0.00  0.00     0.149 HD
HETATM   12  H   UNK N   1      33.017  15.093   2.785  0.00  0.00     0.149 HD
ENDBRANCH   9  10
ENDBRANCH   8   9
ENDBRANCH   2   8
BRANCH   3  13
HETATM   13  O   UNK N   1      33.594  17.308   7.878  0.00  0.00    -0.355 OA
HETATM   14  C   UNK N   1      34.402  18.383   8.155  0.00  0.00     0.210 C 
ENDBRANCH   3  13
BRANCH   5  15
HETATM   15  O   UNK N   1      28.375  17.527   6.026  0.00  0.00    -0.355 OA
HETATM   16  C   UNK N   1      27.854  18.598   5.334  0.00  0.00     0.210 C 
ENDBRANCH   5  15
TORSDOF 5
ENDMDL
MODEL 9
REMARK VINA RESULT:      -4.3     18.042     19.367
REMARK  5 active torsions:
REMARK  status: ('A' for Active; 'I' for Inactive)
REMARK    1  A    between atoms: O_2  and  C_7 
REMARK    2  A    between atoms: O_3  and  C_10 
REMARK    3  A    between atoms: N_4  and  C_8 
REMARK    4  A    between atoms: C_5  and  C_6 
REMARK    5  A    between atoms: C_6  and  C_8 
ROOT
HETATM    1 Br   UNK N   1      27.629  25.224  -9.494  0.00  0.00    -0.048 Br
HETATM    2  C   UNK N   1      25.879  27.268  -5.605  0.00  0.00    -0.021 A 
HETATM    3  C   UNK N   1      26.907  27.909  -6.362  0.00  0.00     0.076 A 
HETATM    4  C   UNK N   1      25.400  26.021  -6.040  0.00  0.00     0.048 A 
HETATM    5  C   UNK N   1      25.902  25.398  -7.186  0.00  0.00     0.086 A 
HETATM    6  C   UNK N   1      27.399  27.271  -7.507  0.00  0.00     0.059 A 
HETATM    7  C   UNK N   1      26.909  26.032  -7.920  0.00  0.00     0.047 A 
ENDROOT
BRANCH   2   8
HETATM    8  C   UNK N   1      25.284  27.874  -4.353  0.00  0.00     0.060 C 
BRANCH   8   9
HETATM    9  C   UNK N   1      26.106  27.601  -3.093  0.00  0.00     0.115 C 
BRANCH   9  10
HETATM   10  N   UNK N   1      26.914  28.757  -2.756  0.00  0.00    -0.430 N 
HETATM   11  H   UNK N   1      27.097  28.986  -1.779  0.00  0.00     0.149 HD
HETATM   12  H   UNK N   1      27.300  29.343  -3.498  0.00  0.00     0.149 HD
ENDBRANCH   9  10
ENDBRANCH   8   9
ENDBRANCH   2   8
BRANCH   3  13
HETATM   13  O   UNK N   1      27.458  29.115  -6.050  0.00  0.00    -0.355 OA
HETATM   14  C   UNK N   1      28.648  29.617  -6.516  0.00  0.00     0.210 C 
ENDBRANCH   3  13
BRANCH   5  15
HETATM   15  O   UNK N   1      25.429  24.195  -7.596  0.00  0.00    -0.355 OA
HETATM   16  C   UNK N   1      25.710  23.014  -6.946  0.00  0.00     0.210 C 
ENDBRANCH   5  15
TORSDOF 5
ENDMDL
