MODEL 1
REMARK VINA RESULT:      -7.4      0.000      0.000
REMARK  3 active torsions:
REMARK  status: ('A' for Active; 'I' for Inactive)
REMARK    1  A    between atoms: C_13  and  O_2 
REMARK    2  A    between atoms: O_2  and  C_23 
REMARK    3  A    between atoms: O_3  and  C_21 
ROOT
HETATM    1  O   UNK N   1      31.358  17.017   7.578  0.00  0.00    -0.339 OA
HETATM    2  N   UNK N   1      30.199  14.275   3.357  0.00  0.00     0.089 N 
HETATM    3  C   UNK N   1      31.302  15.947   5.498  0.00  0.00     0.026 C 
HETATM    4  C   UNK N   1      31.745  16.122   4.047  0.00  0.00     0.035 C 
HETATM    5  C   UNK N   1      32.242  16.456   6.645  0.00  0.00     0.172 C 
HETATM    6  C   UNK N   1      30.521  15.705   3.156  0.00  0.00     0.232 C 
HETATM    7  C   UNK N   1      30.940  14.467   5.739  0.00  0.00     0.048 C 
HETATM    8  C   UNK N   1      30.121  16.771   5.760  0.00  0.00    -0.004 A 
HETATM    9  C   UNK N   1      32.200  17.559   3.828  0.00  0.00     0.010 C 
HETATM   10  C   UNK N   1      33.207  17.593   6.188  0.00  0.00     0.162 C 
HETATM   11  C   UNK N   1      29.232  16.552   3.435  0.00  0.00     0.075 C 
HETATM   12  C   UNK N   1      33.447  17.779   4.675  0.00  0.00     0.036 C 
HETATM   13  C   UNK N   1      29.882  13.950   4.755  0.00  0.00     0.273 C 
HETATM   14  C   UNK N   1      29.090  17.018   4.869  0.00  0.00    -0.046 A 
HETATM   15  C   UNK N   1      30.181  17.299   6.994  0.00  0.00     0.110 A 
HETATM   16  C   UNK N   1      31.270  13.402   2.885  0.00  0.00     0.310 C 
HETATM   17  C   UNK N   1      28.018  17.809   5.308  0.00  0.00     0.011 A 
HETATM   18  C   UNK N   1      29.132  18.082   7.488  0.00  0.00     0.102 A 
HETATM   19  C   UNK N   1      28.024  18.318   6.628  0.00  0.00     0.040 A 
ENDROOT
BRANCH  10  20
HETATM   20  O   UNK N   1      34.424  17.501   6.846  0.00  0.00    -0.314 OA
BRANCH  20  21
HETATM   21  C   UNK N   1      34.637  17.986   8.106  0.00  0.00     0.255 C 
HETATM   22  O   UNK N   1      34.906  19.165   8.290  0.00  0.00    -0.266 OA
HETATM   23  C   UNK N   1      34.525  17.075   9.278  0.00  0.00     0.126 C 
ENDBRANCH  20  21
ENDBRANCH  10  20
BRANCH  18  24
HETATM   24  O   UNK N   1      29.198  18.605   8.734  0.00  0.00    -0.353 OA
HETATM   25  C   UNK N   1      28.968  17.863   9.871  0.00  0.00     0.210 C 
ENDBRANCH  18  24
TORSDOF 3
ENDMDL
MODEL 2
REMARK VINA RESULT:      -7.0     11.903     13.869
REMARK  3 active torsions:
REMARK  status: ('A' for Active; 'I' for Inactive)
REMARK    1  A    between atoms: C_13  and  O_2 
REMARK    2  A    between atoms: O_2  and  C_23 
REMARK    3  A    between atoms: O_3  and  C_21 
ROOT
HETATM    1  O   UNK N   1      29.952  23.053  -5.845  0.00  0.00    -0.339 OA
HETATM    2  N   UNK N   1      26.646  26.831  -4.627  0.00  0.00     0.089 N 
HETATM    3  C   UNK N   1      28.599  24.651  -4.799  0.00  0.00     0.026 C 
HETATM    4  C   UNK N   1      27.782  24.885  -3.530  0.00  0.00     0.035 C 
HETATM    5  C   UNK N   1      29.949  23.860  -4.697  0.00  0.00     0.172 C 
HETATM    6  C   UNK N   1      26.419  25.514  -3.990  0.00  0.00     0.232 C 
HETATM    7  C   UNK N   1      28.840  26.004  -5.500  0.00  0.00     0.048 C 
HETATM    8  C   UNK N   1      27.864  23.771  -5.709  0.00  0.00    -0.004 A 
HETATM    9  C   UNK N   1      27.626  23.569  -2.780  0.00  0.00     0.010 C 
HETATM   10  C   UNK N   1      30.008  22.904  -3.466  0.00  0.00     0.162 C 
HETATM   11  C   UNK N   1      25.622  24.607  -4.988  0.00  0.00     0.075 C 
HETATM   12  C   UNK N   1      29.012  23.141  -2.312  0.00  0.00     0.036 C 
HETATM   13  C   UNK N   1      27.536  26.757  -5.795  0.00  0.00     0.273 C 
HETATM   14  C   UNK N   1      26.491  23.764  -5.897  0.00  0.00    -0.046 A 
HETATM   15  C   UNK N   1      28.704  22.927  -6.329  0.00  0.00     0.110 A 
HETATM   16  C   UNK N   1      27.167  27.812  -3.680  0.00  0.00     0.310 C 
HETATM   17  C   UNK N   1      25.963  22.870  -6.840  0.00  0.00     0.011 A 
HETATM   18  C   UNK N   1      28.233  22.025  -7.289  0.00  0.00     0.102 A 
HETATM   19  C   UNK N   1      26.837  22.019  -7.558  0.00  0.00     0.040 A 
ENDROOT
BRANCH  10  20
HETATM   20  O   UNK N   1      31.297  22.827  -2.962  0.00  0.00    -0.314 OA
BRANCH  20  21
HETATM   21  C   UNK N   1      32.038  21.679  -2.961  0.00  0.00     0.255 C 
HETATM   22  O   UNK N   1      32.770  21.401  -2.020  0.00  0.00    -0.266 OA
HETATM   23  C   UNK N   1      31.946  20.738  -4.110  0.00  0.00     0.126 C 
ENDBRANCH  20  21
ENDBRANCH  10  20
BRANCH  18  24
HETATM   24  O   UNK N   1      29.087  21.182  -7.912  0.00  0.00    -0.353 OA
HETATM   25  C   UNK N   1      29.375  19.922  -7.435  0.00  0.00     0.210 C 
ENDBRANCH  18  24
TORSDOF 3
ENDMDL
MODEL 3
REMARK VINA RESULT:      -7.0      7.897     10.298
REMARK  3 active torsions:
REMARK  status: ('A' for Active; 'I' for Inactive)
REMARK    1  A    between atoms: C_13  and  O_2 
REMARK    2  A    between atoms: O_2  and  C_23 
REMARK    3  A    between atoms: O_3  and  C_21 
ROOT
HETATM    1  O   UNK N   1      21.364  18.646   6.285  0.00  0.00    -0.339 OA
HETATM    2  N   UNK N   1      24.141  14.973   3.944  0.00  0.00     0.089 N 
HETATM    3  C   UNK N   1      22.418  17.192   4.785  0.00  0.00     0.026 C 
HETATM    4  C   UNK N   1      22.204  16.483   3.450  0.00  0.00     0.035 C 
HETATM    5  C   UNK N   1      21.860  18.644   4.973  0.00  0.00     0.172 C 
HETATM    6  C   UNK N   1      22.691  15.004   3.648  0.00  0.00     0.232 C 
HETATM    7  C   UNK N   1      23.921  17.162   5.136  0.00  0.00     0.048 C 
HETATM    8  C   UNK N   1      21.674  16.501   5.840  0.00  0.00    -0.004 A 
HETATM    9  C   UNK N   1      20.738  16.597   3.048  0.00  0.00     0.010 C 
HETATM   10  C   UNK N   1      20.659  18.966   4.030  0.00  0.00     0.162 C 
HETATM   11  C   UNK N   1      21.931  14.248   4.791  0.00  0.00     0.075 C 
HETATM   12  C   UNK N   1      20.446  18.070   2.792  0.00  0.00     0.036 C 
HETATM   13  C   UNK N   1      24.497  15.740   5.147  0.00  0.00     0.273 C 
HETATM   14  C   UNK N   1      21.486  15.132   5.936  0.00  0.00    -0.046 A 
HETATM   15  C   UNK N   1      21.154  17.386   6.705  0.00  0.00     0.110 A 
HETATM   16  C   UNK N   1      24.939  15.441   2.815  0.00  0.00     0.310 C 
HETATM   17  C   UNK N   1      20.770  14.644   7.039  0.00  0.00     0.011 A 
HETATM   18  C   UNK N   1      20.443  16.954   7.830  0.00  0.00     0.102 A 
HETATM   19  C   UNK N   1      20.271  15.553   8.003  0.00  0.00     0.040 A 
ENDROOT
BRANCH  10  20
HETATM   20  O   UNK N   1      20.678  20.298   3.644  0.00  0.00    -0.314 OA
BRANCH  20  21
HETATM   21  C   UNK N   1      21.401  20.764   2.582  0.00  0.00     0.255 C 
HETATM   22  O   UNK N   1      22.586  21.041   2.698  0.00  0.00    -0.266 OA
HETATM   23  C   UNK N   1      20.745  20.924   1.255  0.00  0.00     0.126 C 
ENDBRANCH  20  21
ENDBRANCH  10  20
BRANCH  18  24
HETATM   24  O   UNK N   1      19.926  17.853   8.699  0.00  0.00    -0.353 OA
HETATM   25  C   UNK N   1      18.690  17.699   9.286  0.00  0.00     0.210 C 
ENDBRANCH  18  24
TORSDOF 3
ENDMDL
MODEL 4
REMARK VINA RESULT:      -6.9     13.684     15.550
REMARK  3 active torsions:
REMARK  status: ('A' for Active; 'I' for Inactive)
REMARK    1  A    between atoms: C_13  and  O_2 
REMARK    2  A    between atoms: O_2  and  C_23 
REMARK    3  A    between atoms: O_3  and  C_21 
ROOT
HETATM    1  O   UNK N   1      29.538  25.329  -6.277  0.00  0.00    -0.339 OA
HETATM    2  N   UNK N   1      26.115  28.842  -4.657  0.00  0.00     0.089 N 
HETATM    3  C   UNK N   1      28.012  26.649  -5.091  0.00  0.00     0.026 C 
HETATM    4  C   UNK N   1      26.929  26.560  -4.019  0.00  0.00     0.035 C 
HETATM    5  C   UNK N   1      29.286  25.745  -4.961  0.00  0.00     0.172 C 
HETATM    6  C   UNK N   1      25.722  27.421  -4.534  0.00  0.00     0.232 C 
HETATM    7  C   UNK N   1      28.435  28.123  -5.259  0.00  0.00     0.048 C 
HETATM    8  C   UNK N   1      27.489  26.159  -6.368  0.00  0.00    -0.004 A 
HETATM    9  C   UNK N   1      26.579  25.098  -3.776  0.00  0.00     0.010 C 
HETATM   10  C   UNK N   1      29.040  24.458  -4.114  0.00  0.00     0.162 C 
HETATM   11  C   UNK N   1      25.158  26.938  -5.914  0.00  0.00     0.075 C 
HETATM   12  C   UNK N   1      27.810  24.423  -3.184  0.00  0.00     0.036 C 
HETATM   13  C   UNK N   1      27.249  29.046  -5.570  0.00  0.00     0.273 C 
HETATM   14  C   UNK N   1      26.197  26.335  -6.836  0.00  0.00    -0.046 A 
HETATM   15  C   UNK N   1      28.433  25.471  -7.030  0.00  0.00     0.110 A 
HETATM   16  C   UNK N   1      26.423  29.437  -3.360  0.00  0.00     0.310 C 
HETATM   17  C   UNK N   1      25.883  25.823  -8.103  0.00  0.00     0.011 A 
HETATM   18  C   UNK N   1      28.178  24.951  -8.303  0.00  0.00     0.102 A 
HETATM   19  C   UNK N   1      26.882  25.154  -8.851  0.00  0.00     0.040 A 
ENDROOT
BRANCH  10  20
HETATM   20  O   UNK N   1      30.177  24.114  -3.398  0.00  0.00    -0.314 OA
BRANCH  20  21
HETATM   21  C   UNK N   1      30.303  22.945  -2.702  0.00  0.00     0.255 C 
HETATM   22  O   UNK N   1      30.444  22.947  -1.487  0.00  0.00    -0.266 OA
HETATM   23  C   UNK N   1      30.253  21.645  -3.424  0.00  0.00     0.126 C 
ENDBRANCH  20  21
ENDBRANCH  10  20
BRANCH  18  24
HETATM   24  O   UNK N   1      29.136  24.262  -8.965  0.00  0.00    -0.353 OA
HETATM   25  C   UNK N   1      29.108  22.893  -9.110  0.00  0.00     0.210 C 
ENDBRANCH  18  24
TORSDOF 3
ENDMDL
MODEL 5
REMARK VINA RESULT:      -6.6      2.417      4.828
REMARK  3 active torsions:
REMARK  status: ('A' for Active; 'I' for Inactive)
REMARK    1  A    between atoms: C_13  and  O_2 
REMARK    2  A    between atoms: O_2  and  C_23 
REMARK    3  A    between atoms: O_3  and  C_21 
ROOT
HETATM    1  O   UNK N   1      30.036  16.350   6.307  0.00  0.00    -0.339 OA
HETATM    2  N   UNK N   1      34.672  14.213   7.095  0.00  0.00     0.089 N 
HETATM    3  C   UNK N   1      32.156  15.718   7.071  0.00  0.00     0.026 C 
HETATM    4  C   UNK N   1      33.412  16.284   7.728  0.00  0.00     0.035 C 
HETATM    5  C   UNK N   1      30.755  16.268   7.509  0.00  0.00     0.172 C 
HETATM    6  C   UNK N   1      34.632  15.685   6.943  0.00  0.00     0.232 C 
HETATM    7  C   UNK N   1      32.172  14.180   7.194  0.00  0.00     0.048 C 
HETATM    8  C   UNK N   1      32.132  16.077   5.652  0.00  0.00    -0.004 A 
HETATM    9  C   UNK N   1      33.354  17.806   7.699  0.00  0.00     0.010 C 
HETATM   10  C   UNK N   1      30.822  17.710   8.100  0.00  0.00     0.162 C 
HETATM   11  C   UNK N   1      34.619  16.029   5.415  0.00  0.00     0.075 C 
HETATM   12  C   UNK N   1      32.189  18.237   8.582  0.00  0.00     0.036 C 
HETATM   13  C   UNK N   1      33.448  13.554   6.615  0.00  0.00     0.273 C 
HETATM   14  C   UNK N   1      33.234  16.157   4.816  0.00  0.00    -0.046 A 
HETATM   15  C   UNK N   1      30.879  16.360   5.260  0.00  0.00     0.110 A 
HETATM   16  C   UNK N   1      34.931  13.813   8.475  0.00  0.00     0.310 C 
HETATM   17  C   UNK N   1      33.015  16.486   3.471  0.00  0.00     0.011 A 
HETATM   18  C   UNK N   1      30.601  16.680   3.926  0.00  0.00     0.102 A 
HETATM   19  C   UNK N   1      31.695  16.720   3.017  0.00  0.00     0.040 A 
ENDROOT
BRANCH  10  20
HETATM   20  O   UNK N   1      29.878  17.876   9.103  0.00  0.00    -0.314 OA
BRANCH  20  21
HETATM   21  C   UNK N   1      28.553  18.105   8.859  0.00  0.00     0.255 C 
HETATM   22  O   UNK N   1      27.685  17.558   9.526  0.00  0.00    -0.266 OA
HETATM   23  C   UNK N   1      28.152  19.047   7.779  0.00  0.00     0.126 C 
ENDBRANCH  20  21
ENDBRANCH  10  20
BRANCH  18  24
HETATM   24  O   UNK N   1      29.336  16.959   3.539  0.00  0.00    -0.353 OA
HETATM   25  C   UNK N   1      28.501  16.020   2.975  0.00  0.00     0.210 C 
ENDBRANCH  18  24
TORSDOF 3
ENDMDL
MODEL 6
REMARK VINA RESULT:      -6.5      8.766     10.374
REMARK  3 active torsions:
REMARK  status: ('A' for Active; 'I' for Inactive)
REMARK    1  A    between atoms: C_13  and  O_2 
REMARK    2  A    between atoms: O_2  and  C_23 
REMARK    3  A    between atoms: O_3  and  C_21 
ROOT
HETATM    1  O   UNK N   1      20.435  13.720   8.686  0.00  0.00    -0.339 OA
HETATM    2  N   UNK N   1      22.998  13.494   4.207  0.00  0.00     0.089 N 
HETATM    3  C   UNK N   1      21.973  13.397   6.952  0.00  0.00     0.026 C 
HETATM    4  C   UNK N   1      23.473  13.393   6.665  0.00  0.00     0.035 C 
HETATM    5  C   UNK N   1      21.461  12.835   8.323  0.00  0.00     0.172 C 
HETATM    6  C   UNK N   1      23.671  14.189   5.327  0.00  0.00     0.232 C 
HETATM    7  C   UNK N   1      21.236  12.695   5.793  0.00  0.00     0.048 C 
HETATM    8  C   UNK N   1      21.491  14.776   7.052  0.00  0.00    -0.004 A 
HETATM    9  C   UNK N   1      24.216  13.994   7.851  0.00  0.00     0.010 C 
HETATM   10  C   UNK N   1      22.537  12.896   9.451  0.00  0.00     0.162 C 
HETATM   11  C   UNK N   1      23.138  15.661   5.395  0.00  0.00     0.075 C 
HETATM   12  C   UNK N   1      24.014  13.061   9.039  0.00  0.00     0.036 C 
HETATM   13  C   UNK N   1      21.555  13.317   4.427  0.00  0.00     0.273 C 
HETATM   14  C   UNK N   1      21.937  15.848   6.298  0.00  0.00    -0.046 A 
HETATM   15  C   UNK N   1      20.562  14.880   8.016  0.00  0.00     0.110 A 
HETATM   16  C   UNK N   1      23.609  12.200   3.921  0.00  0.00     0.310 C 
HETATM   17  C   UNK N   1      21.332  17.096   6.510  0.00  0.00     0.011 A 
HETATM   18  C   UNK N   1      19.916  16.097   8.259  0.00  0.00     0.102 A 
HETATM   19  C   UNK N   1      20.301  17.216   7.471  0.00  0.00     0.040 A 
ENDROOT
BRANCH  10  20
HETATM   20  O   UNK N   1      22.410  11.816  10.312  0.00  0.00    -0.314 OA
BRANCH  20  21
HETATM   21  C   UNK N   1      21.965  11.928  11.599  0.00  0.00     0.255 C 
HETATM   22  O   UNK N   1      20.770  12.008  11.849  0.00  0.00    -0.266 OA
HETATM   23  C   UNK N   1      22.943  11.938  12.721  0.00  0.00     0.126 C 
ENDBRANCH  20  21
ENDBRANCH  10  20
BRANCH  18  24
HETATM   24  O   UNK N   1      18.978  16.191   9.229  0.00  0.00    -0.353 OA
HETATM   25  C   UNK N   1      17.846  16.966   9.102  0.00  0.00     0.210 C 
ENDBRANCH  18  24
TORSDOF 3
ENDMDL
MODEL 7
REMARK VINA RESULT:      -6.5      2.757      5.370
REMARK  3 active torsions:
REMARK  status: ('A' for Active; 'I' for Inactive)
REMARK    1  A    between atoms: C_13  and  O_2 
REMARK    2  A    between atoms: O_2  and  C_23 
REMARK    3  A    between atoms: O_3  and  C_21 
ROOT
HETATM    1  O   UNK N   1      28.564  18.012   4.595  0.00  0.00    -0.339 OA
HETATM    2  N   UNK N   1      33.269  16.057   5.445  0.00  0.00     0.089 N 
HETATM    3  C   UNK N   1      30.496  16.701   4.740  0.00  0.00     0.026 C 
HETATM    4  C   UNK N   1      30.954  15.255   4.918  0.00  0.00     0.035 C 
HETATM    5  C   UNK N   1      29.214  16.991   3.886  0.00  0.00     0.172 C 
HETATM    6  C   UNK N   1      32.120  15.285   5.969  0.00  0.00     0.232 C 
HETATM    7  C   UNK N   1      31.677  17.541   4.211  0.00  0.00     0.048 C 
HETATM    8  C   UNK N   1      30.067  17.248   6.028  0.00  0.00    -0.004 A 
HETATM    9  C   UNK N   1      29.768  14.399   5.344  0.00  0.00     0.010 C 
HETATM   10  C   UNK N   1      28.233  15.781   3.823  0.00  0.00     0.162 C 
HETATM   11  C   UNK N   1      31.698  15.893   7.350  0.00  0.00     0.075 C 
HETATM   12  C   UNK N   1      28.775  14.384   4.189  0.00  0.00     0.036 C 
HETATM   13  C   UNK N   1      32.919  17.444   5.106  0.00  0.00     0.273 C 
HETATM   14  C   UNK N   1      30.639  16.972   7.259  0.00  0.00    -0.046 A 
HETATM   15  C   UNK N   1      28.999  18.046   5.867  0.00  0.00     0.110 A 
HETATM   16  C   UNK N   1      33.878  15.412   4.286  0.00  0.00     0.310 C 
HETATM   17  C   UNK N   1      30.113  17.618   8.387  0.00  0.00     0.011 A 
HETATM   18  C   UNK N   1      28.443  18.727   6.955  0.00  0.00     0.102 A 
HETATM   19  C   UNK N   1      29.032  18.518   8.233  0.00  0.00     0.040 A 
ENDROOT
BRANCH  10  20
HETATM   20  O   UNK N   1      27.595  15.726   2.593  0.00  0.00    -0.314 OA
BRANCH  20  21
HETATM   21  C   UNK N   1      26.251  15.912   2.432  0.00  0.00     0.255 C 
HETATM   22  O   UNK N   1      25.681  16.868   2.939  0.00  0.00    -0.266 OA
HETATM   23  C   UNK N   1      25.464  14.949   1.615  0.00  0.00     0.126 C 
ENDBRANCH  20  21
ENDBRANCH  10  20
BRANCH  18  24
HETATM   24  O   UNK N   1      27.370  19.532   6.783  0.00  0.00    -0.353 OA
HETATM   25  C   UNK N   1      27.476  20.843   6.374  0.00  0.00     0.210 C 
ENDBRANCH  18  24
TORSDOF 3
ENDMDL
MODEL 8
REMARK VINA RESULT:      -6.5     13.019     14.462
REMARK  3 active torsions:
REMARK  status: ('A' for Active; 'I' for Inactive)
REMARK    1  A    between atoms: C_13  and  O_2 
REMARK    2  A    between atoms: O_2  and  C_23 
REMARK    3  A    between atoms: O_3  and  C_21 
ROOT
HETATM    1  O   UNK N   1      29.063  26.268  -3.416  0.00  0.00    -0.339 OA
HETATM    2  N   UNK N   1      25.808  24.096  -6.787  0.00  0.00     0.089 N 
HETATM    3  C   UNK N   1      27.997  24.965  -5.041  0.00  0.00     0.026 C 
HETATM    4  C   UNK N   1      28.270  24.200  -6.334  0.00  0.00     0.035 C 
HETATM    5  C   UNK N   1      29.082  24.955  -3.910  0.00  0.00     0.172 C 
HETATM    6  C   UNK N   1      27.105  24.567  -7.321  0.00  0.00     0.232 C 
HETATM    7  C   UNK N   1      26.639  24.511  -4.464  0.00  0.00     0.048 C 
HETATM    8  C   UNK N   1      27.936  26.401  -5.316  0.00  0.00    -0.004 A 
HETATM    9  C   UNK N   1      29.653  24.569  -6.856  0.00  0.00     0.010 C 
HETATM   10  C   UNK N   1      30.522  24.689  -4.445  0.00  0.00     0.162 C 
HETATM   11  C   UNK N   1      26.998  26.102  -7.612  0.00  0.00     0.075 C 
HETATM   12  C   UNK N   1      30.674  24.060  -5.846  0.00  0.00     0.036 C 
HETATM   13  C   UNK N   1      25.490  24.664  -5.469  0.00  0.00     0.273 C 
HETATM   14  C   UNK N   1      27.410  26.988  -6.455  0.00  0.00    -0.046 A 
HETATM   15  C   UNK N   1      28.501  27.095  -4.315  0.00  0.00     0.110 A 
HETATM   16  C   UNK N   1      25.742  22.639  -6.718  0.00  0.00     0.310 C 
HETATM   17  C   UNK N   1      27.407  28.388  -6.530  0.00  0.00     0.011 A 
HETATM   18  C   UNK N   1      28.513  28.495  -4.332  0.00  0.00     0.102 A 
HETATM   19  C   UNK N   1      27.933  29.145  -5.456  0.00  0.00     0.040 A 
ENDROOT
BRANCH  10  20
HETATM   20  O   UNK N   1      31.264  23.963  -3.525  0.00  0.00    -0.314 OA
BRANCH  20  21
HETATM   21  C   UNK N   1      30.744  22.946  -2.773  0.00  0.00     0.255 C 
HETATM   22  O   UNK N   1      30.581  23.073  -1.568  0.00  0.00    -0.266 OA
HETATM   23  C   UNK N   1      30.353  21.668  -3.428  0.00  0.00     0.126 C 
ENDBRANCH  20  21
ENDBRANCH  10  20
BRANCH  18  24
HETATM   24  O   UNK N   1      29.080  29.186  -3.317  0.00  0.00    -0.353 OA
HETATM   25  C   UNK N   1      28.389  29.551  -2.183  0.00  0.00     0.210 C 
ENDBRANCH  18  24
TORSDOF 3
ENDMDL
MODEL 9
REMARK VINA RESULT:      -6.5      1.641      2.156
REMARK  3 active torsions:
REMARK  status: ('A' for Active; 'I' for Inactive)
REMARK    1  A    between atoms: C_13  and  O_2 
REMARK    2  A    between atoms: O_2  and  C_23 
REMARK    3  A    between atoms: O_3  and  C_21 
ROOT
HETATM    1  O   UNK N   1      30.973  16.632   8.516  0.00  0.00    -0.339 OA
HETATM    2  N   UNK N   1      32.470  14.622   4.000  0.00  0.00     0.089 N 
HETATM    3  C   UNK N   1      32.129  15.887   6.622  0.00  0.00     0.026 C 
HETATM    4  C   UNK N   1      33.303  16.247   5.715  0.00  0.00     0.035 C 
HETATM    5  C   UNK N   1      32.247  16.162   8.161  0.00  0.00     0.172 C 
HETATM    6  C   UNK N   1      32.804  16.043   4.241  0.00  0.00     0.232 C 
HETATM    7  C   UNK N   1      31.742  14.413   6.384  0.00  0.00     0.048 C 
HETATM    8  C   UNK N   1      30.978  16.735   6.306  0.00  0.00    -0.004 A 
HETATM    9  C   UNK N   1      33.755  17.670   6.016  0.00  0.00     0.010 C 
HETATM   10  C   UNK N   1      33.264  17.292   8.506  0.00  0.00     0.162 C 
HETATM   11  C   UNK N   1      31.554  16.917   3.881  0.00  0.00     0.075 C 
HETATM   12  C   UNK N   1      34.305  17.685   7.437  0.00  0.00     0.036 C 
HETATM   13  C   UNK N   1      31.435  14.113   4.911  0.00  0.00     0.273 C 
HETATM   14  C   UNK N   1      30.617  17.174   5.043  0.00  0.00    -0.046 A 
HETATM   15  C   UNK N   1      30.318  17.069   7.427  0.00  0.00     0.110 A 
HETATM   16  C   UNK N   1      33.649  13.764   4.077  0.00  0.00     0.310 C 
HETATM   17  C   UNK N   1      29.458  17.956   4.926  0.00  0.00     0.011 A 
HETATM   18  C   UNK N   1      29.148  17.834   7.367  0.00  0.00     0.102 A 
HETATM   19  C   UNK N   1      28.706  18.263   6.085  0.00  0.00     0.040 A 
ENDROOT
BRANCH  10  20
HETATM   20  O   UNK N   1      33.905  17.029   9.707  0.00  0.00    -0.314 OA
BRANCH  20  21
HETATM   21  C   UNK N   1      34.314  15.781  10.085  0.00  0.00     0.255 C 
HETATM   22  O   UNK N   1      33.715  15.156  10.949  0.00  0.00    -0.266 OA
HETATM   23  C   UNK N   1      35.496  15.159   9.428  0.00  0.00     0.126 C 
ENDBRANCH  20  21
ENDBRANCH  10  20
BRANCH  18  24
HETATM   24  O   UNK N   1      28.487  18.163   8.501  0.00  0.00    -0.353 OA
HETATM   25  C   UNK N   1      28.039  17.224   9.404  0.00  0.00     0.210 C 
ENDBRANCH  18  24
TORSDOF 3
ENDMDL
