MODEL 1
REMARK VINA RESULT:      -5.2      0.000      0.000
REMARK  1 active torsions:
REMARK  status: ('A' for Active; 'I' for Inactive)
REMARK    1  A    between atoms: N_1  and  C_3 
ROOT
HETATM    1  N   UNK N   1      35.176  19.152   8.530  0.00  0.00    -0.195 NA
HETATM    2  C   UNK N   1      33.919  17.040   7.571  0.00  0.00     0.118 C 
HETATM    3  C   UNK N   1      32.432  17.242   7.961  0.00  0.00     0.046 C 
HETATM    4  C   UNK N   1      34.518  15.786   8.234  0.00  0.00     0.046 C 
HETATM    5  C   UNK N   1      31.717  15.918   8.231  0.00  0.00     0.004 C 
HETATM    6  C   UNK N   1      33.870  15.487   9.580  0.00  0.00     0.004 C 
HETATM    7  C   UNK N   1      32.383  15.149   9.386  0.00  0.00     0.000 C 
HETATM    8  C   UNK N   1      34.631  18.231   8.090  0.00  0.00     0.090 C 
ENDROOT
BRANCH   2   9
HETATM    9  N   UNK N   1      34.111  16.879   6.108  0.00  0.00    -0.392 N 
HETATM   10  C   UNK N   1      33.301  17.678   5.172  0.00  0.00     0.118 C 
HETATM   11  C   UNK N   1      32.084  16.895   4.700  0.00  0.00     0.019 C 
HETATM   12  C   UNK N   1      32.549  15.596   4.057  0.00  0.00     0.003 C 
HETATM   13  C   UNK N   1      33.314  14.770   5.085  0.00  0.00     0.019 C 
HETATM   14  C   UNK N   1      34.521  15.564   5.592  0.00  0.00     0.118 C 
ENDBRANCH   2   9
TORSDOF 1
ENDMDL
MODEL 2
REMARK VINA RESULT:      -4.9     14.966     16.810
REMARK  1 active torsions:
REMARK  status: ('A' for Active; 'I' for Inactive)
REMARK    1  A    between atoms: N_1  and  C_3 
ROOT
HETATM    1  N   UNK N   1      26.673  24.096  -2.894  0.00  0.00    -0.195 NA
HETATM    2  C   UNK N   1      27.189  24.404  -5.463  0.00  0.00     0.118 C 
HETATM    3  C   UNK N   1      26.242  23.411  -6.187  0.00  0.00     0.046 C 
HETATM    4  C   UNK N   1      28.670  24.054  -5.698  0.00  0.00     0.046 C 
HETATM    5  C   UNK N   1      26.860  22.850  -7.468  0.00  0.00     0.004 C 
HETATM    6  C   UNK N   1      28.880  22.559  -5.895  0.00  0.00     0.004 C 
HETATM    7  C   UNK N   1      28.165  22.090  -7.172  0.00  0.00     0.000 C 
HETATM    8  C   UNK N   1      26.894  24.251  -4.019  0.00  0.00     0.090 C 
ENDROOT
BRANCH   2   9
HETATM    9  N   UNK N   1      27.006  25.805  -5.917  0.00  0.00    -0.392 N 
HETATM   10  C   UNK N   1      27.689  26.899  -5.205  0.00  0.00     0.118 C 
HETATM   11  C   UNK N   1      26.769  27.531  -4.169  0.00  0.00     0.019 C 
HETATM   12  C   UNK N   1      25.507  28.026  -4.863  0.00  0.00     0.003 C 
HETATM   13  C   UNK N   1      24.797  26.848  -5.518  0.00  0.00     0.019 C 
HETATM   14  C   UNK N   1      25.727  26.184  -6.536  0.00  0.00     0.118 C 
ENDBRANCH   2   9
TORSDOF 1
ENDMDL
MODEL 3
REMARK VINA RESULT:      -4.9     14.245     16.620
REMARK  1 active torsions:
REMARK  status: ('A' for Active; 'I' for Inactive)
REMARK    1  A    between atoms: N_1  and  C_3 
ROOT
HETATM    1  N   UNK N   1      25.378  23.817  -7.035  0.00  0.00    -0.195 NA
HETATM    2  C   UNK N   1      26.858  25.380  -5.509  0.00  0.00     0.118 C 
HETATM    3  C   UNK N   1      26.253  25.247  -4.088  0.00  0.00     0.046 C 
HETATM    4  C   UNK N   1      26.743  26.818  -6.046  0.00  0.00     0.046 C 
HETATM    5  C   UNK N   1      26.378  26.540  -3.280  0.00  0.00     0.004 C 
HETATM    6  C   UNK N   1      25.520  27.539  -5.496  0.00  0.00     0.004 C 
HETATM    7  C   UNK N   1      25.646  27.703  -3.972  0.00  0.00     0.000 C 
HETATM    8  C   UNK N   1      26.044  24.491  -6.371  0.00  0.00     0.090 C 
ENDROOT
BRANCH   2   9
HETATM    9  N   UNK N   1      28.298  25.023  -5.555  0.00  0.00    -0.392 N 
HETATM   10  C   UNK N   1      28.753  23.744  -4.982  0.00  0.00     0.118 C 
HETATM   11  C   UNK N   1      29.251  23.934  -3.556  0.00  0.00     0.019 C 
HETATM   12  C   UNK N   1      30.367  24.968  -3.554  0.00  0.00     0.003 C 
HETATM   13  C   UNK N   1      29.829  26.293  -4.081  0.00  0.00     0.019 C 
HETATM   14  C   UNK N   1      29.294  26.104  -5.504  0.00  0.00     0.118 C 
ENDBRANCH   2   9
TORSDOF 1
ENDMDL
MODEL 4
REMARK VINA RESULT:      -4.9      6.282      8.183
REMARK  1 active torsions:
REMARK  status: ('A' for Active; 'I' for Inactive)
REMARK    1  A    between atoms: N_1  and  C_3 
ROOT
HETATM    1  N   UNK N   1      37.437  15.035  16.008  0.00  0.00    -0.195 NA
HETATM    2  C   UNK N   1      36.419  13.118  14.508  0.00  0.00     0.118 C 
HETATM    3  C   UNK N   1      34.904  13.107  14.839  0.00  0.00     0.046 C 
HETATM    4  C   UNK N   1      37.099  11.793  14.900  0.00  0.00     0.046 C 
HETATM    5  C   UNK N   1      34.301  11.705  14.748  0.00  0.00     0.004 C 
HETATM    6  C   UNK N   1      36.423  11.135  16.094  0.00  0.00     0.004 C 
HETATM    7  C   UNK N   1      34.982  10.739  15.733  0.00  0.00     0.000 C 
HETATM    8  C   UNK N   1      36.997  14.204  15.333  0.00  0.00     0.090 C 
ENDROOT
BRANCH   2   9
HETATM    9  N   UNK N   1      36.689  13.323  13.062  0.00  0.00    -0.392 N 
HETATM   10  C   UNK N   1      36.064  14.453  12.354  0.00  0.00     0.118 C 
HETATM   11  C   UNK N   1      34.787  14.015  11.650  0.00  0.00     0.019 C 
HETATM   12  C   UNK N   1      35.114  12.877  10.694  0.00  0.00     0.003 C 
HETATM   13  C   UNK N   1      35.685  11.704  11.481  0.00  0.00     0.019 C 
HETATM   14  C   UNK N   1      36.951  12.145  12.221  0.00  0.00     0.118 C 
ENDBRANCH   2   9
TORSDOF 1
ENDMDL
MODEL 5
REMARK VINA RESULT:      -4.9     16.057     17.830
REMARK  1 active torsions:
REMARK  status: ('A' for Active; 'I' for Inactive)
REMARK    1  A    between atoms: N_1  and  C_3 
ROOT
HETATM    1  N   UNK N   1      28.134  29.550  -1.407  0.00  0.00    -0.195 NA
HETATM    2  C   UNK N   1      27.367  28.721  -3.791  0.00  0.00     0.118 C 
HETATM    3  C   UNK N   1      28.636  28.100  -4.431  0.00  0.00     0.046 C 
HETATM    4  C   UNK N   1      26.868  29.943  -4.584  0.00  0.00     0.046 C 
HETATM    5  C   UNK N   1      28.672  28.286  -5.948  0.00  0.00     0.004 C 
HETATM    6  C   UNK N   1      28.007  30.682  -5.273  0.00  0.00     0.004 C 
HETATM    7  C   UNK N   1      28.661  29.777  -6.329  0.00  0.00     0.000 C 
HETATM    8  C   UNK N   1      27.784  29.174  -2.443  0.00  0.00     0.090 C 
ENDROOT
BRANCH   2   9
HETATM    9  N   UNK N   1      26.233  27.766  -3.724  0.00  0.00    -0.392 N 
HETATM   10  C   UNK N   1      26.468  26.383  -3.274  0.00  0.00     0.118 C 
HETATM   11  C   UNK N   1      26.668  25.451  -4.462  0.00  0.00     0.019 C 
HETATM   12  C   UNK N   1      25.449  25.538  -5.370  0.00  0.00     0.003 C 
HETATM   13  C   UNK N   1      25.293  26.968  -5.871  0.00  0.00     0.019 C 
HETATM   14  C   UNK N   1      25.127  27.918  -4.681  0.00  0.00     0.118 C 
ENDBRANCH   2   9
TORSDOF 1
ENDMDL
MODEL 6
REMARK VINA RESULT:      -4.9      1.858      4.707
REMARK  1 active torsions:
REMARK  status: ('A' for Active; 'I' for Inactive)
REMARK    1  A    between atoms: N_1  and  C_3 
ROOT
HETATM    1  N   UNK N   1      31.093  12.956   5.334  0.00  0.00    -0.195 NA
HETATM    2  C   UNK N   1      32.238  15.329   5.468  0.00  0.00     0.118 C 
HETATM    3  C   UNK N   1      31.140  16.333   5.031  0.00  0.00     0.046 C 
HETATM    4  C   UNK N   1      33.436  15.336   4.501  0.00  0.00     0.046 C 
HETATM    5  C   UNK N   1      31.719  17.543   4.298  0.00  0.00     0.004 C 
HETATM    6  C   UNK N   1      33.021  15.683   3.078  0.00  0.00     0.004 C 
HETATM    7  C   UNK N   1      32.471  17.118   3.024  0.00  0.00     0.000 C 
HETATM    8  C   UNK N   1      31.599  13.993   5.413  0.00  0.00     0.090 C 
ENDROOT
BRANCH   2   9
HETATM    9  N   UNK N   1      32.780  15.624   6.818  0.00  0.00    -0.392 N 
HETATM   10  C   UNK N   1      31.860  15.966   7.917  0.00  0.00     0.118 C 
HETATM   11  C   UNK N   1      31.734  17.476   8.069  0.00  0.00     0.019 C 
HETATM   12  C   UNK N   1      33.117  18.068   8.302  0.00  0.00     0.003 C 
HETATM   13  C   UNK N   1      34.008  17.754   7.107  0.00  0.00     0.019 C 
HETATM   14  C   UNK N   1      34.113  16.238   6.923  0.00  0.00     0.118 C 
ENDBRANCH   2   9
TORSDOF 1
ENDMDL
MODEL 7
REMARK VINA RESULT:      -4.8      2.207      3.390
REMARK  1 active torsions:
REMARK  status: ('A' for Active; 'I' for Inactive)
REMARK    1  A    between atoms: N_1  and  C_3 
ROOT
HETATM    1  N   UNK N   1      32.659  13.301   7.875  0.00  0.00    -0.195 NA
HETATM    2  C   UNK N   1      32.477  15.639   6.667  0.00  0.00     0.118 C 
HETATM    3  C   UNK N   1      33.927  16.187   6.628  0.00  0.00     0.046 C 
HETATM    4  C   UNK N   1      31.549  16.538   7.504  0.00  0.00     0.046 C 
HETATM    5  C   UNK N   1      33.974  17.712   6.727  0.00  0.00     0.004 C 
HETATM    6  C   UNK N   1      32.298  17.243   8.627  0.00  0.00     0.004 C 
HETATM    7  C   UNK N   1      33.344  18.206   8.042  0.00  0.00     0.000 C 
HETATM    8  C   UNK N   1      32.572  14.316   7.328  0.00  0.00     0.090 C 
ENDROOT
BRANCH   2   9
HETATM    9  N   UNK N   1      31.866  15.537   5.318  0.00  0.00    -0.392 N 
HETATM   10  C   UNK N   1      32.623  14.916   4.217  0.00  0.00     0.118 C 
HETATM   11  C   UNK N   1      33.334  15.973   3.383  0.00  0.00     0.019 C 
HETATM   12  C   UNK N   1      32.304  16.963   2.856  0.00  0.00     0.003 C 
HETATM   13  C   UNK N   1      31.603  17.635   4.030  0.00  0.00     0.019 C 
HETATM   14  C   UNK N   1      30.914  16.576   4.896  0.00  0.00     0.118 C 
ENDBRANCH   2   9
TORSDOF 1
ENDMDL
MODEL 8
REMARK VINA RESULT:      -4.8      7.823      9.870
REMARK  1 active torsions:
REMARK  status: ('A' for Active; 'I' for Inactive)
REMARK    1  A    between atoms: N_1  and  C_3 
ROOT
HETATM    1  N   UNK N   1      37.949  10.820  14.687  0.00  0.00    -0.195 NA
HETATM    2  C   UNK N   1      35.642  11.762  15.552  0.00  0.00     0.118 C 
HETATM    3  C   UNK N   1      35.977  13.140  16.179  0.00  0.00     0.046 C 
HETATM    4  C   UNK N   1      35.087  10.778  16.599  0.00  0.00     0.046 C 
HETATM    5  C   UNK N   1      35.069  13.476  17.362  0.00  0.00     0.004 C 
HETATM    6  C   UNK N   1      35.649  11.045  17.989  0.00  0.00     0.004 C 
HETATM    7  C   UNK N   1      35.200  12.430  18.483  0.00  0.00     0.000 C 
HETATM    8  C   UNK N   1      36.930  11.233  15.047  0.00  0.00     0.090 C 
ENDROOT
BRANCH   2   9
HETATM    9  N   UNK N   1      34.624  11.855  14.475  0.00  0.00    -0.392 N 
HETATM   10  C   UNK N   1      33.762  10.697  14.182  0.00  0.00     0.118 C 
HETATM   11  C   UNK N   1      34.329   9.874  13.034  0.00  0.00     0.019 C 
HETATM   12  C   UNK N   1      34.486  10.769  11.812  0.00  0.00     0.003 C 
HETATM   13  C   UNK N   1      35.446  11.906  12.140  0.00  0.00     0.019 C 
HETATM   14  C   UNK N   1      34.901  12.719  13.318  0.00  0.00     0.118 C 
ENDBRANCH   2   9
TORSDOF 1
ENDMDL
MODEL 9
REMARK VINA RESULT:      -4.7      2.201      3.517
REMARK  1 active torsions:
REMARK  status: ('A' for Active; 'I' for Inactive)
REMARK    1  A    between atoms: N_1  and  C_3 
ROOT
HETATM    1  N   UNK N   1      30.993  13.964   6.014  0.00  0.00    -0.195 NA
HETATM    2  C   UNK N   1      31.424  16.534   6.422  0.00  0.00     0.118 C 
HETATM    3  C   UNK N   1      31.939  16.631   7.881  0.00  0.00     0.046 C 
HETATM    4  C   UNK N   1      30.088  17.278   6.237  0.00  0.00     0.046 C 
HETATM    5  C   UNK N   1      31.512  17.932   8.562  0.00  0.00     0.004 C 
HETATM    6  C   UNK N   1      29.253  17.277   7.509  0.00  0.00     0.004 C 
HETATM    7  C   UNK N   1      29.979  18.056   8.618  0.00  0.00     0.000 C 
HETATM    8  C   UNK N   1      31.196  15.091   6.177  0.00  0.00     0.090 C 
ENDROOT
BRANCH   2   9
HETATM    9  N   UNK N   1      32.373  17.115   5.439  0.00  0.00    -0.392 N 
HETATM   10  C   UNK N   1      31.862  17.723   4.199  0.00  0.00     0.118 C 
HETATM   11  C   UNK N   1      31.898  16.726   3.049  0.00  0.00     0.019 C 
HETATM   12  C   UNK N   1      33.324  16.226   2.871  0.00  0.00     0.003 C 
HETATM   13  C   UNK N   1      33.781  15.537   4.152  0.00  0.00     0.019 C 
HETATM   14  C   UNK N   1      33.715  16.524   5.321  0.00  0.00     0.118 C 
ENDBRANCH   2   9
TORSDOF 1
ENDMDL
