MODEL 1
REMARK VINA RESULT:      -7.4      0.000      0.000
REMARK  1 active torsions:
REMARK  status: ('A' for Active; 'I' for Inactive)
REMARK    1  A    between atoms: C_8  and  O_1 
ROOT
HETATM    1  O   UNK N   1      35.417   9.853  20.882  0.00  0.00    -0.289 OA
HETATM    2  C   UNK N   1      36.443  13.065  13.863  0.00  0.00     0.001 C 
HETATM    3  C   UNK N   1      36.515  11.953  12.821  0.00  0.00    -0.014 C 
HETATM    4  C   UNK N   1      35.801  12.563  15.165  0.00  0.00    -0.004 C 
HETATM    5  C   UNK N   1      36.627  11.365  15.729  0.00  0.00     0.006 C 
HETATM    6  C   UNK N   1      37.434  10.843  13.336  0.00  0.00     0.012 C 
HETATM    7  C   UNK N   1      36.986  12.710  11.585  0.00  0.00     0.126 C 
HETATM    8  C   UNK N   1      36.867  10.277  14.649  0.00  0.00     0.007 C 
HETATM    9  C   UNK N   1      35.719  14.176  13.122  0.00  0.00     0.008 C 
HETATM   10  C   UNK N   1      35.892  10.765  16.961  0.00  0.00     0.001 C 
HETATM   11  C   UNK N   1      35.744  13.667  16.226  0.00  0.00     0.010 C 
HETATM   12  C   UNK N   1      36.186  14.022  11.664  0.00  0.00     0.033 C 
HETATM   13  C   UNK N   1      35.140  11.345  12.489  0.00  0.00     0.018 C 
HETATM   14  C   UNK N   1      35.018  13.187  17.484  0.00  0.00     0.036 C 
HETATM   15  C   UNK N   1      35.544  11.863  17.971  0.00  0.00    -0.064 C 
HETATM   16  C   UNK N   1      34.567  10.138  16.522  0.00  0.00     0.025 C 
HETATM   17  C   UNK N   1      36.697   9.645  17.600  0.00  0.00    -0.009 C 
HETATM   18  C   UNK N   1      35.350  11.545  19.262  0.00  0.00     0.058 C 
HETATM   19  C   UNK N   1      36.541   9.332  18.894  0.00  0.00     0.052 C 
HETATM   20  C   UNK N   1      35.724  10.205  19.757  0.00  0.00     0.171 C 
ENDROOT
BRANCH   7  21
HETATM   21  O   UNK N   1      38.347  13.017  11.675  0.00  0.00    -0.395 OA
HETATM   22  H   UNK N   1      39.314  13.033  11.597  0.00  0.00     0.210 HD
ENDBRANCH   7  21
TORSDOF 1
ENDMDL
MODEL 2
REMARK VINA RESULT:      -7.4     26.143     28.118
REMARK  1 active torsions:
REMARK  status: ('A' for Active; 'I' for Inactive)
REMARK    1  A    between atoms: C_8  and  O_1 
ROOT
HETATM    1  O   UNK N   1      25.525  20.898 -10.052  0.00  0.00    -0.289 OA
HETATM    2  C   UNK N   1      26.422  27.229  -5.609  0.00  0.00     0.001 C 
HETATM    3  C   UNK N   1      26.976  26.801  -4.252  0.00  0.00    -0.014 C 
HETATM    4  C   UNK N   1      26.645  26.137  -6.666  0.00  0.00    -0.004 C 
HETATM    5  C   UNK N   1      25.954  24.815  -6.208  0.00  0.00     0.006 C 
HETATM    6  C   UNK N   1      26.199  25.580  -3.758  0.00  0.00     0.012 C 
HETATM    7  C   UNK N   1      26.828  28.080  -3.436  0.00  0.00     0.126 C 
HETATM    8  C   UNK N   1      26.363  24.426  -4.763  0.00  0.00     0.007 C 
HETATM    9  C   UNK N   1      27.104  28.566  -5.845  0.00  0.00     0.008 C 
HETATM   10  C   UNK N   1      26.308  23.675  -7.205  0.00  0.00     0.001 C 
HETATM   11  C   UNK N   1      26.073  26.549  -8.027  0.00  0.00     0.010 C 
HETATM   12  C   UNK N   1      27.240  29.173  -4.438  0.00  0.00     0.033 C 
HETATM   13  C   UNK N   1      28.475  26.454  -4.293  0.00  0.00     0.018 C 
HETATM   14  C   UNK N   1      26.384  25.498  -9.096  0.00  0.00     0.036 C 
HETATM   15  C   UNK N   1      26.020  24.109  -8.646  0.00  0.00    -0.064 C 
HETATM   16  C   UNK N   1      27.805  23.366  -7.132  0.00  0.00     0.025 C 
HETATM   17  C   UNK N   1      25.592  22.382  -6.852  0.00  0.00    -0.009 C 
HETATM   18  C   UNK N   1      25.800  23.179  -9.592  0.00  0.00     0.058 C 
HETATM   19  C   UNK N   1      25.335  21.455  -7.785  0.00  0.00     0.052 C 
HETATM   20  C   UNK N   1      25.575  21.772  -9.205  0.00  0.00     0.171 C 
ENDROOT
BRANCH   7  21
HETATM   21  O   UNK N   1      25.495  28.291  -3.074  0.00  0.00    -0.395 OA
HETATM   22  H   UNK N   1      24.547  28.500  -3.057  0.00  0.00     0.210 HD
ENDBRANCH   7  21
TORSDOF 1
ENDMDL
MODEL 3
REMARK VINA RESULT:      -7.2     21.181     24.460
REMARK  1 active torsions:
REMARK  status: ('A' for Active; 'I' for Inactive)
REMARK    1  A    between atoms: C_8  and  O_1 
ROOT
HETATM    1  O   UNK N   1      25.180  25.028  -6.153  0.00  0.00    -0.289 OA
HETATM    2  C   UNK N   1      31.583  21.261  -3.821  0.00  0.00     0.001 C 
HETATM    3  C   UNK N   1      32.371  20.825  -5.053  0.00  0.00    -0.014 C 
HETATM    4  C   UNK N   1      30.582  22.373  -4.170  0.00  0.00    -0.004 C 
HETATM    5  C   UNK N   1      29.600  21.868  -5.272  0.00  0.00     0.006 C 
HETATM    6  C   UNK N   1      31.408  20.213  -6.072  0.00  0.00     0.012 C 
HETATM    7  C   UNK N   1      33.409  19.888  -4.446  0.00  0.00     0.126 C 
HETATM    8  C   UNK N   1      30.360  21.261  -6.481  0.00  0.00     0.007 C 
HETATM    9  C   UNK N   1      32.677  21.607  -2.825  0.00  0.00     0.008 C 
HETATM   10  C   UNK N   1      28.687  23.042  -5.728  0.00  0.00     0.001 C 
HETATM   11  C   UNK N   1      29.771  22.803  -2.943  0.00  0.00     0.010 C 
HETATM   12  C   UNK N   1      33.809  20.616  -3.150  0.00  0.00     0.033 C 
HETATM   13  C   UNK N   1      33.134  21.982  -5.723  0.00  0.00     0.018 C 
HETATM   14  C   UNK N   1      28.845  23.975  -3.277  0.00  0.00     0.036 C 
HETATM   15  C   UNK N   1      28.034  23.720  -4.519  0.00  0.00    -0.064 C 
HETATM   16  C   UNK N   1      29.527  24.111  -6.430  0.00  0.00     0.025 C 
HETATM   17  C   UNK N   1      27.654  22.583  -6.743  0.00  0.00    -0.009 C 
HETATM   18  C   UNK N   1      26.892  24.410  -4.678  0.00  0.00     0.058 C 
HETATM   19  C   UNK N   1      26.494  23.238  -6.896  0.00  0.00     0.052 C 
HETATM   20  C   UNK N   1      26.131  24.298  -5.938  0.00  0.00     0.171 C 
ENDROOT
BRANCH   7  21
HETATM   21  O   UNK N   1      32.835  18.660  -4.105  0.00  0.00    -0.395 OA
HETATM   22  H   UNK N   1      32.635  17.719  -3.978  0.00  0.00     0.210 HD
ENDBRANCH   7  21
TORSDOF 1
ENDMDL
MODEL 4
REMARK VINA RESULT:      -7.0     21.124     23.883
REMARK  1 active torsions:
REMARK  status: ('A' for Active; 'I' for Inactive)
REMARK    1  A    between atoms: C_8  and  O_1 
ROOT
HETATM    1  O   UNK N   1      35.251  19.198  -4.529  0.00  0.00    -0.289 OA
HETATM    2  C   UNK N   1      28.458  22.989  -4.881  0.00  0.00     0.001 C 
HETATM    3  C   UNK N   1      28.560  24.258  -4.039  0.00  0.00    -0.014 C 
HETATM    4  C   UNK N   1      29.851  22.442  -5.229  0.00  0.00    -0.004 C 
HETATM    5  C   UNK N   1      30.639  22.141  -3.916  0.00  0.00     0.006 C 
HETATM    6  C   UNK N   1      29.219  23.917  -2.701  0.00  0.00     0.012 C 
HETATM    7  C   UNK N   1      27.109  24.718  -3.987  0.00  0.00     0.126 C 
HETATM    8  C   UNK N   1      30.629  23.356  -2.952  0.00  0.00     0.007 C 
HETATM    9  C   UNK N   1      27.579  23.424  -6.042  0.00  0.00     0.008 C 
HETATM   10  C   UNK N   1      32.096  21.731  -4.272  0.00  0.00     0.001 C 
HETATM   11  C   UNK N   1      29.758  21.156  -6.057  0.00  0.00     0.010 C 
HETATM   12  C   UNK N   1      26.614  24.449  -5.420  0.00  0.00     0.033 C 
HETATM   13  C   UNK N   1      29.371  25.374  -4.723  0.00  0.00     0.018 C 
HETATM   14  C   UNK N   1      31.146  20.671  -6.480  0.00  0.00     0.036 C 
HETATM   15  C   UNK N   1      32.104  20.614  -5.320  0.00  0.00    -0.064 C 
HETATM   16  C   UNK N   1      32.834  22.919  -4.892  0.00  0.00     0.025 C 
HETATM   17  C   UNK N   1      32.885  21.346  -3.031  0.00  0.00    -0.009 C 
HETATM   18  C   UNK N   1      33.171  19.804  -5.424  0.00  0.00     0.058 C 
HETATM   19  C   UNK N   1      33.934  20.515  -3.108  0.00  0.00     0.052 C 
HETATM   20  C   UNK N   1      34.210  19.813  -4.375  0.00  0.00     0.171 C 
ENDROOT
BRANCH   7  21
HETATM   21  O   UNK N   1      26.364  23.928  -3.107  0.00  0.00    -0.395 OA
HETATM   22  H   UNK N   1      25.680  23.394  -2.672  0.00  0.00     0.210 HD
ENDBRANCH   7  21
TORSDOF 1
ENDMDL
MODEL 5
REMARK VINA RESULT:      -6.9      6.458     11.377
REMARK  1 active torsions:
REMARK  status: ('A' for Active; 'I' for Inactive)
REMARK    1  A    between atoms: C_8  and  O_1 
ROOT
HETATM    1  O   UNK N   1      31.998  16.909   2.141  0.00  0.00    -0.289 OA
HETATM    2  C   UNK N   1      35.869  14.856   8.577  0.00  0.00     0.001 C 
HETATM    3  C   UNK N   1      35.096  15.354   9.795  0.00  0.00    -0.014 C 
HETATM    4  C   UNK N   1      34.973  14.815   7.331  0.00  0.00    -0.004 C 
HETATM    5  C   UNK N   1      34.404  16.240   7.046  0.00  0.00     0.006 C 
HETATM    6  C   UNK N   1      34.657  16.800   9.551  0.00  0.00     0.012 C 
HETATM    7  C   UNK N   1      36.099  15.127  10.919  0.00  0.00     0.126 C 
HETATM    8  C   UNK N   1      33.750  16.858   8.310  0.00  0.00     0.007 C 
HETATM    9  C   UNK N   1      36.441  13.533   9.059  0.00  0.00     0.008 C 
HETATM   10  C   UNK N   1      33.382  16.164   5.878  0.00  0.00     0.001 C 
HETATM   11  C   UNK N   1      35.747  14.335   6.098  0.00  0.00     0.010 C 
HETATM   12  C   UNK N   1      36.715  13.764  10.556  0.00  0.00     0.033 C 
HETATM   13  C   UNK N   1      33.852  14.504  10.111  0.00  0.00     0.018 C 
HETATM   14  C   UNK N   1      34.824  14.206   4.884  0.00  0.00     0.036 C 
HETATM   15  C   UNK N   1      33.991  15.441   4.672  0.00  0.00    -0.064 C 
HETATM   16  C   UNK N   1      32.161  15.348   6.307  0.00  0.00     0.025 C 
HETATM   17  C   UNK N   1      32.859  17.542   5.504  0.00  0.00    -0.009 C 
HETATM   18  C   UNK N   1      33.499  15.665   3.441  0.00  0.00     0.058 C 
HETATM   19  C   UNK N   1      32.393  17.795   4.273  0.00  0.00     0.052 C 
HETATM   20  C   UNK N   1      32.566  16.786   3.212  0.00  0.00     0.171 C 
ENDROOT
BRANCH   7  21
HETATM   21  O   UNK N   1      37.111  16.090  10.890  0.00  0.00    -0.395 OA
HETATM   22  H   UNK N   1      37.675  16.866  11.039  0.00  0.00     0.210 HD
ENDBRANCH   7  21
TORSDOF 1
ENDMDL
MODEL 6
REMARK VINA RESULT:      -6.9      6.639      9.952
REMARK  1 active torsions:
REMARK  status: ('A' for Active; 'I' for Inactive)
REMARK    1  A    between atoms: C_8  and  O_1 
ROOT
HETATM    1  O   UNK N   1      36.037  15.556  12.208  0.00  0.00    -0.289 OA
HETATM    2  C   UNK N   1      33.390  16.566   4.955  0.00  0.00     0.001 C 
HETATM    3  C   UNK N   1      32.868  15.230   4.433  0.00  0.00    -0.014 C 
HETATM    4  C   UNK N   1      33.499  16.557   6.487  0.00  0.00    -0.004 C 
HETATM    5  C   UNK N   1      34.452  15.407   6.939  0.00  0.00     0.006 C 
HETATM    6  C   UNK N   1      33.879  14.133   4.771  0.00  0.00     0.012 C 
HETATM    7  C   UNK N   1      32.658  15.531   2.954  0.00  0.00     0.126 C 
HETATM    8  C   UNK N   1      34.056  14.051   6.297  0.00  0.00     0.007 C 
HETATM    9  C   UNK N   1      32.428  17.568   4.339  0.00  0.00     0.008 C 
HETATM   10  C   UNK N   1      34.441  15.306   8.490  0.00  0.00     0.001 C 
HETATM   11  C   UNK N   1      34.042  17.887   7.019  0.00  0.00     0.010 C 
HETATM   12  C   UNK N   1      32.064  16.951   2.977  0.00  0.00     0.033 C 
HETATM   13  C   UNK N   1      31.500  14.844   5.021  0.00  0.00     0.018 C 
HETATM   14  C   UNK N   1      34.057  17.904   8.550  0.00  0.00     0.036 C 
HETATM   15  C   UNK N   1      34.709  16.675   9.123  0.00  0.00    -0.064 C 
HETATM   16  C   UNK N   1      33.058  14.863   8.973  0.00  0.00     0.025 C 
HETATM   17  C   UNK N   1      35.419  14.254   8.988  0.00  0.00    -0.009 C 
HETATM   18  C   UNK N   1      35.202  16.748  10.372  0.00  0.00     0.058 C 
HETATM   19  C   UNK N   1      35.946  14.325  10.218  0.00  0.00     0.052 C 
HETATM   20  C   UNK N   1      35.728  15.536  11.030  0.00  0.00     0.171 C 
ENDROOT
BRANCH   7  21
HETATM   21  O   UNK N   1      33.878  15.574   2.274  0.00  0.00    -0.395 OA
HETATM   22  H   UNK N   1      34.682  15.842   1.801  0.00  0.00     0.210 HD
ENDBRANCH   7  21
TORSDOF 1
ENDMDL
MODEL 7
REMARK VINA RESULT:      -6.9     24.849     26.648
REMARK  1 active torsions:
REMARK  status: ('A' for Active; 'I' for Inactive)
REMARK    1  A    between atoms: C_8  and  O_1 
ROOT
HETATM    1  O   UNK N   1      29.750  19.250  -8.176  0.00  0.00    -0.289 OA
HETATM    2  C   UNK N   1      26.211  25.501  -5.173  0.00  0.00     0.001 C 
HETATM    3  C   UNK N   1      27.274  26.461  -4.646  0.00  0.00    -0.014 C 
HETATM    4  C   UNK N   1      26.816  24.494  -6.162  0.00  0.00    -0.004 C 
HETATM    5  C   UNK N   1      27.953  23.687  -5.460  0.00  0.00     0.006 C 
HETATM    6  C   UNK N   1      28.313  25.669  -3.850  0.00  0.00     0.012 C 
HETATM    7  C   UNK N   1      26.433  27.463  -3.864  0.00  0.00     0.126 C 
HETATM    8  C   UNK N   1      28.975  24.625  -4.766  0.00  0.00     0.007 C 
HETATM    9  C   UNK N   1      25.145  26.440  -5.711  0.00  0.00     0.008 C 
HETATM   10  C   UNK N   1      28.660  22.777  -6.504  0.00  0.00     0.001 C 
HETATM   11  C   UNK N   1      25.759  23.512  -6.680  0.00  0.00     0.010 C 
HETATM   12  C   UNK N   1      25.204  27.656  -4.769  0.00  0.00     0.033 C 
HETATM   13  C   UNK N   1      27.992  27.239  -5.763  0.00  0.00     0.018 C 
HETATM   14  C   UNK N   1      26.348  22.574  -7.736  0.00  0.00     0.036 C 
HETATM   15  C   UNK N   1      27.635  21.942  -7.276  0.00  0.00    -0.064 C 
HETATM   16  C   UNK N   1      29.390  23.640  -7.536  0.00  0.00     0.025 C 
HETATM   17  C   UNK N   1      29.724  21.907  -5.855  0.00  0.00    -0.009 C 
HETATM   18  C   UNK N   1      28.015  20.792  -7.861  0.00  0.00     0.058 C 
HETATM   19  C   UNK N   1      30.095  20.742  -6.405  0.00  0.00     0.052 C 
HETATM   20  C   UNK N   1      29.332  20.204  -7.545  0.00  0.00     0.171 C 
ENDROOT
BRANCH   7  21
HETATM   21  O   UNK N   1      26.007  26.918  -2.650  0.00  0.00    -0.395 OA
HETATM   22  H   UNK N   1      25.937  26.451  -1.801  0.00  0.00     0.210 HD
ENDBRANCH   7  21
TORSDOF 1
ENDMDL
MODEL 8
REMARK VINA RESULT:      -6.5     10.083     12.640
REMARK  1 active torsions:
REMARK  status: ('A' for Active; 'I' for Inactive)
REMARK    1  A    between atoms: C_8  and  O_1 
ROOT
HETATM    1  O   UNK N   1      25.196  15.393   4.721  0.00  0.00    -0.289 OA
HETATM    2  C   UNK N   1      32.256  16.977   7.597  0.00  0.00     0.001 C 
HETATM    3  C   UNK N   1      33.310  16.508   6.597  0.00  0.00    -0.014 C 
HETATM    4  C   UNK N   1      30.882  17.118   6.927  0.00  0.00    -0.004 C 
HETATM    5  C   UNK N   1      30.453  15.749   6.314  0.00  0.00     0.006 C 
HETATM    6  C   UNK N   1      32.942  15.107   6.104  0.00  0.00     0.012 C 
HETATM    7  C   UNK N   1      34.592  16.629   7.412  0.00  0.00     0.126 C 
HETATM    8  C   UNK N   1      31.567  15.151   5.415  0.00  0.00     0.007 C 
HETATM    9  C   UNK N   1      32.876  18.239   8.173  0.00  0.00     0.008 C 
HETATM   10  C   UNK N   1      29.135  15.933   5.510  0.00  0.00     0.001 C 
HETATM   11  C   UNK N   1      29.813  17.569   7.929  0.00  0.00     0.010 C 
HETATM   12  C   UNK N   1      34.387  17.949   8.176  0.00  0.00     0.033 C 
HETATM   13  C   UNK N   1      33.449  17.442   5.382  0.00  0.00     0.018 C 
HETATM   14  C   UNK N   1      28.469  17.800   7.234  0.00  0.00     0.036 C 
HETATM   15  C   UNK N   1      28.075  16.638   6.362  0.00  0.00    -0.064 C 
HETATM   16  C   UNK N   1      29.388  16.829   4.295  0.00  0.00     0.025 C 
HETATM   17  C   UNK N   1      28.628  14.610   4.960  0.00  0.00    -0.009 C 
HETATM   18  C   UNK N   1      26.772  16.484   6.068  0.00  0.00     0.058 C 
HETATM   19  C   UNK N   1      27.328  14.425   4.689  0.00  0.00     0.052 C 
HETATM   20  C   UNK N   1      26.350  15.444   5.109  0.00  0.00     0.171 C 
ENDROOT
BRANCH   7  21
HETATM   21  O   UNK N   1      34.693  15.591   8.343  0.00  0.00    -0.395 OA
HETATM   22  H   UNK N   1      34.521  14.876   8.976  0.00  0.00     0.210 HD
ENDBRANCH   7  21
TORSDOF 1
ENDMDL
MODEL 9
REMARK VINA RESULT:      -6.2      1.985      3.508
REMARK  1 active torsions:
REMARK  status: ('A' for Active; 'I' for Inactive)
REMARK    1  A    between atoms: C_8  and  O_1 
ROOT
HETATM    1  O   UNK N   1      36.702   7.687  17.902  0.00  0.00    -0.289 OA
HETATM    2  C   UNK N   1      34.835  12.263  11.885  0.00  0.00     0.001 C 
HETATM    3  C   UNK N   1      35.649  13.550  11.977  0.00  0.00    -0.014 C 
HETATM    4  C   UNK N   1      35.459  11.151  12.743  0.00  0.00    -0.004 C 
HETATM    5  C   UNK N   1      35.539  11.618  14.230  0.00  0.00     0.006 C 
HETATM    6  C   UNK N   1      35.609  14.065  13.418  0.00  0.00     0.012 C 
HETATM    7  C   UNK N   1      34.979  14.422  10.923  0.00  0.00     0.126 C 
HETATM    8  C   UNK N   1      36.217  13.008  14.357  0.00  0.00     0.007 C 
HETATM    9  C   UNK N   1      34.760  12.017  10.388  0.00  0.00     0.008 C 
HETATM   10  C   UNK N   1      36.305  10.554  15.065  0.00  0.00     0.001 C 
HETATM   11  C   UNK N   1      34.636   9.860  12.673  0.00  0.00     0.010 C 
HETATM   12  C   UNK N   1      34.715  13.429   9.777  0.00  0.00     0.033 C 
HETATM   13  C   UNK N   1      37.118  13.368  11.555  0.00  0.00     0.018 C 
HETATM   14  C   UNK N   1      35.314   8.731  13.453  0.00  0.00     0.036 C 
HETATM   15  C   UNK N   1      35.711   9.160  14.840  0.00  0.00    -0.064 C 
HETATM   16  C   UNK N   1      37.765  10.487  14.609  0.00  0.00     0.025 C 
HETATM   17  C   UNK N   1      36.340  10.921  16.539  0.00  0.00    -0.009 C 
HETATM   18  C   UNK N   1      35.882   8.204  15.769  0.00  0.00     0.058 C 
HETATM   19  C   UNK N   1      36.478   9.980  17.484  0.00  0.00     0.052 C 
HETATM   20  C   UNK N   1      36.402   8.557  17.105  0.00  0.00     0.171 C 
ENDROOT
BRANCH   7  21
HETATM   21  O   UNK N   1      33.749  14.904  11.380  0.00  0.00    -0.395 OA
HETATM   22  H   UNK N   1      32.816  15.148  11.488  0.00  0.00     0.210 HD
ENDBRANCH   7  21
TORSDOF 1
ENDMDL
