MODEL 1
REMARK VINA RESULT:      -6.0      0.000      0.000
REMARK  6 active torsions:
REMARK  status: ('A' for Active; 'I' for Inactive)
REMARK    1  A    between atoms: O_1  and  C_4 
REMARK    2  A    between atoms: O_1  and  C_15 
REMARK    3  A    between atoms: C_4  and  C_10 
REMARK    4  A    between atoms: C_5  and  C_9 
REMARK    5  A    between atoms: C_9  and  C_14 
REMARK    6  A    between atoms: C_15  and  C_18 
ROOT
HETATM    1  N   UNK N   1      26.652  23.900  -6.928  0.00  0.00     0.084 N 
HETATM    2  C   UNK N   1      27.596  25.650  -4.699  0.00  0.00     0.105 C 
HETATM    3  C   UNK N   1      28.065  25.851  -6.167  0.00  0.00     0.057 C 
HETATM    4  C   UNK N   1      26.171  25.074  -4.758  0.00  0.00     0.074 C 
HETATM    5  C   UNK N   1      27.978  24.538  -6.971  0.00  0.00     0.280 C 
HETATM    6  C   UNK N   1      26.102  23.771  -5.572  0.00  0.00     0.275 C 
HETATM    7  C   UNK N   1      25.706  24.575  -7.805  0.00  0.00     0.309 C 
ENDROOT
BRANCH   2   8
HETATM    8  O   UNK N   1      27.524  26.887  -4.056  0.00  0.00    -0.305 OA
BRANCH   8   9
HETATM    9  C   UNK N   1      26.431  27.360  -3.384  0.00  0.00     0.259 C 
HETATM   10  O   UNK N   1      26.093  26.877  -2.313  0.00  0.00    -0.265 OA
BRANCH   9  11
HETATM   11  C   UNK N   1      25.630  28.471  -3.973  0.00  0.00     0.106 C 
HETATM   12  C   UNK N   1      26.373  29.785  -3.804  0.00  0.00     0.015 C 
ENDBRANCH   9  11
ENDBRANCH   8   9
ENDBRANCH   2   8
BRANCH   2  13
HETATM   13  C   UNK N   1      28.492  24.702  -3.877  0.00  0.00    -0.023 A 
HETATM   14  C   UNK N   1      29.891  24.729  -4.040  0.00  0.00     0.010 A 
HETATM   15  C   UNK N   1      30.722  23.915  -3.266  0.00  0.00     0.001 A 
HETATM   16  C   UNK N   1      30.169  23.062  -2.311  0.00  0.00     0.000 A 
HETATM   17  C   UNK N   1      28.784  23.020  -2.134  0.00  0.00     0.001 A 
HETATM   18  C   UNK N   1      27.954  23.837  -2.907  0.00  0.00     0.010 A 
ENDBRANCH   2  13
BRANCH   3  19
HETATM   19  C   UNK N   1      27.257  26.969  -6.844  0.00  0.00     0.036 C 
BRANCH  19  20
HETATM   20  C   UNK N   1      28.132  28.021  -7.435  0.00  0.00    -0.036 C 
HETATM   21  C   UNK N   1      28.454  29.088  -6.711  0.00  0.00     0.007 C 
ENDBRANCH  19  20
ENDBRANCH   3  19
TORSDOF 6
ENDMDL
MODEL 2
REMARK VINA RESULT:      -5.4     13.022     14.739
REMARK  6 active torsions:
REMARK  status: ('A' for Active; 'I' for Inactive)
REMARK    1  A    between atoms: O_1  and  C_4 
REMARK    2  A    between atoms: O_1  and  C_15 
REMARK    3  A    between atoms: C_4  and  C_10 
REMARK    4  A    between atoms: C_5  and  C_9 
REMARK    5  A    between atoms: C_9  and  C_14 
REMARK    6  A    between atoms: C_15  and  C_18 
ROOT
HETATM    1  N   UNK N   1      27.647  16.945   4.411  0.00  0.00     0.084 N 
HETATM    2  C   UNK N   1      30.083  16.317   6.021  0.00  0.00     0.105 C 
HETATM    3  C   UNK N   1      29.328  17.669   6.152  0.00  0.00     0.057 C 
HETATM    4  C   UNK N   1      29.037  15.254   5.645  0.00  0.00     0.074 C 
HETATM    5  C   UNK N   1      28.557  18.012   4.861  0.00  0.00     0.280 C 
HETATM    6  C   UNK N   1      28.272  15.616   4.362  0.00  0.00     0.275 C 
HETATM    7  C   UNK N   1      26.428  16.912   5.206  0.00  0.00     0.309 C 
ENDROOT
BRANCH   2   8
HETATM    8  O   UNK N   1      30.622  15.960   7.258  0.00  0.00    -0.305 OA
BRANCH   8   9
HETATM    9  C   UNK N   1      31.895  16.243   7.670  0.00  0.00     0.259 C 
HETATM   10  O   UNK N   1      32.765  15.384   7.662  0.00  0.00    -0.265 OA
BRANCH   9  11
HETATM   11  C   UNK N   1      32.224  17.615   8.151  0.00  0.00     0.106 C 
HETATM   12  C   UNK N   1      33.603  18.016   7.655  0.00  0.00     0.015 C 
ENDBRANCH   9  11
ENDBRANCH   8   9
ENDBRANCH   2   8
BRANCH   2  13
HETATM   13  C   UNK N   1      31.204  16.323   4.961  0.00  0.00    -0.023 A 
HETATM   14  C   UNK N   1      31.636  15.116   4.378  0.00  0.00     0.010 A 
HETATM   15  C   UNK N   1      32.613  15.108   3.379  0.00  0.00     0.001 A 
HETATM   16  C   UNK N   1      33.173  16.308   2.943  0.00  0.00     0.000 A 
HETATM   17  C   UNK N   1      32.758  17.516   3.509  0.00  0.00     0.001 A 
HETATM   18  C   UNK N   1      31.779  17.523   4.506  0.00  0.00     0.010 A 
ENDBRANCH   2  13
BRANCH   3  19
HETATM   19  C   UNK N   1      28.389  17.648   7.368  0.00  0.00     0.036 C 
BRANCH  19  20
HETATM   20  C   UNK N   1      28.703  18.731   8.344  0.00  0.00    -0.036 C 
HETATM   21  C   UNK N   1      29.073  18.411   9.580  0.00  0.00     0.007 C 
ENDBRANCH  19  20
ENDBRANCH   3  19
TORSDOF 6
ENDMDL
MODEL 3
REMARK VINA RESULT:      -5.3      2.197      4.118
REMARK  6 active torsions:
REMARK  status: ('A' for Active; 'I' for Inactive)
REMARK    1  A    between atoms: O_1  and  C_4 
REMARK    2  A    between atoms: O_1  and  C_15 
REMARK    3  A    between atoms: C_4  and  C_10 
REMARK    4  A    between atoms: C_5  and  C_9 
REMARK    5  A    between atoms: C_9  and  C_14 
REMARK    6  A    between atoms: C_15  and  C_18 
ROOT
HETATM    1  N   UNK N   1      29.523  26.961  -5.499  0.00  0.00     0.084 N 
HETATM    2  C   UNK N   1      27.802  24.548  -5.133  0.00  0.00     0.105 C 
HETATM    3  C   UNK N   1      27.655  25.815  -4.245  0.00  0.00     0.057 C 
HETATM    4  C   UNK N   1      28.287  25.023  -6.513  0.00  0.00     0.074 C 
HETATM    5  C   UNK N   1      28.972  26.614  -4.179  0.00  0.00     0.280 C 
HETATM    6  C   UNK N   1      29.595  25.825  -6.428  0.00  0.00     0.275 C 
HETATM    7  C   UNK N   1      28.804  28.074  -6.102  0.00  0.00     0.309 C 
ENDROOT
BRANCH   2   8
HETATM    8  O   UNK N   1      26.553  23.951  -5.307  0.00  0.00    -0.305 OA
BRANCH   8   9
HETATM    9  C   UNK N   1      26.001  23.623  -6.515  0.00  0.00     0.259 C 
HETATM   10  O   UNK N   1      25.305  24.421  -7.126  0.00  0.00    -0.265 OA
BRANCH   9  11
HETATM   11  C   UNK N   1      26.240  22.268  -7.089  0.00  0.00     0.106 C 
HETATM   12  C   UNK N   1      24.920  21.651  -7.517  0.00  0.00     0.015 C 
ENDBRANCH   9  11
ENDBRANCH   8   9
ENDBRANCH   2   8
BRANCH   2  13
HETATM   13  C   UNK N   1      28.792  23.503  -4.579  0.00  0.00    -0.023 A 
HETATM   14  C   UNK N   1      29.075  23.455  -3.200  0.00  0.00     0.010 A 
HETATM   15  C   UNK N   1      29.928  22.482  -2.674  0.00  0.00     0.001 A 
HETATM   16  C   UNK N   1      30.510  21.536  -3.517  0.00  0.00     0.000 A 
HETATM   17  C   UNK N   1      30.242  21.566  -4.888  0.00  0.00     0.001 A 
HETATM   18  C   UNK N   1      29.386  22.539  -5.413  0.00  0.00     0.010 A 
ENDBRANCH   2  13
BRANCH   3  19
HETATM   19  C   UNK N   1      26.499  26.695  -4.745  0.00  0.00     0.036 C 
BRANCH  19  20
HETATM   20  C   UNK N   1      25.923  27.542  -3.661  0.00  0.00    -0.036 C 
HETATM   21  C   UNK N   1      25.975  28.866  -3.768  0.00  0.00     0.007 C 
ENDBRANCH  19  20
ENDBRANCH   3  19
TORSDOF 6
ENDMDL
MODEL 4
REMARK VINA RESULT:      -5.3     11.997     13.824
REMARK  6 active torsions:
REMARK  status: ('A' for Active; 'I' for Inactive)
REMARK    1  A    between atoms: O_1  and  C_4 
REMARK    2  A    between atoms: O_1  and  C_15 
REMARK    3  A    between atoms: C_4  and  C_10 
REMARK    4  A    between atoms: C_5  and  C_9 
REMARK    5  A    between atoms: C_9  and  C_14 
REMARK    6  A    between atoms: C_15  and  C_18 
ROOT
HETATM    1  N   UNK N   1      26.523  16.548   4.238  0.00  0.00     0.084 N 
HETATM    2  C   UNK N   1      28.649  17.606   6.050  0.00  0.00     0.105 C 
HETATM    3  C   UNK N   1      27.942  18.498   4.991  0.00  0.00     0.057 C 
HETATM    4  C   UNK N   1      27.629  16.544   6.495  0.00  0.00     0.074 C 
HETATM    5  C   UNK N   1      27.397  17.657   3.819  0.00  0.00     0.280 C 
HETATM    6  C   UNK N   1      27.090  15.723   5.313  0.00  0.00     0.275 C 
HETATM    7  C   UNK N   1      25.195  17.022   4.599  0.00  0.00     0.309 C 
ENDROOT
BRANCH   2   8
HETATM    8  O   UNK N   1      28.973  18.375   7.169  0.00  0.00    -0.305 OA
BRANCH   8   9
HETATM    9  C   UNK N   1      28.925  17.935   8.463  0.00  0.00     0.259 C 
HETATM   10  O   UNK N   1      27.914  18.070   9.137  0.00  0.00    -0.265 OA
BRANCH   9  11
HETATM   11  C   UNK N   1      30.129  17.295   9.067  0.00  0.00     0.106 C 
HETATM   12  C   UNK N   1      31.382  18.015   8.599  0.00  0.00     0.015 C 
ENDBRANCH   9  11
ENDBRANCH   8   9
ENDBRANCH   2   8
BRANCH   2  13
HETATM   13  C   UNK N   1      29.920  16.904   5.532  0.00  0.00    -0.023 A 
HETATM   14  C   UNK N   1      30.842  17.605   4.730  0.00  0.00     0.010 A 
HETATM   15  C   UNK N   1      32.024  17.001   4.296  0.00  0.00     0.001 A 
HETATM   16  C   UNK N   1      32.308  15.684   4.659  0.00  0.00     0.000 A 
HETATM   17  C   UNK N   1      31.407  14.972   5.453  0.00  0.00     0.001 A 
HETATM   18  C   UNK N   1      30.226  15.578   5.889  0.00  0.00     0.010 A 
ENDBRANCH   2  13
BRANCH   3  19
HETATM   19  C   UNK N   1      26.825  19.328   5.643  0.00  0.00     0.036 C 
BRANCH  19  20
HETATM   20  C   UNK N   1      26.972  20.786   5.372  0.00  0.00    -0.036 C 
HETATM   21  C   UNK N   1      27.498  21.575   6.304  0.00  0.00     0.007 C 
ENDBRANCH  19  20
ENDBRANCH   3  19
TORSDOF 6
ENDMDL
MODEL 5
REMARK VINA RESULT:      -5.1     10.614     13.558
REMARK  6 active torsions:
REMARK  status: ('A' for Active; 'I' for Inactive)
REMARK    1  A    between atoms: O_1  and  C_4 
REMARK    2  A    between atoms: O_1  and  C_15 
REMARK    3  A    between atoms: C_4  and  C_10 
REMARK    4  A    between atoms: C_5  and  C_9 
REMARK    5  A    between atoms: C_9  and  C_14 
REMARK    6  A    between atoms: C_15  and  C_18 
ROOT
HETATM    1  N   UNK N   1      29.812  16.441   5.661  0.00  0.00     0.084 N 
HETATM    2  C   UNK N   1      27.253  17.943   5.325  0.00  0.00     0.105 C 
HETATM    3  C   UNK N   1      27.716  17.391   6.702  0.00  0.00     0.057 C 
HETATM    4  C   UNK N   1      28.523  18.275   4.525  0.00  0.00     0.074 C 
HETATM    5  C   UNK N   1      28.657  16.181   6.537  0.00  0.00     0.280 C 
HETATM    6  C   UNK N   1      29.453  17.060   4.378  0.00  0.00     0.275 C 
HETATM    7  C   UNK N   1      30.834  17.222   6.342  0.00  0.00     0.309 C 
ENDROOT
BRANCH   2   8
HETATM    8  O   UNK N   1      26.549  19.135   5.511  0.00  0.00    -0.305 OA
BRANCH   8   9
HETATM    9  C   UNK N   1      26.792  20.302   4.842  0.00  0.00     0.259 C 
HETATM   10  O   UNK N   1      27.396  21.220   5.377  0.00  0.00    -0.265 OA
BRANCH   9  11
HETATM   11  C   UNK N   1      26.301  20.464   3.443  0.00  0.00     0.106 C 
HETATM   12  C   UNK N   1      24.825  20.110   3.374  0.00  0.00     0.015 C 
ENDBRANCH   9  11
ENDBRANCH   8   9
ENDBRANCH   2   8
BRANCH   2  13
HETATM   13  C   UNK N   1      26.383  16.961   4.514  0.00  0.00    -0.023 A 
HETATM   14  C   UNK N   1      26.636  16.754   3.144  0.00  0.00     0.010 A 
HETATM   15  C   UNK N   1      25.893  15.829   2.407  0.00  0.00     0.001 A 
HETATM   16  C   UNK N   1      24.884  15.092   3.028  0.00  0.00     0.000 A 
HETATM   17  C   UNK N   1      24.618  15.283   4.385  0.00  0.00     0.001 A 
HETATM   18  C   UNK N   1      25.365  16.206   5.123  0.00  0.00     0.010 A 
ENDBRANCH   2  13
BRANCH   3  19
HETATM   19  C   UNK N   1      28.382  18.499   7.533  0.00  0.00     0.036 C 
BRANCH  19  20
HETATM   20  C   UNK N   1      28.353  18.206   8.994  0.00  0.00    -0.036 C 
HETATM   21  C   UNK N   1      29.454  18.380   9.719  0.00  0.00     0.007 C 
ENDBRANCH  19  20
ENDBRANCH   3  19
TORSDOF 6
ENDMDL
MODEL 6
REMARK VINA RESULT:      -5.0      2.250      4.021
REMARK  6 active torsions:
REMARK  status: ('A' for Active; 'I' for Inactive)
REMARK    1  A    between atoms: O_1  and  C_4 
REMARK    2  A    between atoms: O_1  and  C_15 
REMARK    3  A    between atoms: C_4  and  C_10 
REMARK    4  A    between atoms: C_5  and  C_9 
REMARK    5  A    between atoms: C_9  and  C_14 
REMARK    6  A    between atoms: C_15  and  C_18 
ROOT
HETATM    1  N   UNK N   1      29.159  28.076  -4.286  0.00  0.00     0.084 N 
HETATM    2  C   UNK N   1      28.710  25.331  -5.376  0.00  0.00     0.105 C 
HETATM    3  C   UNK N   1      27.539  26.312  -5.089  0.00  0.00     0.057 C 
HETATM    4  C   UNK N   1      29.929  26.188  -5.756  0.00  0.00     0.074 C 
HETATM    5  C   UNK N   1      27.916  27.339  -4.002  0.00  0.00     0.280 C 
HETATM    6  C   UNK N   1      30.285  27.212  -4.666  0.00  0.00     0.275 C 
HETATM    7  C   UNK N   1      28.948  29.114  -5.284  0.00  0.00     0.309 C 
ENDROOT
BRANCH   2   8
HETATM    8  O   UNK N   1      28.395  24.535  -6.478  0.00  0.00    -0.305 OA
BRANCH   8   9
HETATM    9  C   UNK N   1      27.794  23.308  -6.413  0.00  0.00     0.259 C 
HETATM   10  O   UNK N   1      28.457  22.281  -6.410  0.00  0.00    -0.265 OA
BRANCH   9  11
HETATM   11  C   UNK N   1      26.306  23.220  -6.359  0.00  0.00     0.106 C 
HETATM   12  C   UNK N   1      25.728  23.436  -7.747  0.00  0.00     0.015 C 
ENDBRANCH   9  11
ENDBRANCH   8   9
ENDBRANCH   2   8
BRANCH   2  13
HETATM   13  C   UNK N   1      29.078  24.425  -4.183  0.00  0.00    -0.023 A 
HETATM   14  C   UNK N   1      30.413  24.022  -3.983  0.00  0.00     0.010 A 
HETATM   15  C   UNK N   1      30.773  23.246  -2.879  0.00  0.00     0.001 A 
HETATM   16  C   UNK N   1      29.804  22.860  -1.953  0.00  0.00     0.000 A 
HETATM   17  C   UNK N   1      28.475  23.250  -2.133  0.00  0.00     0.001 A 
HETATM   18  C   UNK N   1      28.116  24.029  -3.237  0.00  0.00     0.010 A 
ENDBRANCH   2  13
BRANCH   3  19
HETATM   19  C   UNK N   1      27.092  27.013  -6.381  0.00  0.00     0.036 C 
BRANCH  19  20
HETATM   20  C   UNK N   1      25.619  26.929  -6.590  0.00  0.00    -0.036 C 
HETATM   21  C   UNK N   1      24.829  26.609  -5.569  0.00  0.00     0.007 C 
ENDBRANCH  19  20
ENDBRANCH   3  19
TORSDOF 6
ENDMDL
MODEL 7
REMARK VINA RESULT:      -4.9     15.623     18.216
REMARK  6 active torsions:
REMARK  status: ('A' for Active; 'I' for Inactive)
REMARK    1  A    between atoms: O_1  and  C_4 
REMARK    2  A    between atoms: O_1  and  C_15 
REMARK    3  A    between atoms: C_4  and  C_10 
REMARK    4  A    between atoms: C_5  and  C_9 
REMARK    5  A    between atoms: C_9  and  C_14 
REMARK    6  A    between atoms: C_15  and  C_18 
ROOT
HETATM    1  N   UNK N   1      22.646  11.637   5.993  0.00  0.00     0.084 N 
HETATM    2  C   UNK N   1      22.198  13.943   7.838  0.00  0.00     0.105 C 
HETATM    3  C   UNK N   1      23.486  13.806   6.979  0.00  0.00     0.057 C 
HETATM    4  C   UNK N   1      21.060  13.277   7.049  0.00  0.00     0.074 C 
HETATM    5  C   UNK N   1      23.777  12.332   6.631  0.00  0.00     0.280 C 
HETATM    6  C   UNK N   1      21.370  11.812   6.702  0.00  0.00     0.275 C 
HETATM    7  C   UNK N   1      22.512  12.009   4.593  0.00  0.00     0.309 C 
ENDROOT
BRANCH   2   8
HETATM    8  O   UNK N   1      21.876  15.293   7.985  0.00  0.00    -0.305 OA
BRANCH   8   9
HETATM    9  C   UNK N   1      20.664  15.848   7.678  0.00  0.00     0.259 C 
HETATM   10  O   UNK N   1      20.371  16.119   6.523  0.00  0.00    -0.265 OA
BRANCH   9  11
HETATM   11  C   UNK N   1      19.692  16.141   8.770  0.00  0.00     0.106 C 
HETATM   12  C   UNK N   1      19.524  17.644   8.918  0.00  0.00     0.015 C 
ENDBRANCH   9  11
ENDBRANCH   8   9
ENDBRANCH   2   8
BRANCH   2  13
HETATM   13  C   UNK N   1      22.300  13.291   9.232  0.00  0.00    -0.023 A 
HETATM   14  C   UNK N   1      21.132  12.954   9.945  0.00  0.00     0.010 A 
HETATM   15  C   UNK N   1      21.205  12.315  11.185  0.00  0.00     0.001 A 
HETATM   16  C   UNK N   1      22.447  11.997  11.733  0.00  0.00     0.000 A 
HETATM   17  C   UNK N   1      23.617  12.323  11.042  0.00  0.00     0.001 A 
HETATM   18  C   UNK N   1      23.543  12.960   9.800  0.00  0.00     0.010 A 
ENDBRANCH   2  13
BRANCH   3  19
HETATM   19  C   UNK N   1      23.384  14.664   5.709  0.00  0.00     0.036 C 
BRANCH  19  20
HETATM   20  C   UNK N   1      24.352  15.798   5.713  0.00  0.00    -0.036 C 
HETATM   21  C   UNK N   1      24.007  16.955   5.157  0.00  0.00     0.007 C 
ENDBRANCH  19  20
ENDBRANCH   3  19
TORSDOF 6
ENDMDL
MODEL 8
REMARK VINA RESULT:      -4.9     21.499     24.868
REMARK  6 active torsions:
REMARK  status: ('A' for Active; 'I' for Inactive)
REMARK    1  A    between atoms: O_1  and  C_4 
REMARK    2  A    between atoms: O_1  and  C_15 
REMARK    3  A    between atoms: C_4  and  C_10 
REMARK    4  A    between atoms: C_5  and  C_9 
REMARK    5  A    between atoms: C_9  and  C_14 
REMARK    6  A    between atoms: C_15  and  C_18 
ROOT
HETATM    1  N   UNK N   1      35.089  10.522  11.176  0.00  0.00     0.084 N 
HETATM    2  C   UNK N   1      35.040  11.569  13.972  0.00  0.00     0.105 C 
HETATM    3  C   UNK N   1      35.873  12.246  12.848  0.00  0.00     0.057 C 
HETATM    4  C   UNK N   1      33.812  10.934  13.301  0.00  0.00     0.074 C 
HETATM    5  C   UNK N   1      36.244  11.240  11.739  0.00  0.00     0.280 C 
HETATM    6  C   UNK N   1      34.201   9.942  12.193  0.00  0.00     0.275 C 
HETATM    7  C   UNK N   1      34.338  11.359  10.253  0.00  0.00     0.309 C 
ENDROOT
BRANCH   2   8
HETATM    8  O   UNK N   1      34.579  12.540  14.863  0.00  0.00    -0.305 OA
BRANCH   8   9
HETATM    9  C   UNK N   1      35.316  13.091  15.874  0.00  0.00     0.259 C 
HETATM   10  O   UNK N   1      36.269  13.819  15.634  0.00  0.00    -0.265 OA
BRANCH   9  11
HETATM   11  C   UNK N   1      34.963  12.789  17.291  0.00  0.00     0.106 C 
HETATM   12  C   UNK N   1      35.233  14.006  18.159  0.00  0.00     0.015 C 
ENDBRANCH   9  11
ENDBRANCH   8   9
ENDBRANCH   2   8
BRANCH   2  13
HETATM   13  C   UNK N   1      35.807  10.485  14.757  0.00  0.00    -0.023 A 
HETATM   14  C   UNK N   1      37.215  10.450  14.728  0.00  0.00     0.010 A 
HETATM   15  C   UNK N   1      37.928   9.508  15.474  0.00  0.00     0.001 A 
HETATM   16  C   UNK N   1      37.244   8.586  16.267  0.00  0.00     0.000 A 
HETATM   17  C   UNK N   1      35.849   8.605  16.310  0.00  0.00     0.001 A 
HETATM   18  C   UNK N   1      35.137   9.549  15.565  0.00  0.00     0.010 A 
ENDBRANCH   2  13
BRANCH   3  19
HETATM   19  C   UNK N   1      35.119  13.453  12.269  0.00  0.00     0.036 C 
BRANCH  19  20
HETATM   20  C   UNK N   1      36.019  14.615  12.019  0.00  0.00    -0.036 C 
HETATM   21  C   UNK N   1      35.511  15.743  11.533  0.00  0.00     0.007 C 
ENDBRANCH  19  20
ENDBRANCH   3  19
TORSDOF 6
ENDMDL
MODEL 9
REMARK VINA RESULT:      -4.9     11.786     14.440
REMARK  6 active torsions:
REMARK  status: ('A' for Active; 'I' for Inactive)
REMARK    1  A    between atoms: O_1  and  C_4 
REMARK    2  A    between atoms: O_1  and  C_15 
REMARK    3  A    between atoms: C_4  and  C_10 
REMARK    4  A    between atoms: C_5  and  C_9 
REMARK    5  A    between atoms: C_9  and  C_14 
REMARK    6  A    between atoms: C_15  and  C_18 
ROOT
HETATM    1  N   UNK N   1      32.921  15.713   5.214  0.00  0.00     0.084 N 
HETATM    2  C   UNK N   1      30.172  16.879   5.262  0.00  0.00     0.105 C 
HETATM    3  C   UNK N   1      30.845  16.288   6.533  0.00  0.00     0.057 C 
HETATM    4  C   UNK N   1      31.298  17.440   4.378  0.00  0.00     0.074 C 
HETATM    5  C   UNK N   1      31.908  15.232   6.169  0.00  0.00     0.280 C 
HETATM    6  C   UNK N   1      32.353  16.376   4.033  0.00  0.00     0.275 C 
HETATM    7  C   UNK N   1      33.903  16.569   5.863  0.00  0.00     0.309 C 
ENDROOT
BRANCH   2   8
HETATM    8  O   UNK N   1      29.348  17.946   5.623  0.00  0.00    -0.305 OA
BRANCH   8   9
HETATM    9  C   UNK N   1      28.036  17.834   5.994  0.00  0.00     0.259 C 
HETATM   10  O   UNK N   1      27.726  17.320   7.059  0.00  0.00    -0.265 OA
BRANCH   9  11
HETATM   11  C   UNK N   1      26.968  18.333   5.082  0.00  0.00     0.106 C 
HETATM   12  C   UNK N   1      27.537  19.398   4.160  0.00  0.00     0.015 C 
ENDBRANCH   9  11
ENDBRANCH   8   9
ENDBRANCH   2   8
BRANCH   2  13
HETATM   13  C   UNK N   1      29.352  15.855   4.452  0.00  0.00    -0.023 A 
HETATM   14  C   UNK N   1      29.091  16.077   3.085  0.00  0.00     0.010 A 
HETATM   15  C   UNK N   1      28.394  15.135   2.324  0.00  0.00     0.001 A 
HETATM   16  C   UNK N   1      27.950  13.952   2.914  0.00  0.00     0.000 A 
HETATM   17  C   UNK N   1      28.199  13.713   4.267  0.00  0.00     0.001 A 
HETATM   18  C   UNK N   1      28.898  14.655   5.028  0.00  0.00     0.010 A 
ENDBRANCH   2  13
BRANCH   3  19
HETATM   19  C   UNK N   1      31.451  17.407   7.394  0.00  0.00     0.036 C 
BRANCH  19  20
HETATM   20  C   UNK N   1      30.823  17.485   8.744  0.00  0.00    -0.036 C 
HETATM   21  C   UNK N   1      30.255  18.620   9.138  0.00  0.00     0.007 C 
ENDBRANCH  19  20
ENDBRANCH   3  19
TORSDOF 6
ENDMDL
