MODEL 1
REMARK VINA RESULT:      -7.2      0.000      0.000
REMARK  2 active torsions:
REMARK  status: ('A' for Active; 'I' for Inactive)
REMARK    1  A    between atoms: N_8  and  C_17 
REMARK    2  A    between atoms: C_11  and  C_16 
ROOT
HETATM    1  O   UNK N   1      33.469  15.633   3.431  0.00  0.00    -0.271 OA
HETATM    2  N   UNK N   1      32.467  15.739   5.435  0.00  0.00    -0.320 N 
HETATM    3  N   UNK N   1      30.735  17.508   3.627  0.00  0.00    -0.380 N 
ATOM      4  HN  UNK N   1      30.341  17.621   2.694  1.00  0.00     0.160 HD
HETATM    5  C   UNK N   1      30.400  17.117   6.019  0.00  0.00     0.021 A 
HETATM    6  C   UNK N   1      31.583  16.372   6.380  0.00  0.00     0.049 A 
HETATM    7  C   UNK N   1      29.908  17.364   4.607  0.00  0.00     0.054 C 
HETATM    8  C   UNK N   1      29.613  17.638   7.059  0.00  0.00     0.052 A 
HETATM    9  C   UNK N   1      32.162  17.522   3.745  0.00  0.00     0.223 C 
HETATM   10  C   UNK N   1      31.854  16.174   7.750  0.00  0.00     0.033 A 
HETATM   11  C   UNK N   1      32.704  16.220   4.184  0.00  0.00     0.241 C 
HETATM   12  C   UNK N   1      29.915  17.443   8.406  0.00  0.00     0.103 A 
HETATM   13  C   UNK N   1      31.043  16.704   8.746  0.00  0.00     0.038 A 
HETATM   14  C   UNK N   1      33.225  14.581   5.870  0.00  0.00     0.159 C 
ENDROOT
BRANCH   7  15
HETATM   15  C   UNK N   1      28.451  17.625   4.285  0.00  0.00     0.030 A 
HETATM   16  C   UNK N   1      27.837  18.909   4.238  0.00  0.00     0.128 A 
HETATM   17  F   UNK N   1      28.497  20.042   4.569  0.00  0.00    -0.205 F 
HETATM   18  C   UNK N   1      26.485  19.029   3.894  0.00  0.00     0.043 A 
HETATM   19  C   UNK N   1      25.721  17.900   3.600  0.00  0.00     0.003 A 
HETATM   20  C   UNK N   1      26.297  16.636   3.674  0.00  0.00     0.001 A 
HETATM   21  C   UNK N   1      27.643  16.502   4.017  0.00  0.00     0.017 A 
ENDBRANCH   7  15
BRANCH  12  22
HETATM   22  N   UNK N   1      29.069  17.972   9.419  0.00  0.00    -0.116 N 
HETATM   23  O   UNK N   1      27.803  17.619   9.479  0.00  0.00    -0.532 OA
HETATM   24  O   UNK N   1      29.498  18.758  10.211  0.00  0.00    -0.532 OA
ENDBRANCH  12  22
TORSDOF 2
ENDMDL
MODEL 2
REMARK VINA RESULT:      -7.1     11.209     13.647
REMARK  2 active torsions:
REMARK  status: ('A' for Active; 'I' for Inactive)
REMARK    1  A    between atoms: N_8  and  C_17 
REMARK    2  A    between atoms: C_11  and  C_16 
ROOT
HETATM    1  O   UNK N   1      30.685  22.905  -1.451  0.00  0.00    -0.271 OA
HETATM    2  N   UNK N   1      30.522  22.390  -3.628  0.00  0.00    -0.320 N 
HETATM    3  N   UNK N   1      28.052  24.118  -3.071  0.00  0.00    -0.380 N 
ATOM      4  HN  UNK N   1      27.690  24.924  -2.562  1.00  0.00     0.160 HD
HETATM    5  C   UNK N   1      28.627  23.059  -5.201  0.00  0.00     0.021 A 
HETATM    6  C   UNK N   1      29.764  22.244  -4.845  0.00  0.00     0.049 A 
HETATM    7  C   UNK N   1      28.043  24.177  -4.360  0.00  0.00     0.054 C 
HETATM    8  C   UNK N   1      28.018  22.825  -6.444  0.00  0.00     0.052 A 
HETATM    9  C   UNK N   1      28.529  23.012  -2.298  0.00  0.00     0.223 C 
HETATM   10  C   UNK N   1      30.223  21.294  -5.781  0.00  0.00     0.033 A 
HETATM   11  C   UNK N   1      29.983  22.804  -2.448  0.00  0.00     0.241 C 
HETATM   12  C   UNK N   1      28.481  21.865  -7.344  0.00  0.00     0.103 A 
HETATM   13  C   UNK N   1      29.592  21.101  -7.004  0.00  0.00     0.038 A 
HETATM   14  C   UNK N   1      31.914  21.979  -3.631  0.00  0.00     0.159 C 
ENDROOT
BRANCH   7  15
HETATM   15  C   UNK N   1      27.271  25.332  -4.962  0.00  0.00     0.030 A 
HETATM   16  C   UNK N   1      25.868  25.348  -5.202  0.00  0.00     0.128 A 
HETATM   17  F   UNK N   1      25.082  24.269  -4.986  0.00  0.00    -0.205 F 
HETATM   18  C   UNK N   1      25.258  26.491  -5.734  0.00  0.00     0.043 A 
HETATM   19  C   UNK N   1      26.012  27.623  -6.042  0.00  0.00     0.003 A 
HETATM   20  C   UNK N   1      27.389  27.612  -5.846  0.00  0.00     0.001 A 
HETATM   21  C   UNK N   1      28.009  26.480  -5.318  0.00  0.00     0.017 A 
ENDBRANCH   7  15
BRANCH  12  22
HETATM   22  N   UNK N   1      27.842  21.686  -8.601  0.00  0.00    -0.116 N 
HETATM   23  O   UNK N   1      26.850  22.472  -8.959  0.00  0.00    -0.532 OA
HETATM   24  O   UNK N   1      28.189  20.808  -9.333  0.00  0.00    -0.532 OA
ENDBRANCH  12  22
TORSDOF 2
ENDMDL
MODEL 3
REMARK VINA RESULT:      -7.0     11.781     13.730
REMARK  2 active torsions:
REMARK  status: ('A' for Active; 'I' for Inactive)
REMARK    1  A    between atoms: N_8  and  C_17 
REMARK    2  A    between atoms: C_11  and  C_16 
ROOT
HETATM    1  O   UNK N   1      28.624  20.624  -9.845  0.00  0.00    -0.271 OA
HETATM    2  N   UNK N   1      29.111  20.821  -7.664  0.00  0.00    -0.320 N 
HETATM    3  N   UNK N   1      28.168  23.620  -8.487  0.00  0.00    -0.380 N 
ATOM      4  HN  UNK N   1      27.511  24.149  -9.059  1.00  0.00     0.160 HD
HETATM    5  C   UNK N   1      28.968  22.955  -6.272  0.00  0.00     0.021 A 
HETATM    6  C   UNK N   1      29.436  21.609  -6.503  0.00  0.00     0.049 A 
HETATM    7  C   UNK N   1      28.083  23.755  -7.207  0.00  0.00     0.054 C 
HETATM    8  C   UNK N   1      29.335  23.578  -5.068  0.00  0.00     0.052 A 
HETATM    9  C   UNK N   1      29.112  22.788  -9.169  0.00  0.00     0.223 C 
HETATM   10  C   UNK N   1      30.194  20.984  -5.491  0.00  0.00     0.033 A 
HETATM   11  C   UNK N   1      28.896  21.352  -8.900  0.00  0.00     0.241 C 
HETATM   12  C   UNK N   1      30.102  22.942  -4.092  0.00  0.00     0.103 A 
HETATM   13  C   UNK N   1      30.528  21.637  -4.311  0.00  0.00     0.038 A 
HETATM   14  C   UNK N   1      29.110  19.376  -7.538  0.00  0.00     0.159 C 
ENDROOT
BRANCH   7  15
HETATM   15  C   UNK N   1      27.179  24.869  -6.719  0.00  0.00     0.030 A 
HETATM   16  C   UNK N   1      26.012  24.691  -5.923  0.00  0.00     0.128 A 
HETATM   17  F   UNK N   1      25.540  23.469  -5.589  0.00  0.00    -0.205 F 
HETATM   18  C   UNK N   1      25.272  25.803  -5.503  0.00  0.00     0.043 A 
HETATM   19  C   UNK N   1      25.660  27.094  -5.860  0.00  0.00     0.003 A 
HETATM   20  C   UNK N   1      26.778  27.283  -6.666  0.00  0.00     0.001 A 
HETATM   21  C   UNK N   1      27.524  26.183  -7.092  0.00  0.00     0.017 A 
ENDBRANCH   7  15
BRANCH  12  22
HETATM   22  N   UNK N   1      30.424  23.611  -2.879  0.00  0.00    -0.116 N 
HETATM   23  O   UNK N   1      30.560  22.931  -1.761  0.00  0.00    -0.532 OA
HETATM   24  O   UNK N   1      30.553  24.799  -2.863  0.00  0.00    -0.532 OA
ENDBRANCH  12  22
TORSDOF 2
ENDMDL
MODEL 4
REMARK VINA RESULT:      -6.9      2.447      6.802
REMARK  2 active torsions:
REMARK  status: ('A' for Active; 'I' for Inactive)
REMARK    1  A    between atoms: N_8  and  C_17 
REMARK    2  A    between atoms: C_11  and  C_16 
ROOT
HETATM    1  O   UNK N   1      27.499  17.670   9.467  0.00  0.00    -0.271 OA
HETATM    2  N   UNK N   1      28.408  17.062   7.509  0.00  0.00    -0.320 N 
HETATM    3  N   UNK N   1      30.815  17.557   9.341  0.00  0.00    -0.380 N 
ATOM      4  HN  UNK N   1      31.182  17.463  10.288  1.00  0.00     0.160 HD
HETATM    5  C   UNK N   1      30.900  16.922   6.979  0.00  0.00     0.021 A 
HETATM    6  C   UNK N   1      29.514  17.002   6.587  0.00  0.00     0.049 A 
HETATM    7  C   UNK N   1      31.415  16.902   8.405  0.00  0.00     0.054 C 
HETATM    8  C   UNK N   1      31.864  16.824   5.962  0.00  0.00     0.052 A 
HETATM    9  C   UNK N   1      29.677  18.404   9.158  0.00  0.00     0.223 C 
HETATM   10  C   UNK N   1      29.204  16.933   5.213  0.00  0.00     0.033 A 
HETATM   11  C   UNK N   1      28.477  17.653   8.733  0.00  0.00     0.241 C 
HETATM   12  C   UNK N   1      31.531  16.777   4.609  0.00  0.00     0.103 A 
HETATM   13  C   UNK N   1      30.191  16.830   4.240  0.00  0.00     0.038 A 
HETATM   14  C   UNK N   1      27.120  16.554   7.074  0.00  0.00     0.159 C 
ENDROOT
BRANCH   7  15
HETATM   15  C   UNK N   1      32.738  16.269   8.785  0.00  0.00     0.030 A 
HETATM   16  C   UNK N   1      33.974  16.964   8.919  0.00  0.00     0.128 A 
HETATM   17  F   UNK N   1      34.103  18.278   8.628  0.00  0.00    -0.205 F 
HETATM   18  C   UNK N   1      35.128  16.275   9.311  0.00  0.00     0.043 A 
HETATM   19  C   UNK N   1      35.088  14.905   9.568  0.00  0.00     0.003 A 
HETATM   20  C   UNK N   1      33.897  14.205   9.409  0.00  0.00     0.001 A 
HETATM   21  C   UNK N   1      32.740  14.879   9.018  0.00  0.00     0.017 A 
ENDBRANCH   7  15
BRANCH  12  22
HETATM   22  N   UNK N   1      32.545  16.653   3.621  0.00  0.00    -0.116 N 
HETATM   23  O   UNK N   1      32.320  17.042   2.384  0.00  0.00    -0.532 OA
HETATM   24  O   UNK N   1      33.604  16.175   3.902  0.00  0.00    -0.532 OA
ENDBRANCH  12  22
TORSDOF 2
ENDMDL
MODEL 5
REMARK VINA RESULT:      -6.8      2.658      5.842
REMARK  2 active torsions:
REMARK  status: ('A' for Active; 'I' for Inactive)
REMARK    1  A    between atoms: N_8  and  C_17 
REMARK    2  A    between atoms: C_11  and  C_16 
ROOT
HETATM    1  O   UNK N   1      33.341  15.050   3.511  0.00  0.00    -0.271 OA
HETATM    2  N   UNK N   1      31.994  16.324   4.774  0.00  0.00    -0.320 N 
HETATM    3  N   UNK N   1      33.585  14.662   6.800  0.00  0.00    -0.380 N 
ATOM      4  HN  UNK N   1      34.493  14.254   7.021  1.00  0.00     0.160 HD
HETATM    5  C   UNK N   1      31.822  16.278   7.320  0.00  0.00     0.021 A 
HETATM    6  C   UNK N   1      31.315  16.614   6.011  0.00  0.00     0.049 A 
HETATM    7  C   UNK N   1      33.128  15.562   7.603  0.00  0.00     0.054 C 
HETATM    8  C   UNK N   1      31.064  16.667   8.436  0.00  0.00     0.052 A 
HETATM    9  C   UNK N   1      32.920  14.190   5.623  0.00  0.00     0.223 C 
HETATM   10  C   UNK N   1      30.114  17.350   5.930  0.00  0.00     0.033 A 
HETATM   11  C   UNK N   1      32.794  15.238   4.589  0.00  0.00     0.241 C 
HETATM   12  C   UNK N   1      29.870  17.379   8.326  0.00  0.00     0.103 A 
HETATM   13  C   UNK N   1      29.399  17.720   7.063  0.00  0.00     0.038 A 
HETATM   14  C   UNK N   1      31.735  17.177   3.629  0.00  0.00     0.159 C 
ENDROOT
BRANCH   7  15
HETATM   15  C   UNK N   1      33.880  15.726   8.908  0.00  0.00     0.030 A 
HETATM   16  C   UNK N   1      34.662  16.860   9.270  0.00  0.00     0.128 A 
HETATM   17  F   UNK N   1      34.880  17.891   8.422  0.00  0.00    -0.205 F 
HETATM   18  C   UNK N   1      35.286  16.913  10.522  0.00  0.00     0.043 A 
HETATM   19  C   UNK N   1      35.159  15.859  11.427  0.00  0.00     0.003 A 
HETATM   20  C   UNK N   1      34.428  14.730  11.076  0.00  0.00     0.001 A 
HETATM   21  C   UNK N   1      33.801  14.664   9.831  0.00  0.00     0.017 A 
ENDBRANCH   7  15
BRANCH  12  22
HETATM   22  N   UNK N   1      29.154  17.770   9.491  0.00  0.00    -0.116 N 
HETATM   23  O   UNK N   1      29.614  18.733  10.260  0.00  0.00    -0.532 OA
HETATM   24  O   UNK N   1      28.139  17.213   9.789  0.00  0.00    -0.532 OA
ENDBRANCH  12  22
TORSDOF 2
ENDMDL
MODEL 6
REMARK VINA RESULT:      -6.8     11.040     13.033
REMARK  2 active torsions:
REMARK  status: ('A' for Active; 'I' for Inactive)
REMARK    1  A    between atoms: N_8  and  C_17 
REMARK    2  A    between atoms: C_11  and  C_16 
ROOT
HETATM    1  O   UNK N   1      28.583  21.131  -9.722  0.00  0.00    -0.271 OA
HETATM    2  N   UNK N   1      29.319  20.729  -7.642  0.00  0.00    -0.320 N 
HETATM    3  N   UNK N   1      28.576  23.703  -7.622  0.00  0.00    -0.380 N 
ATOM      4  HN  UNK N   1      27.916  24.405  -7.956  1.00  0.00     0.160 HD
HETATM    5  C   UNK N   1      29.541  22.440  -5.761  0.00  0.00     0.021 A 
HETATM    6  C   UNK N   1      29.845  21.169  -6.374  0.00  0.00     0.049 A 
HETATM    7  C   UNK N   1      28.643  23.511  -6.347  0.00  0.00     0.054 C 
HETATM    8  C   UNK N   1      30.095  22.707  -4.499  0.00  0.00     0.052 A 
HETATM    9  C   UNK N   1      29.354  23.011  -8.603  0.00  0.00     0.223 C 
HETATM   10  C   UNK N   1      30.641  20.255  -5.654  0.00  0.00     0.033 A 
HETATM   11  C   UNK N   1      29.026  21.572  -8.670  0.00  0.00     0.241 C 
HETATM   12  C   UNK N   1      30.896  21.791  -3.817  0.00  0.00     0.103 A 
HETATM   13  C   UNK N   1      31.165  20.559  -4.404  0.00  0.00     0.038 A 
HETATM   14  C   UNK N   1      29.189  19.303  -7.876  0.00  0.00     0.159 C 
ENDROOT
BRANCH   7  15
HETATM   15  C   UNK N   1      27.912  24.522  -5.488  0.00  0.00     0.030 A 
HETATM   16  C   UNK N   1      28.380  25.832  -5.181  0.00  0.00     0.128 A 
HETATM   17  F   UNK N   1      29.595  26.278  -5.570  0.00  0.00    -0.205 F 
HETATM   18  C   UNK N   1      27.598  26.693  -4.402  0.00  0.00     0.043 A 
HETATM   19  C   UNK N   1      26.359  26.282  -3.911  0.00  0.00     0.003 A 
HETATM   20  C   UNK N   1      25.902  24.995  -4.173  0.00  0.00     0.001 A 
HETATM   21  C   UNK N   1      26.673  24.126  -4.947  0.00  0.00     0.017 A 
ENDBRANCH   7  15
BRANCH  12  22
HETATM   22  N   UNK N   1      31.412  22.103  -2.529  0.00  0.00    -0.116 N 
HETATM   23  O   UNK N   1      30.799  22.978  -1.762  0.00  0.00    -0.532 OA
HETATM   24  O   UNK N   1      32.418  21.586  -2.142  0.00  0.00    -0.532 OA
ENDBRANCH  12  22
TORSDOF 2
ENDMDL
MODEL 7
REMARK VINA RESULT:      -6.8      7.256      8.895
REMARK  2 active torsions:
REMARK  status: ('A' for Active; 'I' for Inactive)
REMARK    1  A    between atoms: N_8  and  C_17 
REMARK    2  A    between atoms: C_11  and  C_16 
ROOT
HETATM    1  O   UNK N   1      24.293  13.091   5.191  0.00  0.00    -0.271 OA
HETATM    2  N   UNK N   1      22.652  13.865   6.510  0.00  0.00    -0.320 N 
HETATM    3  N   UNK N   1      23.241  16.183   4.592  0.00  0.00    -0.380 N 
ATOM      4  HN  UNK N   1      23.485  16.439   3.636  1.00  0.00     0.160 HD
HETATM    5  C   UNK N   1      21.620  16.198   6.426  0.00  0.00     0.021 A 
HETATM    6  C   UNK N   1      21.889  14.943   7.086  0.00  0.00     0.049 A 
HETATM    7  C   UNK N   1      22.102  16.589   5.043  0.00  0.00     0.054 C 
HETATM    8  C   UNK N   1      20.821  17.134   7.101  0.00  0.00     0.052 A 
HETATM    9  C   UNK N   1      24.190  15.404   5.328  0.00  0.00     0.223 C 
HETATM   10  C   UNK N   1      21.299  14.713   8.347  0.00  0.00     0.033 A 
HETATM   11  C   UNK N   1      23.686  14.052   5.643  0.00  0.00     0.241 C 
HETATM   12  C   UNK N   1      20.265  16.888   8.356  0.00  0.00     0.103 A 
HETATM   13  C   UNK N   1      20.509  15.667   8.975  0.00  0.00     0.038 A 
HETATM   14  C   UNK N   1      22.374  12.511   6.951  0.00  0.00     0.159 C 
ENDROOT
BRANCH   7  15
HETATM   15  C   UNK N   1      21.374  17.601   4.182  0.00  0.00     0.030 A 
HETATM   16  C   UNK N   1      20.090  17.410   3.597  0.00  0.00     0.128 A 
HETATM   17  F   UNK N   1      19.418  16.240   3.687  0.00  0.00    -0.205 F 
HETATM   18  C   UNK N   1      19.501  18.435   2.846  0.00  0.00     0.043 A 
HETATM   19  C   UNK N   1      20.161  19.648   2.655  0.00  0.00     0.003 A 
HETATM   20  C   UNK N   1      21.430  19.838   3.192  0.00  0.00     0.001 A 
HETATM   21  C   UNK N   1      22.029  18.825   3.941  0.00  0.00     0.017 A 
ENDBRANCH   7  15
BRANCH  12  22
HETATM   22  N   UNK N   1      19.442  17.862   8.984  0.00  0.00    -0.116 N 
HETATM   23  O   UNK N   1      19.953  19.008   9.381  0.00  0.00    -0.532 OA
HETATM   24  O   UNK N   1      18.283  17.640   9.173  0.00  0.00    -0.532 OA
ENDBRANCH  12  22
TORSDOF 2
ENDMDL
MODEL 8
REMARK VINA RESULT:      -6.7     12.320     14.718
REMARK  2 active torsions:
REMARK  status: ('A' for Active; 'I' for Inactive)
REMARK    1  A    between atoms: N_8  and  C_17 
REMARK    2  A    between atoms: C_11  and  C_16 
ROOT
HETATM    1  O   UNK N   1      26.157  23.031  -9.452  0.00  0.00    -0.271 OA
HETATM    2  N   UNK N   1      26.009  24.842  -8.136  0.00  0.00    -0.320 N 
HETATM    3  N   UNK N   1      27.431  22.754  -6.398  0.00  0.00    -0.380 N 
ATOM      4  HN  UNK N   1      28.109  21.994  -6.388  1.00  0.00     0.160 HD
HETATM    5  C   UNK N   1      26.795  25.017  -5.714  0.00  0.00     0.021 A 
HETATM    6  C   UNK N   1      26.018  25.474  -6.841  0.00  0.00     0.049 A 
HETATM    7  C   UNK N   1      27.707  23.806  -5.704  0.00  0.00     0.054 C 
HETATM    8  C   UNK N   1      26.732  25.766  -4.529  0.00  0.00     0.052 A 
HETATM    9  C   UNK N   1      26.247  22.570  -7.181  0.00  0.00     0.223 C 
HETATM   10  C   UNK N   1      25.278  26.666  -6.701  0.00  0.00     0.033 A 
HETATM   11  C   UNK N   1      26.175  23.503  -8.324  0.00  0.00     0.241 C 
HETATM   12  C   UNK N   1      25.977  26.933  -4.411  0.00  0.00     0.103 A 
HETATM   13  C   UNK N   1      25.249  27.380  -5.509  0.00  0.00     0.038 A 
HETATM   14  C   UNK N   1      25.708  25.657  -9.298  0.00  0.00     0.159 C 
ENDROOT
BRANCH   7  15
HETATM   15  C   UNK N   1      28.889  23.684  -4.764  0.00  0.00     0.030 A 
HETATM   16  C   UNK N   1      30.234  24.027  -5.084  0.00  0.00     0.128 A 
HETATM   17  F   UNK N   1      30.606  24.426  -6.321  0.00  0.00    -0.205 F 
HETATM   18  C   UNK N   1      31.240  23.904  -4.118  0.00  0.00     0.043 A 
HETATM   19  C   UNK N   1      30.944  23.439  -2.836  0.00  0.00     0.003 A 
HETATM   20  C   UNK N   1      29.643  23.068  -2.518  0.00  0.00     0.001 A 
HETATM   21  C   UNK N   1      28.631  23.185  -3.471  0.00  0.00     0.017 A 
ENDBRANCH   7  15
BRANCH  12  22
HETATM   22  N   UNK N   1      25.968  27.667  -3.194  0.00  0.00    -0.116 N 
HETATM   23  O   UNK N   1      26.034  28.981  -3.211  0.00  0.00    -0.532 OA
HETATM   24  O   UNK N   1      25.922  27.095  -2.146  0.00  0.00    -0.532 OA
ENDBRANCH  12  22
TORSDOF 2
ENDMDL
MODEL 9
REMARK VINA RESULT:      -6.6      2.756      3.762
REMARK  2 active torsions:
REMARK  status: ('A' for Active; 'I' for Inactive)
REMARK    1  A    between atoms: N_8  and  C_17 
REMARK    2  A    between atoms: C_11  and  C_16 
ROOT
HETATM    1  O   UNK N   1      28.209  13.589   2.708  0.00  0.00    -0.271 OA
HETATM    2  N   UNK N   1      29.814  14.144   4.175  0.00  0.00    -0.320 N 
HETATM    3  N   UNK N   1      28.371  16.786   3.593  0.00  0.00    -0.380 N 
ATOM      4  HN  UNK N   1      27.470  17.227   3.414  1.00  0.00     0.160 HD
HETATM    5  C   UNK N   1      30.317  16.489   5.048  0.00  0.00     0.021 A 
HETATM    6  C   UNK N   1      30.673  15.110   4.810  0.00  0.00     0.049 A 
HETATM    7  C   UNK N   1      29.005  17.141   4.660  0.00  0.00     0.054 C 
HETATM    8  C   UNK N   1      31.246  17.298   5.721  0.00  0.00     0.052 A 
HETATM    9  C   UNK N   1      28.832  15.822   2.641  0.00  0.00     0.223 C 
HETATM   10  C   UNK N   1      31.909  14.646   5.306  0.00  0.00     0.033 A 
HETATM   11  C   UNK N   1      28.908  14.460   3.208  0.00  0.00     0.241 C 
HETATM   12  C   UNK N   1      32.470  16.818   6.184  0.00  0.00     0.103 A 
HETATM   13  C   UNK N   1      32.796  15.483   5.973  0.00  0.00     0.038 A 
HETATM   14  C   UNK N   1      29.989  12.742   4.506  0.00  0.00     0.159 C 
ENDROOT
BRANCH   7  15
HETATM   15  C   UNK N   1      28.448  18.348   5.387  0.00  0.00     0.030 A 
HETATM   16  C   UNK N   1      28.207  18.424   6.788  0.00  0.00     0.128 A 
HETATM   17  F   UNK N   1      28.379  17.367   7.613  0.00  0.00    -0.205 F 
HETATM   18  C   UNK N   1      27.720  19.609   7.354  0.00  0.00     0.043 A 
HETATM   19  C   UNK N   1      27.458  20.724   6.558  0.00  0.00     0.003 A 
HETATM   20  C   UNK N   1      27.656  20.655   5.183  0.00  0.00     0.001 A 
HETATM   21  C   UNK N   1      28.139  19.480   4.607  0.00  0.00     0.017 A 
ENDBRANCH   7  15
BRANCH  12  22
HETATM   22  N   UNK N   1      33.364  17.675   6.882  0.00  0.00    -0.116 N 
HETATM   23  O   UNK N   1      33.033  18.165   8.057  0.00  0.00    -0.532 OA
HETATM   24  O   UNK N   1      34.415  17.974   6.396  0.00  0.00    -0.532 OA
ENDBRANCH  12  22
TORSDOF 2
ENDMDL
