MODEL 1
REMARK VINA RESULT:      -7.3      0.000      0.000
REMARK  4 active torsions:
REMARK  status: ('A' for Active; 'I' for Inactive)
REMARK    1  A    between atoms: O_3  and  C_17 
REMARK    2  A    between atoms: O_3  and  C_25 
REMARK    3  A    between atoms: C_10  and  C_13 
REMARK    4  A    between atoms: C_11  and  C_17 
ROOT
HETATM    1 Cl   UNK N   1      27.218  28.457  -2.734  0.00  0.00    -0.084 Cl
HETATM    2  O   UNK N   1      24.838  23.376  -8.615  0.00  0.00    -0.270 OA
HETATM    3  N   UNK N   1      25.225  24.884  -7.068  0.00  0.00    -0.324 N 
HETATM    4  N   UNK N   1      27.534  23.073  -6.163  0.00  0.00    -0.367 N 
ATOM      5  HN  UNK N   1      28.174  22.288  -6.045  1.00  0.00     0.161 HD
HETATM    6  C   UNK N   1      26.912  25.240  -5.173  0.00  0.00     0.020 A 
HETATM    7  C   UNK N   1      27.718  23.948  -5.237  0.00  0.00     0.055 C 
HETATM    8  C   UNK N   1      26.698  22.874  -7.308  0.00  0.00     0.275 C 
HETATM    9  C   UNK N   1      25.795  25.621  -6.003  0.00  0.00     0.047 A 
HETATM   10  C   UNK N   1      25.540  23.732  -7.681  0.00  0.00     0.255 C 
HETATM   11  C   UNK N   1      27.302  26.170  -4.209  0.00  0.00     0.040 A 
HETATM   12  C   UNK N   1      25.163  26.855  -5.774  0.00  0.00     0.032 A 
HETATM   13  C   UNK N   1      26.663  27.384  -3.999  0.00  0.00     0.035 A 
HETATM   14  C   UNK N   1      25.580  27.728  -4.782  0.00  0.00     0.026 A 
HETATM   15  H   UNK N   1      24.419  25.309  -7.441  0.00  0.00     0.169 HD
ENDROOT
BRANCH   7  16
HETATM   16  C   UNK N   1      28.847  23.540  -4.263  0.00  0.00     0.030 A 
HETATM   17  C   UNK N   1      28.808  23.339  -2.839  0.00  0.00     0.128 A 
HETATM   18  F   UNK N   1      27.706  23.448  -2.079  0.00  0.00    -0.205 F 
HETATM   19  C   UNK N   1      29.967  22.954  -2.150  0.00  0.00     0.043 A 
HETATM   20  C   UNK N   1      31.171  22.751  -2.811  0.00  0.00     0.003 A 
HETATM   21  C   UNK N   1      31.236  22.919  -4.183  0.00  0.00     0.001 A 
HETATM   22  C   UNK N   1      30.099  23.304  -4.886  0.00  0.00     0.017 A 
ENDBRANCH   7  16
BRANCH   8  23
HETATM   23  C   UNK N   1      26.978  21.555  -7.984  0.00  0.00     0.291 C 
HETATM   24  O   UNK N   1      26.096  20.716  -8.117  0.00  0.00    -0.262 OA
BRANCH  23  25
HETATM   25  O   UNK N   1      28.234  21.313  -8.433  0.00  0.00    -0.320 OA
BRANCH  25  26
HETATM   26  C   UNK N   1      28.897  20.127  -8.236  0.00  0.00     0.174 C 
HETATM   27  C   UNK N   1      29.796  20.266  -7.024  0.00  0.00     0.034 C 
ENDBRANCH  25  26
ENDBRANCH  23  25
ENDBRANCH   8  23
TORSDOF 4
ENDMDL
MODEL 2
REMARK VINA RESULT:      -7.1     21.032     24.017
REMARK  4 active torsions:
REMARK  status: ('A' for Active; 'I' for Inactive)
REMARK    1  A    between atoms: O_3  and  C_17 
REMARK    2  A    between atoms: O_3  and  C_25 
REMARK    3  A    between atoms: C_10  and  C_13 
REMARK    4  A    between atoms: C_11  and  C_17 
ROOT
HETATM    1 Cl   UNK N   1      37.917   8.706  16.115  0.00  0.00    -0.084 Cl
HETATM    2  O   UNK N   1      36.909  13.290   9.479  0.00  0.00    -0.270 OA
HETATM    3  N   UNK N   1      37.337  11.874  11.100  0.00  0.00    -0.324 N 
HETATM    4  N   UNK N   1      36.339  14.064  13.009  0.00  0.00    -0.367 N 
ATOM      5  HN  UNK N   1      36.022  14.949  13.402  1.00  0.00     0.161 HD
HETATM    6  C   UNK N   1      37.123  11.820  13.652  0.00  0.00     0.020 A 
HETATM    7  C   UNK N   1      36.637  13.234  13.946  0.00  0.00     0.055 C 
HETATM    8  C   UNK N   1      36.323  14.113  11.577  0.00  0.00     0.275 C 
HETATM    9  C   UNK N   1      37.436  11.248  12.365  0.00  0.00     0.047 A 
HETATM   10  C   UNK N   1      36.879  13.064  10.679  0.00  0.00     0.255 C 
HETATM   11  C   UNK N   1      37.275  10.973  14.750  0.00  0.00     0.040 A 
HETATM   12  C   UNK N   1      37.896   9.922  12.300  0.00  0.00     0.032 A 
HETATM   13  C   UNK N   1      37.731   9.665  14.664  0.00  0.00     0.035 A 
HETATM   14  C   UNK N   1      38.051   9.136  13.431  0.00  0.00     0.026 A 
HETATM   15  H   UNK N   1      37.678  11.314  10.366  0.00  0.00     0.169 HD
ENDROOT
BRANCH   7  16
HETATM   16  C   UNK N   1      36.406  13.834  15.352  0.00  0.00     0.030 A 
HETATM   17  C   UNK N   1      35.524  13.406  16.404  0.00  0.00     0.128 A 
HETATM   18  F   UNK N   1      34.728  12.325  16.345  0.00  0.00    -0.205 F 
HETATM   19  C   UNK N   1      35.484  14.104  17.619  0.00  0.00     0.043 A 
HETATM   20  C   UNK N   1      36.290  15.212  17.847  0.00  0.00     0.003 A 
HETATM   21  C   UNK N   1      37.163  15.638  16.861  0.00  0.00     0.001 A 
HETATM   22  C   UNK N   1      37.215  14.962  15.646  0.00  0.00     0.017 A 
ENDBRANCH   7  16
BRANCH   8  23
HETATM   23  C   UNK N   1      35.878  15.460  11.068  0.00  0.00     0.291 C 
HETATM   24  O   UNK N   1      36.695  16.330  10.793  0.00  0.00    -0.262 OA
BRANCH  23  25
HETATM   25  O   UNK N   1      34.549  15.693  10.931  0.00  0.00    -0.320 OA
BRANCH  25  26
HETATM   26  C   UNK N   1      33.695  14.854  10.258  0.00  0.00     0.174 C 
HETATM   27  C   UNK N   1      33.797  15.138   8.774  0.00  0.00     0.034 C 
ENDBRANCH  25  26
ENDBRANCH  23  25
ENDBRANCH   8  23
TORSDOF 4
ENDMDL
MODEL 3
REMARK VINA RESULT:      -6.7     12.863     14.044
REMARK  4 active torsions:
REMARK  status: ('A' for Active; 'I' for Inactive)
REMARK    1  A    between atoms: O_3  and  C_17 
REMARK    2  A    between atoms: O_3  and  C_25 
REMARK    3  A    between atoms: C_10  and  C_13 
REMARK    4  A    between atoms: C_11  and  C_17 
ROOT
HETATM    1 Cl   UNK N   1      18.689  11.996   2.480  0.00  0.00    -0.084 Cl
HETATM    2  O   UNK N   1      20.633  19.549   0.192  0.00  0.00    -0.270 OA
HETATM    3  N   UNK N   1      20.105  17.446   0.525  0.00  0.00    -0.324 N 
HETATM    4  N   UNK N   1      20.838  17.934   3.467  0.00  0.00    -0.367 N 
ATOM      5  HN  UNK N   1      21.186  18.342   4.335  1.00  0.00     0.161 HD
HETATM    6  C   UNK N   1      20.007  15.825   2.506  0.00  0.00     0.020 A 
HETATM    7  C   UNK N   1      20.564  16.687   3.632  0.00  0.00     0.055 C 
HETATM    8  C   UNK N   1      20.802  18.917   2.427  0.00  0.00     0.275 C 
HETATM    9  C   UNK N   1      19.824  16.195   1.124  0.00  0.00     0.047 A 
HETATM   10  C   UNK N   1      20.510  18.636   0.994  0.00  0.00     0.255 C 
HETATM   11  C   UNK N   1      19.616  14.530   2.848  0.00  0.00     0.040 A 
HETATM   12  C   UNK N   1      19.313  15.244   0.224  0.00  0.00     0.032 A 
HETATM   13  C   UNK N   1      19.113  13.606   1.943  0.00  0.00     0.035 A 
HETATM   14  C   UNK N   1      18.966  13.963   0.618  0.00  0.00     0.026 A 
HETATM   15  H   UNK N   1      19.973  17.443  -0.450  0.00  0.00     0.169 HD
ENDROOT
BRANCH   7  16
HETATM   16  C   UNK N   1      20.832  16.217   5.080  0.00  0.00     0.030 A 
HETATM   17  C   UNK N   1      19.914  16.014   6.169  0.00  0.00     0.128 A 
HETATM   18  F   UNK N   1      18.582  16.179   6.090  0.00  0.00    -0.205 F 
HETATM   19  C   UNK N   1      20.382  15.567   7.412  0.00  0.00     0.043 A 
HETATM   20  C   UNK N   1      21.728  15.302   7.629  0.00  0.00     0.003 A 
HETATM   21  C   UNK N   1      22.633  15.470   6.596  0.00  0.00     0.001 A 
HETATM   22  C   UNK N   1      22.191  15.917   5.355  0.00  0.00     0.017 A 
ENDBRANCH   7  16
BRANCH   8  23
HETATM   23  C   UNK N   1      21.316  20.253   2.900  0.00  0.00     0.291 C 
HETATM   24  O   UNK N   1      20.598  21.014   3.538  0.00  0.00    -0.262 OA
BRANCH  23  25
HETATM   25  O   UNK N   1      22.590  20.601   2.594  0.00  0.00    -0.320 OA
BRANCH  25  26
HETATM   26  C   UNK N   1      23.693  20.096   3.237  0.00  0.00     0.174 C 
HETATM   27  C   UNK N   1      24.940  20.635   2.567  0.00  0.00     0.034 C 
ENDBRANCH  25  26
ENDBRANCH  23  25
ENDBRANCH   8  23
TORSDOF 4
ENDMDL
MODEL 4
REMARK VINA RESULT:      -6.7      4.223      7.284
REMARK  4 active torsions:
REMARK  status: ('A' for Active; 'I' for Inactive)
REMARK    1  A    between atoms: O_3  and  C_17 
REMARK    2  A    between atoms: O_3  and  C_25 
REMARK    3  A    between atoms: C_10  and  C_13 
REMARK    4  A    between atoms: C_11  and  C_17 
ROOT
HETATM    1 Cl   UNK N   1      33.857  19.018  -7.467  0.00  0.00    -0.084 Cl
HETATM    2  O   UNK N   1      30.372  23.093  -1.360  0.00  0.00    -0.270 OA
HETATM    3  N   UNK N   1      31.487  21.876  -2.806  0.00  0.00    -0.324 N 
HETATM    4  N   UNK N   1      29.240  22.536  -4.793  0.00  0.00    -0.367 N 
ATOM      5  HN  UNK N   1      28.368  22.855  -5.213  1.00  0.00     0.161 HD
HETATM    6  C   UNK N   1      31.240  21.177  -5.257  0.00  0.00     0.020 A 
HETATM    7  C   UNK N   1      29.888  21.784  -5.612  0.00  0.00     0.055 C 
HETATM    8  C   UNK N   1      29.380  23.056  -3.466  0.00  0.00     0.275 C 
HETATM    9  C   UNK N   1      31.922  21.230  -3.987  0.00  0.00     0.047 A 
HETATM   10  C   UNK N   1      30.443  22.663  -2.500  0.00  0.00     0.255 C 
HETATM   11  C   UNK N   1      31.906  20.500  -6.279  0.00  0.00     0.040 A 
HETATM   12  C   UNK N   1      33.162  20.585  -3.849  0.00  0.00     0.032 A 
HETATM   13  C   UNK N   1      33.132  19.869  -6.122  0.00  0.00     0.035 A 
HETATM   14  C   UNK N   1      33.763  19.904  -4.896  0.00  0.00     0.026 A 
HETATM   15  H   UNK N   1      32.081  21.713  -2.037  0.00  0.00     0.169 HD
ENDROOT
BRANCH   7  16
HETATM   16  C   UNK N   1      29.151  21.619  -6.961  0.00  0.00     0.030 A 
HETATM   17  C   UNK N   1      28.839  20.427  -7.702  0.00  0.00     0.128 A 
HETATM   18  F   UNK N   1      29.127  19.177  -7.300  0.00  0.00    -0.205 F 
HETATM   19  C   UNK N   1      28.144  20.512  -8.916  0.00  0.00     0.043 A 
HETATM   20  C   UNK N   1      27.733  21.734  -9.433  0.00  0.00     0.003 A 
HETATM   21  C   UNK N   1      28.002  22.898  -8.734  0.00  0.00     0.001 A 
HETATM   22  C   UNK N   1      28.694  22.836  -7.529  0.00  0.00     0.017 A 
ENDBRANCH   7  16
BRANCH   8  23
HETATM   23  C   UNK N   1      28.191  23.891  -3.063  0.00  0.00     0.291 C 
HETATM   24  O   UNK N   1      27.427  23.515  -2.183  0.00  0.00    -0.262 OA
BRANCH  23  25
HETATM   25  O   UNK N   1      27.978  25.066  -3.706  0.00  0.00    -0.320 OA
BRANCH  25  26
HETATM   26  C   UNK N   1      26.738  25.499  -4.108  0.00  0.00     0.174 C 
HETATM   27  C   UNK N   1      26.222  24.572  -5.188  0.00  0.00     0.034 C 
ENDBRANCH  25  26
ENDBRANCH  23  25
ENDBRANCH   8  23
TORSDOF 4
ENDMDL
MODEL 5
REMARK VINA RESULT:      -6.6     17.067     18.672
REMARK  4 active torsions:
REMARK  status: ('A' for Active; 'I' for Inactive)
REMARK    1  A    between atoms: O_3  and  C_17 
REMARK    2  A    between atoms: O_3  and  C_25 
REMARK    3  A    between atoms: C_10  and  C_13 
REMARK    4  A    between atoms: C_11  and  C_17 
ROOT
HETATM    1 Cl   UNK N   1      21.748   8.883   5.547  0.00  0.00    -0.084 Cl
HETATM    2  O   UNK N   1      18.822  16.465   5.442  0.00  0.00    -0.270 OA
HETATM    3  N   UNK N   1      19.555  14.413   5.184  0.00  0.00    -0.324 N 
HETATM    4  N   UNK N   1      20.798  14.717   7.976  0.00  0.00    -0.367 N 
ATOM      5  HN  UNK N   1      21.138  15.094   8.860  1.00  0.00     0.161 HD
HETATM    6  C   UNK N   1      20.895  12.711   6.552  0.00  0.00     0.020 A 
HETATM    7  C   UNK N   1      21.254  13.528   7.787  0.00  0.00     0.055 C 
HETATM    8  C   UNK N   1      19.957  15.668   7.312  0.00  0.00     0.275 C 
HETATM    9  C   UNK N   1      20.140  13.143   5.401  0.00  0.00     0.047 A 
HETATM   10  C   UNK N   1      19.427  15.522   5.929  0.00  0.00     0.255 C 
HETATM   11  C   UNK N   1      21.334  11.387   6.532  0.00  0.00     0.040 A 
HETATM   12  C   UNK N   1      19.931  12.241   4.343  0.00  0.00     0.032 A 
HETATM   13  C   UNK N   1      21.117  10.513   5.477  0.00  0.00     0.035 A 
HETATM   14  C   UNK N   1      20.416  10.944   4.369  0.00  0.00     0.026 A 
HETATM   15  H   UNK N   1      19.153  14.503   4.290  0.00  0.00     0.169 HD
ENDROOT
BRANCH   7  16
HETATM   16  C   UNK N   1      22.148  13.053   8.955  0.00  0.00     0.030 A 
HETATM   17  C   UNK N   1      23.581  13.050   9.078  0.00  0.00     0.128 A 
HETATM   18  F   UNK N   1      24.430  13.521   8.149  0.00  0.00    -0.205 F 
HETATM   19  C   UNK N   1      24.187  12.575  10.248  0.00  0.00     0.043 A 
HETATM   20  C   UNK N   1      23.435  12.106  11.317  0.00  0.00     0.003 A 
HETATM   21  C   UNK N   1      22.053  12.113  11.237  0.00  0.00     0.001 A 
HETATM   22  C   UNK N   1      21.431  12.576  10.083  0.00  0.00     0.017 A 
ENDBRANCH   7  16
BRANCH   8  23
HETATM   23  C   UNK N   1      19.844  16.955   8.090  0.00  0.00     0.291 C 
HETATM   24  O   UNK N   1      20.540  17.923   7.808  0.00  0.00    -0.262 OA
BRANCH  23  25
HETATM   25  O   UNK N   1      18.962  17.015   9.117  0.00  0.00    -0.320 OA
BRANCH  25  26
HETATM   26  C   UNK N   1      17.601  17.090   8.949  0.00  0.00     0.174 C 
HETATM   27  C   UNK N   1      17.022  17.967  10.039  0.00  0.00     0.034 C 
ENDBRANCH  25  26
ENDBRANCH  23  25
ENDBRANCH   8  23
TORSDOF 4
ENDMDL
MODEL 6
REMARK VINA RESULT:      -6.5     14.711     17.303
REMARK  4 active torsions:
REMARK  status: ('A' for Active; 'I' for Inactive)
REMARK    1  A    between atoms: O_3  and  C_17 
REMARK    2  A    between atoms: O_3  and  C_25 
REMARK    3  A    between atoms: C_10  and  C_13 
REMARK    4  A    between atoms: C_11  and  C_17 
ROOT
HETATM    1 Cl   UNK N   1      31.172  16.740   2.621  0.00  0.00    -0.084 Cl
HETATM    2  O   UNK N   1      36.275  14.609   8.578  0.00  0.00    -0.270 OA
HETATM    3  N   UNK N   1      35.050  15.001   6.800  0.00  0.00    -0.324 N 
HETATM    4  N   UNK N   1      33.054  16.335   8.715  0.00  0.00    -0.367 N 
ATOM      5  HN  UNK N   1      32.561  16.655   9.549  1.00  0.00     0.161 HD
HETATM    6  C   UNK N   1      32.821  16.148   6.271  0.00  0.00     0.020 A 
HETATM    7  C   UNK N   1      32.331  16.517   7.666  0.00  0.00     0.055 C 
HETATM    8  C   UNK N   1      34.343  15.814   9.060  0.00  0.00     0.275 C 
HETATM    9  C   UNK N   1      34.040  15.460   5.921  0.00  0.00     0.047 A 
HETATM   10  C   UNK N   1      35.259  15.110   8.122  0.00  0.00     0.255 C 
HETATM   11  C   UNK N   1      32.006  16.526   5.204  0.00  0.00     0.040 A 
HETATM   12  C   UNK N   1      34.307  15.188   4.569  0.00  0.00     0.032 A 
HETATM   13  C   UNK N   1      32.288  16.247   3.875  0.00  0.00     0.035 A 
HETATM   14  C   UNK N   1      33.444  15.567   3.553  0.00  0.00     0.026 A 
HETATM   15  H   UNK N   1      35.755  14.490   6.341  0.00  0.00     0.169 HD
ENDROOT
BRANCH   7  16
HETATM   16  C   UNK N   1      30.970  17.170   8.001  0.00  0.00     0.030 A 
HETATM   17  C   UNK N   1      29.657  16.881   7.489  0.00  0.00     0.128 A 
HETATM   18  F   UNK N   1      29.378  15.910   6.602  0.00  0.00    -0.205 F 
HETATM   19  C   UNK N   1      28.547  17.601   7.948  0.00  0.00     0.043 A 
HETATM   20  C   UNK N   1      28.674  18.600   8.904  0.00  0.00     0.003 A 
HETATM   21  C   UNK N   1      29.921  18.890   9.430  0.00  0.00     0.001 A 
HETATM   22  C   UNK N   1      31.037  18.189   8.986  0.00  0.00     0.017 A 
ENDBRANCH   7  16
BRANCH   8  23
HETATM   23  C   UNK N   1      34.586  15.857  10.547  0.00  0.00     0.291 C 
HETATM   24  O   UNK N   1      35.097  16.838  11.073  0.00  0.00    -0.262 OA
BRANCH  23  25
HETATM   25  O   UNK N   1      34.235  14.780  11.291  0.00  0.00    -0.320 OA
BRANCH  25  26
HETATM   26  C   UNK N   1      35.107  14.104  12.110  0.00  0.00     0.174 C 
HETATM   27  C   UNK N   1      35.056  12.630  11.767  0.00  0.00     0.034 C 
ENDBRANCH  25  26
ENDBRANCH  23  25
ENDBRANCH   8  23
TORSDOF 4
ENDMDL
MODEL 7
REMARK VINA RESULT:      -6.3     18.984     21.875
REMARK  4 active torsions:
REMARK  status: ('A' for Active; 'I' for Inactive)
REMARK    1  A    between atoms: O_3  and  C_17 
REMARK    2  A    between atoms: O_3  and  C_25 
REMARK    3  A    between atoms: C_10  and  C_13 
REMARK    4  A    between atoms: C_11  and  C_17 
ROOT
HETATM    1 Cl   UNK N   1      36.740  10.883  15.971  0.00  0.00    -0.084 Cl
HETATM    2  O   UNK N   1      35.778  16.950  10.649  0.00  0.00    -0.270 OA
HETATM    3  N   UNK N   1      36.055  15.520  12.290  0.00  0.00    -0.324 N 
HETATM    4  N   UNK N   1      35.172  13.361  10.293  0.00  0.00    -0.367 N 
ATOM      5  HN  UNK N   1      34.809  12.876   9.473  1.00  0.00     0.161 HD
HETATM    6  C   UNK N   1      35.839  12.991  12.634  0.00  0.00     0.020 A 
HETATM    7  C   UNK N   1      35.299  12.545  11.280  0.00  0.00     0.055 C 
HETATM    8  C   UNK N   1      35.386  14.748  10.005  0.00  0.00     0.275 C 
HETATM    9  C   UNK N   1      36.158  14.333  13.054  0.00  0.00     0.047 A 
HETATM   10  C   UNK N   1      35.746  15.784  11.011  0.00  0.00     0.255 C 
HETATM   11  C   UNK N   1      36.065  11.987  13.576  0.00  0.00     0.040 A 
HETATM   12  C   UNK N   1      36.627  14.547  14.362  0.00  0.00     0.032 A 
HETATM   13  C   UNK N   1      36.529  12.219  14.862  0.00  0.00     0.035 A 
HETATM   14  C   UNK N   1      36.807  13.510  15.262  0.00  0.00     0.026 A 
HETATM   15  H   UNK N   1      36.254  16.331  12.812  0.00  0.00     0.169 HD
ENDROOT
BRANCH   7  16
HETATM   16  C   UNK N   1      34.881  11.105  10.906  0.00  0.00     0.030 A 
HETATM   17  C   UNK N   1      34.019  10.185  11.598  0.00  0.00     0.128 A 
HETATM   18  F   UNK N   1      33.367  10.458  12.741  0.00  0.00    -0.205 F 
HETATM   19  C   UNK N   1      33.767   8.915  11.062  0.00  0.00     0.043 A 
HETATM   20  C   UNK N   1      34.329   8.510   9.858  0.00  0.00     0.003 A 
HETATM   21  C   UNK N   1      35.148   9.379   9.159  0.00  0.00     0.001 A 
HETATM   22  C   UNK N   1      35.414  10.643   9.674  0.00  0.00     0.017 A 
ENDBRANCH   7  16
BRANCH   8  23
HETATM   23  C   UNK N   1      34.985  15.095   8.594  0.00  0.00     0.291 C 
HETATM   24  O   UNK N   1      35.676  14.756   7.641  0.00  0.00    -0.262 OA
BRANCH  23  25
HETATM   25  O   UNK N   1      33.845  15.804   8.401  0.00  0.00    -0.320 OA
BRANCH  25  26
HETATM   26  C   UNK N   1      33.750  16.874   7.546  0.00  0.00     0.174 C 
HETATM   27  C   UNK N   1      33.007  17.994   8.244  0.00  0.00     0.034 C 
ENDBRANCH  25  26
ENDBRANCH  23  25
ENDBRANCH   8  23
TORSDOF 4
ENDMDL
MODEL 8
REMARK VINA RESULT:      -6.3     11.300     13.138
REMARK  4 active torsions:
REMARK  status: ('A' for Active; 'I' for Inactive)
REMARK    1  A    between atoms: O_3  and  C_17 
REMARK    2  A    between atoms: O_3  and  C_25 
REMARK    3  A    between atoms: C_10  and  C_13 
REMARK    4  A    between atoms: C_11  and  C_17 
ROOT
HETATM    1 Cl   UNK N   1      27.803  13.952   1.934  0.00  0.00    -0.084 Cl
HETATM    2  O   UNK N   1      20.332  16.298   4.113  0.00  0.00    -0.270 OA
HETATM    3  N   UNK N   1      22.217  15.477   3.344  0.00  0.00    -0.324 N 
HETATM    4  N   UNK N   1      23.578  17.889   4.671  0.00  0.00    -0.367 N 
ATOM      5  HN  UNK N   1      23.756  18.777   5.141  1.00  0.00     0.161 HD
HETATM    6  C   UNK N   1      24.703  16.084   3.432  0.00  0.00     0.020 A 
HETATM    7  C   UNK N   1      24.666  17.413   4.176  0.00  0.00     0.055 C 
HETATM    8  C   UNK N   1      22.191  17.543   4.759  0.00  0.00     0.275 C 
HETATM    9  C   UNK N   1      23.585  15.248   3.068  0.00  0.00     0.047 A 
HETATM   10  C   UNK N   1      21.547  16.405   4.046  0.00  0.00     0.255 C 
HETATM   11  C   UNK N   1      25.964  15.609   3.069  0.00  0.00     0.040 A 
HETATM   12  C   UNK N   1      23.823  14.059   2.358  0.00  0.00     0.032 A 
HETATM   13  C   UNK N   1      26.177  14.431   2.368  0.00  0.00     0.035 A 
HETATM   14  C   UNK N   1      25.098  13.652   2.002  0.00  0.00     0.026 A 
HETATM   15  H   UNK N   1      21.624  14.809   2.930  0.00  0.00     0.169 HD
ENDROOT
BRANCH   7  16
HETATM   16  C   UNK N   1      25.884  18.323   4.460  0.00  0.00     0.030 A 
HETATM   17  C   UNK N   1      26.949  18.166   5.414  0.00  0.00     0.128 A 
HETATM   18  F   UNK N   1      27.086  17.119   6.244  0.00  0.00    -0.205 F 
HETATM   19  C   UNK N   1      27.971  19.122   5.493  0.00  0.00     0.043 A 
HETATM   20  C   UNK N   1      27.992  20.234   4.660  0.00  0.00     0.003 A 
HETATM   21  C   UNK N   1      26.991  20.403   3.719  0.00  0.00     0.001 A 
HETATM   22  C   UNK N   1      25.965  19.468   3.626  0.00  0.00     0.017 A 
ENDBRANCH   7  16
BRANCH   8  23
HETATM   23  C   UNK N   1      21.394  18.598   5.483  0.00  0.00     0.291 C 
HETATM   24  O   UNK N   1      21.174  18.506   6.684  0.00  0.00    -0.262 OA
BRANCH  23  25
HETATM   25  O   UNK N   1      20.915  19.648   4.772  0.00  0.00    -0.320 OA
BRANCH  25  26
HETATM   26  C   UNK N   1      20.573  19.575   3.444  0.00  0.00     0.174 C 
HETATM   27  C   UNK N   1      21.269  20.695   2.698  0.00  0.00     0.034 C 
ENDBRANCH  25  26
ENDBRANCH  23  25
ENDBRANCH   8  23
TORSDOF 4
ENDMDL
MODEL 9
REMARK VINA RESULT:      -6.2     13.316     14.944
REMARK  4 active torsions:
REMARK  status: ('A' for Active; 'I' for Inactive)
REMARK    1  A    between atoms: O_3  and  C_17 
REMARK    2  A    between atoms: O_3  and  C_25 
REMARK    3  A    between atoms: C_10  and  C_13 
REMARK    4  A    between atoms: C_11  and  C_17 
ROOT
HETATM    1 Cl   UNK N   1      23.422  11.023   6.543  0.00  0.00    -0.084 Cl
HETATM    2  O   UNK N   1      21.036  18.789   6.785  0.00  0.00    -0.270 OA
HETATM    3  N   UNK N   1      21.547  16.663   6.978  0.00  0.00    -0.324 N 
HETATM    4  N   UNK N   1      22.307  16.780   4.004  0.00  0.00    -0.367 N 
ATOM      5  HN  UNK N   1      22.429  17.076   3.036  1.00  0.00     0.161 HD
HETATM    6  C   UNK N   1      22.476  14.811   5.472  0.00  0.00     0.020 A 
HETATM    7  C   UNK N   1      22.560  15.525   4.128  0.00  0.00     0.055 C 
HETATM    8  C   UNK N   1      21.903  17.885   4.822  0.00  0.00     0.275 C 
HETATM    9  C   UNK N   1      22.008  15.349   6.726  0.00  0.00     0.047 A 
HETATM   10  C   UNK N   1      21.472  17.785   6.243  0.00  0.00     0.255 C 
HETATM   11  C   UNK N   1      22.912  13.486   5.502  0.00  0.00     0.040 A 
HETATM   12  C   UNK N   1      21.986  14.520   7.860  0.00  0.00     0.032 A 
HETATM   13  C   UNK N   1      22.882  12.684   6.633  0.00  0.00     0.035 A 
HETATM   14  C   UNK N   1      22.409  13.202   7.822  0.00  0.00     0.026 A 
HETATM   15  H   UNK N   1      21.204  16.781   7.893  0.00  0.00     0.169 HD
ENDROOT
BRANCH   7  16
HETATM   16  C   UNK N   1      22.978  14.878   2.788  0.00  0.00     0.030 A 
HETATM   17  C   UNK N   1      24.290  14.653   2.242  0.00  0.00     0.128 A 
HETATM   18  F   UNK N   1      25.441  14.958   2.864  0.00  0.00    -0.205 F 
HETATM   19  C   UNK N   1      24.437  14.031   0.995  0.00  0.00     0.043 A 
HETATM   20  C   UNK N   1      23.338  13.611   0.258  0.00  0.00     0.003 A 
HETATM   21  C   UNK N   1      22.063  13.797   0.764  0.00  0.00     0.001 A 
HETATM   22  C   UNK N   1      21.893  14.416   1.998  0.00  0.00     0.017 A 
ENDBRANCH   7  16
BRANCH   8  23
HETATM   23  C   UNK N   1      21.743  19.150   4.016  0.00  0.00     0.291 C 
HETATM   24  O   UNK N   1      22.714  19.835   3.721  0.00  0.00    -0.262 OA
BRANCH  23  25
HETATM   25  O   UNK N   1      20.496  19.519   3.634  0.00  0.00    -0.320 OA
BRANCH  25  26
HETATM   26  C   UNK N   1      19.644  18.706   2.927  0.00  0.00     0.174 C 
HETATM   27  C   UNK N   1      20.277  18.380   1.590  0.00  0.00     0.034 C 
ENDBRANCH  25  26
ENDBRANCH  23  25
ENDBRANCH   8  23
TORSDOF 4
ENDMDL
