MODEL 1
REMARK VINA RESULT:      -5.4      0.000      0.000
REMARK  4 active torsions:
REMARK  status: ('A' for Active; 'I' for Inactive)
REMARK    1  A    between atoms: N_2  and  C_3 
REMARK    2  A    between atoms: C_3  and  C_4 
REMARK    3  A    between atoms: C_3  and  C_6 
REMARK    4  A    between atoms: C_4  and  C_5 
ROOT
HETATM    1  N   UNK N   1      25.965  29.057  -3.859  0.00  0.00    -0.365 N 
HETATM    2  C   UNK N   1      25.831  27.364  -5.336  0.00  0.00    -0.028 A 
HETATM    3  C   UNK N   1      26.812  28.224  -5.751  0.00  0.00    -0.002 A 
HETATM    4  C   UNK N   1      26.872  29.236  -4.839  0.00  0.00     0.042 A 
HETATM    5  C   UNK N   1      25.314  27.905  -4.159  0.00  0.00     0.096 A 
HETATM    6  C   UNK N   1      27.649  28.187  -6.866  0.00  0.00     0.014 A 
HETATM    7  C   UNK N   1      27.772  30.290  -4.964  0.00  0.00     0.030 A 
HETATM    8  C   UNK N   1      28.570  29.238  -7.026  0.00  0.00     0.001 A 
HETATM    9  C   UNK N   1      28.632  30.285  -6.078  0.00  0.00     0.002 A 
HETATM   10  H   UNK N   1      25.806  29.643  -3.085  0.00  0.00     0.165 HD
ENDROOT
BRANCH   2  11
HETATM   11  C   UNK N   1      25.440  26.094  -6.042  0.00  0.00     0.065 C 
BRANCH  11  12
HETATM   12  C   UNK N   1      25.640  24.793  -5.267  0.00  0.00     0.077 C 
BRANCH  12  13
HETATM   13  N   UNK N   1      25.259  23.683  -6.122  0.00  0.00    -0.426 N 
HETATM   14  H   UNK N   1      25.772  22.803  -6.078  0.00  0.00     0.150 HD
HETATM   15  H   UNK N   1      24.475  23.785  -6.768  0.00  0.00     0.150 HD
ENDBRANCH  12  13
BRANCH  12  16
HETATM   16  C   UNK N   1      27.076  24.592  -4.817  0.00  0.00     0.020 C 
HETATM   17  C   UNK N   1      27.108  24.404  -3.312  0.00  0.00     0.007 C 
ENDBRANCH  12  16
ENDBRANCH  11  12
ENDBRANCH   2  11
TORSDOF 4
ENDMDL
MODEL 2
REMARK VINA RESULT:      -5.3     25.989     28.997
REMARK  4 active torsions:
REMARK  status: ('A' for Active; 'I' for Inactive)
REMARK    1  A    between atoms: N_2  and  C_3 
REMARK    2  A    between atoms: C_3  and  C_4 
REMARK    3  A    between atoms: C_3  and  C_6 
REMARK    4  A    between atoms: C_4  and  C_5 
ROOT
HETATM    1  N   UNK N   1      35.150  13.306  19.497  0.00  0.00    -0.365 N 
HETATM    2  C   UNK N   1      35.340  12.981  17.278  0.00  0.00    -0.028 A 
HETATM    3  C   UNK N   1      35.260  11.759  17.890  0.00  0.00    -0.002 A 
HETATM    4  C   UNK N   1      35.145  11.986  19.230  0.00  0.00     0.042 A 
HETATM    5  C   UNK N   1      35.274  13.930  18.298  0.00  0.00     0.096 A 
HETATM    6  C   UNK N   1      35.287  10.469  17.362  0.00  0.00     0.014 A 
HETATM    7  C   UNK N   1      35.043  10.947  20.148  0.00  0.00     0.030 A 
HETATM    8  C   UNK N   1      35.190   9.392  18.262  0.00  0.00     0.001 A 
HETATM    9  C   UNK N   1      35.067   9.630  19.650  0.00  0.00     0.002 A 
HETATM   10  H   UNK N   1      35.080  13.731  20.381  0.00  0.00     0.165 HD
ENDROOT
BRANCH   2  11
HETATM   11  C   UNK N   1      35.459  13.199  15.794  0.00  0.00     0.065 C 
BRANCH  11  12
HETATM   12  C   UNK N   1      36.829  13.634  15.275  0.00  0.00     0.077 C 
BRANCH  12  13
HETATM   13  N   UNK N   1      37.133  12.869  14.080  0.00  0.00    -0.426 N 
HETATM   14  H   UNK N   1      37.340  13.348  13.204  0.00  0.00     0.150 HD
HETATM   15  H   UNK N   1      37.141  11.849  14.116  0.00  0.00     0.150 HD
ENDBRANCH  12  13
BRANCH  12  16
HETATM   16  C   UNK N   1      36.886  15.113  14.937  0.00  0.00     0.020 C 
HETATM   17  C   UNK N   1      37.502  15.869  16.099  0.00  0.00     0.007 C 
ENDBRANCH  12  16
ENDBRANCH  11  12
ENDBRANCH   2  11
TORSDOF 4
ENDMDL
MODEL 3
REMARK VINA RESULT:      -5.3      2.638      4.267
REMARK  4 active torsions:
REMARK  status: ('A' for Active; 'I' for Inactive)
REMARK    1  A    between atoms: N_2  and  C_3 
REMARK    2  A    between atoms: C_3  and  C_4 
REMARK    3  A    between atoms: C_3  and  C_6 
REMARK    4  A    between atoms: C_4  and  C_5 
ROOT
HETATM    1  N   UNK N   1      25.469  24.576  -5.984  0.00  0.00    -0.365 N 
HETATM    2  C   UNK N   1      26.710  24.379  -4.117  0.00  0.00    -0.028 A 
HETATM    3  C   UNK N   1      26.239  25.662  -4.191  0.00  0.00    -0.002 A 
HETATM    4  C   UNK N   1      25.492  25.753  -5.328  0.00  0.00     0.042 A 
HETATM    5  C   UNK N   1      26.221  23.721  -5.246  0.00  0.00     0.096 A 
HETATM    6  C   UNK N   1      26.422  26.754  -3.342  0.00  0.00     0.014 A 
HETATM    7  C   UNK N   1      24.866  26.935  -5.708  0.00  0.00     0.030 A 
HETATM    8  C   UNK N   1      25.806  27.967  -3.696  0.00  0.00     0.001 A 
HETATM    9  C   UNK N   1      25.029  28.057  -4.873  0.00  0.00     0.002 A 
HETATM   10  H   UNK N   1      25.002  24.378  -6.827  0.00  0.00     0.165 HD
ENDROOT
BRANCH   2  11
HETATM   11  C   UNK N   1      27.567  23.835  -3.007  0.00  0.00     0.065 C 
BRANCH  11  12
HETATM   12  C   UNK N   1      29.040  23.597  -3.335  0.00  0.00     0.077 C 
BRANCH  12  13
HETATM   13  N   UNK N   1      29.654  24.875  -3.650  0.00  0.00    -0.426 N 
HETATM   14  H   UNK N   1      29.970  25.490  -2.901  0.00  0.00     0.150 HD
HETATM   15  H   UNK N   1      29.769  25.158  -4.624  0.00  0.00     0.150 HD
ENDBRANCH  12  13
BRANCH  12  16
HETATM   16  C   UNK N   1      29.802  22.959  -2.187  0.00  0.00     0.020 C 
HETATM   17  C   UNK N   1      31.065  22.311  -2.723  0.00  0.00     0.007 C 
ENDBRANCH  12  16
ENDBRANCH  11  12
ENDBRANCH   2  11
TORSDOF 4
ENDMDL
MODEL 4
REMARK VINA RESULT:      -5.3     18.712     21.319
REMARK  4 active torsions:
REMARK  status: ('A' for Active; 'I' for Inactive)
REMARK    1  A    between atoms: N_2  and  C_3 
REMARK    2  A    between atoms: C_3  and  C_4 
REMARK    3  A    between atoms: C_3  and  C_6 
REMARK    4  A    between atoms: C_4  and  C_5 
ROOT
HETATM    1  N   UNK N   1      21.058  12.132  11.608  0.00  0.00    -0.365 N 
HETATM    2  C   UNK N   1      20.932  13.415   9.763  0.00  0.00    -0.028 A 
HETATM    3  C   UNK N   1      22.245  13.092   9.978  0.00  0.00    -0.002 A 
HETATM    4  C   UNK N   1      22.291  12.316  11.098  0.00  0.00     0.042 A 
HETATM    5  C   UNK N   1      20.211  12.810  10.792  0.00  0.00     0.096 A 
HETATM    6  C   UNK N   1      23.398  13.432   9.270  0.00  0.00     0.014 A 
HETATM    7  C   UNK N   1      23.487  11.815  11.600  0.00  0.00     0.030 A 
HETATM    8  C   UNK N   1      24.626  12.946   9.751  0.00  0.00     0.001 A 
HETATM    9  C   UNK N   1      24.671  12.138  10.910  0.00  0.00     0.002 A 
HETATM   10  H   UNK N   1      20.820  11.613  12.409  0.00  0.00     0.165 HD
ENDROOT
BRANCH   2  11
HETATM   11  C   UNK N   1      20.423  14.247   8.618  0.00  0.00     0.065 C 
BRANCH  11  12
HETATM   12  C   UNK N   1      20.608  15.759   8.737  0.00  0.00     0.077 C 
BRANCH  12  13
HETATM   13  N   UNK N   1      21.379  16.220   7.596  0.00  0.00    -0.426 N 
HETATM   14  H   UNK N   1      22.367  16.449   7.704  0.00  0.00     0.150 HD
HETATM   15  H   UNK N   1      20.931  16.316   6.684  0.00  0.00     0.150 HD
ENDBRANCH  12  13
BRANCH  12  16
HETATM   16  C   UNK N   1      19.290  16.511   8.773  0.00  0.00     0.020 C 
HETATM   17  C   UNK N   1      19.556  17.975   9.070  0.00  0.00     0.007 C 
ENDBRANCH  12  16
ENDBRANCH  11  12
ENDBRANCH   2  11
TORSDOF 4
ENDMDL
MODEL 5
REMARK VINA RESULT:      -5.2     25.739     27.791
REMARK  4 active torsions:
REMARK  status: ('A' for Active; 'I' for Inactive)
REMARK    1  A    between atoms: N_2  and  C_3 
REMARK    2  A    between atoms: C_3  and  C_4 
REMARK    3  A    between atoms: C_3  and  C_6 
REMARK    4  A    between atoms: C_4  and  C_5 
ROOT
HETATM    1  N   UNK N   1      36.814  13.697  14.478  0.00  0.00    -0.365 N 
HETATM    2  C   UNK N   1      35.510  13.289  16.266  0.00  0.00    -0.028 A 
HETATM    3  C   UNK N   1      35.109  12.473  15.242  0.00  0.00    -0.002 A 
HETATM    4  C   UNK N   1      35.915  12.741  14.175  0.00  0.00     0.042 A 
HETATM    5  C   UNK N   1      36.570  14.045  15.767  0.00  0.00     0.096 A 
HETATM    6  C   UNK N   1      34.091  11.523  15.175  0.00  0.00     0.014 A 
HETATM    7  C   UNK N   1      35.773  12.081  12.959  0.00  0.00     0.030 A 
HETATM    8  C   UNK N   1      33.915  10.838  13.959  0.00  0.00     0.001 A 
HETATM    9  C   UNK N   1      34.754  11.115  12.855  0.00  0.00     0.002 A 
HETATM   10  H   UNK N   1      37.506  14.068  13.885  0.00  0.00     0.165 HD
ENDROOT
BRANCH   2  11
HETATM   11  C   UNK N   1      34.902  13.311  17.642  0.00  0.00     0.065 C 
BRANCH  11  12
HETATM   12  C   UNK N   1      35.588  12.455  18.706  0.00  0.00     0.077 C 
BRANCH  12  13
HETATM   13  N   UNK N   1      35.251  12.988  20.014  0.00  0.00    -0.426 N 
HETATM   14  H   UNK N   1      34.376  13.493  20.151  0.00  0.00     0.150 HD
HETATM   15  H   UNK N   1      35.892  12.857  20.797  0.00  0.00     0.150 HD
ENDBRANCH  12  13
BRANCH  12  16
HETATM   16  C   UNK N   1      35.166  10.998  18.649  0.00  0.00     0.020 C 
HETATM   17  C   UNK N   1      36.305  10.168  18.085  0.00  0.00     0.007 C 
ENDBRANCH  12  16
ENDBRANCH  11  12
ENDBRANCH   2  11
TORSDOF 4
ENDMDL
MODEL 6
REMARK VINA RESULT:      -5.1     12.983     15.395
REMARK  4 active torsions:
REMARK  status: ('A' for Active; 'I' for Inactive)
REMARK    1  A    between atoms: N_2  and  C_3 
REMARK    2  A    between atoms: C_3  and  C_4 
REMARK    3  A    between atoms: C_3  and  C_6 
REMARK    4  A    between atoms: C_4  and  C_5 
ROOT
HETATM    1  N   UNK N   1      27.354  19.542   8.297  0.00  0.00    -0.365 N 
HETATM    2  C   UNK N   1      28.845  18.130   7.377  0.00  0.00    -0.028 A 
HETATM    3  C   UNK N   1      28.285  18.879   6.378  0.00  0.00    -0.002 A 
HETATM    4  C   UNK N   1      27.388  19.724   6.963  0.00  0.00     0.042 A 
HETATM    5  C   UNK N   1      28.249  18.557   8.563  0.00  0.00     0.096 A 
HETATM    6  C   UNK N   1      28.497  18.870   5.000  0.00  0.00     0.014 A 
HETATM    7  C   UNK N   1      26.635  20.629   6.222  0.00  0.00     0.030 A 
HETATM    8  C   UNK N   1      27.750  19.770   4.218  0.00  0.00     0.001 A 
HETATM    9  C   UNK N   1      26.824  20.648   4.827  0.00  0.00     0.002 A 
HETATM   10  H   UNK N   1      26.794  20.025   8.946  0.00  0.00     0.165 HD
ENDROOT
BRANCH   2  11
HETATM   11  C   UNK N   1      29.904  17.080   7.180  0.00  0.00     0.065 C 
BRANCH  11  12
HETATM   12  C   UNK N   1      31.288  17.390   7.748  0.00  0.00     0.077 C 
BRANCH  12  13
HETATM   13  N   UNK N   1      31.471  16.618   8.964  0.00  0.00    -0.426 N 
HETATM   14  H   UNK N   1      31.275  15.617   8.969  0.00  0.00     0.150 HD
HETATM   15  H   UNK N   1      31.796  17.078   9.815  0.00  0.00     0.150 HD
ENDBRANCH  12  13
BRANCH  12  16
HETATM   16  C   UNK N   1      32.409  17.051   6.781  0.00  0.00     0.020 C 
HETATM   17  C   UNK N   1      31.915  17.234   5.358  0.00  0.00     0.007 C 
ENDBRANCH  12  16
ENDBRANCH  11  12
ENDBRANCH   2  11
TORSDOF 4
ENDMDL
MODEL 7
REMARK VINA RESULT:      -5.1     12.551     15.360
REMARK  4 active torsions:
REMARK  status: ('A' for Active; 'I' for Inactive)
REMARK    1  A    between atoms: N_2  and  C_3 
REMARK    2  A    between atoms: C_3  and  C_4 
REMARK    3  A    between atoms: C_3  and  C_6 
REMARK    4  A    between atoms: C_4  and  C_5 
ROOT
HETATM    1  N   UNK N   1      28.822  18.012   4.152  0.00  0.00    -0.365 N 
HETATM    2  C   UNK N   1      29.055  17.760   6.376  0.00  0.00    -0.028 A 
HETATM    3  C   UNK N   1      28.280  18.865   6.144  0.00  0.00    -0.002 A 
HETATM    4  C   UNK N   1      28.155  18.992   4.792  0.00  0.00     0.042 A 
HETATM    5  C   UNK N   1      29.384  17.247   5.122  0.00  0.00     0.096 A 
HETATM    6  C   UNK N   1      27.684  19.766   7.026  0.00  0.00     0.014 A 
HETATM    7  C   UNK N   1      27.425  20.024   4.212  0.00  0.00     0.030 A 
HETATM    8  C   UNK N   1      26.940  20.824   6.475  0.00  0.00     0.001 A 
HETATM    9  C   UNK N   1      26.809  20.952   5.074  0.00  0.00     0.002 A 
HETATM   10  H   UNK N   1      28.889  17.879   3.180  0.00  0.00     0.165 HD
ENDROOT
BRANCH   2  11
HETATM   11  C   UNK N   1      29.432  17.239   7.736  0.00  0.00     0.065 C 
BRANCH  11  12
HETATM   12  C   UNK N   1      30.527  18.002   8.481  0.00  0.00     0.077 C 
BRANCH  12  13
HETATM   13  N   UNK N   1      30.065  18.270   9.831  0.00  0.00    -0.426 N 
HETATM   14  H   UNK N   1      30.337  17.653  10.597  0.00  0.00     0.150 HD
HETATM   15  H   UNK N   1      29.469  19.077  10.015  0.00  0.00     0.150 HD
ENDBRANCH  12  13
BRANCH  12  16
HETATM   16  C   UNK N   1      31.833  17.232   8.554  0.00  0.00     0.020 C 
HETATM   17  C   UNK N   1      32.750  17.693   7.437  0.00  0.00     0.007 C 
ENDBRANCH  12  16
ENDBRANCH  11  12
ENDBRANCH   2  11
TORSDOF 4
ENDMDL
MODEL 8
REMARK VINA RESULT:      -5.0     13.524     16.232
REMARK  4 active torsions:
REMARK  status: ('A' for Active; 'I' for Inactive)
REMARK    1  A    between atoms: N_2  and  C_3 
REMARK    2  A    between atoms: C_3  and  C_4 
REMARK    3  A    between atoms: C_3  and  C_6 
REMARK    4  A    between atoms: C_4  and  C_5 
ROOT
HETATM    1  N   UNK N   1      31.228  17.708   9.159  0.00  0.00    -0.365 N 
HETATM    2  C   UNK N   1      29.667  17.331   7.583  0.00  0.00    -0.028 A 
HETATM    3  C   UNK N   1      30.895  17.357   6.978  0.00  0.00    -0.002 A 
HETATM    4  C   UNK N   1      31.819  17.586   7.955  0.00  0.00     0.042 A 
HETATM    5  C   UNK N   1      29.897  17.555   8.940  0.00  0.00     0.096 A 
HETATM    6  C   UNK N   1      31.260  17.202   5.641  0.00  0.00     0.014 A 
HETATM    7  C   UNK N   1      33.179  17.674   7.677  0.00  0.00     0.030 A 
HETATM    8  C   UNK N   1      32.626  17.289   5.323  0.00  0.00     0.001 A 
HETATM    9  C   UNK N   1      33.583  17.523   6.337  0.00  0.00     0.002 A 
HETATM   10  H   UNK N   1      31.671  17.875  10.021  0.00  0.00     0.165 HD
ENDROOT
BRANCH   2  11
HETATM   11  C   UNK N   1      28.361  17.087   6.876  0.00  0.00     0.065 C 
BRANCH  11  12
HETATM   12  C   UNK N   1      27.785  18.260   6.083  0.00  0.00     0.077 C 
BRANCH  12  13
HETATM   13  N   UNK N   1      26.407  17.952   5.741  0.00  0.00    -0.426 N 
HETATM   14  H   UNK N   1      25.886  17.265   6.287  0.00  0.00     0.150 HD
HETATM   15  H   UNK N   1      25.960  18.423   4.954  0.00  0.00     0.150 HD
ENDBRANCH  12  13
BRANCH  12  16
HETATM   16  C   UNK N   1      27.816  19.565   6.858  0.00  0.00     0.020 C 
HETATM   17  C   UNK N   1      27.534  20.716   5.911  0.00  0.00     0.007 C 
ENDBRANCH  12  16
ENDBRANCH  11  12
ENDBRANCH   2  11
TORSDOF 4
ENDMDL
MODEL 9
REMARK VINA RESULT:      -4.9     25.615     28.338
REMARK  4 active torsions:
REMARK  status: ('A' for Active; 'I' for Inactive)
REMARK    1  A    between atoms: N_2  and  C_3 
REMARK    2  A    between atoms: C_3  and  C_4 
REMARK    3  A    between atoms: C_3  and  C_6 
REMARK    4  A    between atoms: C_4  and  C_5 
ROOT
HETATM    1  N   UNK N   1      36.056   9.724  17.644  0.00  0.00    -0.365 N 
HETATM    2  C   UNK N   1      35.854  11.133  15.901  0.00  0.00    -0.028 A 
HETATM    3  C   UNK N   1      35.614  11.832  17.053  0.00  0.00    -0.002 A 
HETATM    4  C   UNK N   1      35.744  10.956  18.090  0.00  0.00     0.042 A 
HETATM    5  C   UNK N   1      36.123   9.822  16.292  0.00  0.00     0.096 A 
HETATM    6  C   UNK N   1      35.286  13.172  17.258  0.00  0.00     0.014 A 
HETATM    7  C   UNK N   1      35.562  11.346  19.413  0.00  0.00     0.030 A 
HETATM    8  C   UNK N   1      35.091  13.601  18.583  0.00  0.00     0.001 A 
HETATM    9  C   UNK N   1      35.229  12.693  19.657  0.00  0.00     0.002 A 
HETATM   10  H   UNK N   1      36.204   8.918  18.188  0.00  0.00     0.165 HD
ENDROOT
BRANCH   2  11
HETATM   11  C   UNK N   1      35.834  11.717  14.515  0.00  0.00     0.065 C 
BRANCH  11  12
HETATM   12  C   UNK N   1      34.467  11.828  13.840  0.00  0.00     0.077 C 
BRANCH  12  13
HETATM   13  N   UNK N   1      34.642  12.466  12.547  0.00  0.00    -0.426 N 
HETATM   14  H   UNK N   1      33.840  12.600  11.931  0.00  0.00     0.150 HD
HETATM   15  H   UNK N   1      35.568  12.779  12.255  0.00  0.00     0.150 HD
ENDBRANCH  12  13
BRANCH  12  16
HETATM   16  C   UNK N   1      33.803  10.479  13.635  0.00  0.00     0.020 C 
HETATM   17  C   UNK N   1      33.870  10.106  12.165  0.00  0.00     0.007 C 
ENDBRANCH  12  16
ENDBRANCH  11  12
ENDBRANCH   2  11
TORSDOF 4
ENDMDL
