MODEL 1
REMARK VINA RESULT:      -6.8      0.000      0.000
REMARK  3 active torsions:
REMARK  status: ('A' for Active; 'I' for Inactive)
REMARK    1  A    between atoms: C_14  and  O_2 
REMARK    2  A    between atoms: O_3  and  C_18 
REMARK    3  A    between atoms: O_4  and  C_21 
ROOT
HETATM    1  O   UNK N   1      33.741  13.132  10.150  0.00  0.00    -0.386 OA
HETATM    2  N   UNK N   1      36.845  11.133  10.336  0.00  0.00     0.092 N 
HETATM    3  C   UNK N   1      35.636  13.396  11.667  0.00  0.00     0.027 C 
HETATM    4  C   UNK N   1      35.121  12.905  10.273  0.00  0.00     0.101 C 
HETATM    5  C   UNK N   1      35.393  11.410  10.171  0.00  0.00     0.262 C 
HETATM    6  C   UNK N   1      35.315  14.903  11.714  0.00  0.00     0.049 C 
HETATM    7  C   UNK N   1      37.151  13.159  11.738  0.00  0.00     0.048 C 
HETATM    8  C   UNK N   1      35.829  13.652   9.127  0.00  0.00     0.043 C 
HETATM    9  C   UNK N   1      35.025  12.585  12.843  0.00  0.00    -0.004 A 
HETATM   10  C   UNK N   1      34.486  10.692  11.188  0.00  0.00     0.078 C 
HETATM   11  C   UNK N   1      35.988  15.684  10.576  0.00  0.00     0.119 C 
HETATM   12  C   UNK N   1      37.435  11.661  11.574  0.00  0.00     0.273 C 
HETATM   13  C   UNK N   1      35.555  15.149   9.217  0.00  0.00     0.035 C 
HETATM   14  C   UNK N   1      34.457  11.308  12.559  0.00  0.00    -0.046 A 
HETATM   15  C   UNK N   1      35.139  12.975  14.222  0.00  0.00     0.109 A 
HETATM   16  C   UNK N   1      37.108   9.702  10.286  0.00  0.00     0.310 C 
HETATM   17  C   UNK N   1      33.940  10.519  13.576  0.00  0.00     0.011 A 
HETATM   18  C   UNK N   1      34.605  12.133  15.246  0.00  0.00     0.102 A 
HETATM   19  C   UNK N   1      33.994  10.932  14.893  0.00  0.00     0.040 A 
HETATM   20  H   UNK N   1      32.772  13.184  10.165  0.00  0.00     0.210 HD
ENDROOT
BRANCH  11  21
HETATM   21  O   UNK N   1      35.652  17.033  10.668  0.00  0.00    -0.396 OA
HETATM   22  H   UNK N   1      35.519  17.585   9.882  0.00  0.00     0.210 HD
ENDBRANCH  11  21
BRANCH  15  23
HETATM   23  O   UNK N   1      35.810  14.102  14.579  0.00  0.00    -0.352 OA
HETATM   24  C   UNK N   1      37.018  14.087  15.230  0.00  0.00     0.210 C 
ENDBRANCH  15  23
BRANCH  18  25
HETATM   25  O   UNK N   1      34.657  12.415  16.573  0.00  0.00    -0.353 OA
HETATM   26  C   UNK N   1      35.318  11.687  17.534  0.00  0.00     0.210 C 
ENDBRANCH  18  25
TORSDOF 3
ENDMDL
MODEL 2
REMARK VINA RESULT:      -6.6     19.682     23.066
REMARK  3 active torsions:
REMARK  status: ('A' for Active; 'I' for Inactive)
REMARK    1  A    between atoms: C_14  and  O_2 
REMARK    2  A    between atoms: O_3  and  C_18 
REMARK    3  A    between atoms: O_4  and  C_21 
ROOT
HETATM    1  O   UNK N   1      25.199  24.512  -5.588  0.00  0.00    -0.386 OA
HETATM    2  N   UNK N   1      27.429  25.799  -8.242  0.00  0.00     0.092 N 
HETATM    3  C   UNK N   1      27.330  25.681  -5.355  0.00  0.00     0.027 C 
HETATM    4  C   UNK N   1      26.051  25.432  -6.221  0.00  0.00     0.101 C 
HETATM    5  C   UNK N   1      26.493  24.862  -7.563  0.00  0.00     0.262 C 
HETATM    6  C   UNK N   1      26.814  26.235  -4.013  0.00  0.00     0.049 C 
HETATM    7  C   UNK N   1      28.209  26.717  -6.071  0.00  0.00     0.048 C 
HETATM    8  C   UNK N   1      25.263  26.739  -6.434  0.00  0.00     0.043 C 
HETATM    9  C   UNK N   1      28.207  24.406  -5.215  0.00  0.00    -0.004 A 
HETATM   10  C   UNK N   1      27.067  23.455  -7.314  0.00  0.00     0.078 C 
HETATM   11  C   UNK N   1      26.007  27.530  -4.182  0.00  0.00     0.119 C 
HETATM   12  C   UNK N   1      28.607  26.173  -7.449  0.00  0.00     0.273 C 
HETATM   13  C   UNK N   1      24.809  27.312  -5.096  0.00  0.00     0.035 C 
HETATM   14  C   UNK N   1      28.023  23.353  -6.159  0.00  0.00    -0.046 A 
HETATM   15  C   UNK N   1      29.301  24.292  -4.289  0.00  0.00     0.109 A 
HETATM   16  C   UNK N   1      27.893  25.241  -9.504  0.00  0.00     0.310 C 
HETATM   17  C   UNK N   1      28.810  22.211  -6.111  0.00  0.00     0.011 A 
HETATM   18  C   UNK N   1      30.099  23.106  -4.274  0.00  0.00     0.102 A 
HETATM   19  C   UNK N   1      29.816  22.081  -5.175  0.00  0.00     0.040 A 
HETATM   20  H   UNK N   1      24.714  23.777  -5.181  0.00  0.00     0.210 HD
ENDROOT
BRANCH  11  21
HETATM   21  O   UNK N   1      25.563  27.974  -2.938  0.00  0.00    -0.396 OA
HETATM   22  H   UNK N   1      25.308  28.896  -2.781  0.00  0.00     0.210 HD
ENDBRANCH  11  21
BRANCH  15  23
HETATM   23  O   UNK N   1      29.637  25.323  -3.469  0.00  0.00    -0.352 OA
HETATM   24  C   UNK N   1      30.720  26.137  -3.684  0.00  0.00     0.210 C 
ENDBRANCH  15  23
BRANCH  18  25
HETATM   25  O   UNK N   1      31.147  22.899  -3.436  0.00  0.00    -0.353 OA
HETATM   26  C   UNK N   1      31.563  21.687  -2.937  0.00  0.00     0.210 C 
ENDBRANCH  18  25
TORSDOF 3
ENDMDL
MODEL 3
REMARK VINA RESULT:      -6.2      6.585      9.315
REMARK  3 active torsions:
REMARK  status: ('A' for Active; 'I' for Inactive)
REMARK    1  A    between atoms: C_14  and  O_2 
REMARK    2  A    between atoms: O_3  and  C_18 
REMARK    3  A    between atoms: O_4  and  C_21 
ROOT
HETATM    1  O   UNK N   1      31.903  13.868   7.084  0.00  0.00    -0.386 OA
HETATM    2  N   UNK N   1      34.098  16.817   7.477  0.00  0.00     0.092 N 
HETATM    3  C   UNK N   1      31.913  15.943   5.797  0.00  0.00     0.027 C 
HETATM    4  C   UNK N   1      32.726  14.926   6.665  0.00  0.00     0.101 C 
HETATM    5  C   UNK N   1      33.251  15.665   7.889  0.00  0.00     0.262 C 
HETATM    6  C   UNK N   1      31.397  15.132   4.593  0.00  0.00     0.049 C 
HETATM    7  C   UNK N   1      32.863  17.058   5.336  0.00  0.00     0.048 C 
HETATM    8  C   UNK N   1      33.898  14.327   5.863  0.00  0.00     0.043 C 
HETATM    9  C   UNK N   1      30.792  16.650   6.608  0.00  0.00    -0.004 A 
HETATM   10  C   UNK N   1      32.045  16.041   8.769  0.00  0.00     0.078 C 
HETATM   11  C   UNK N   1      32.533  14.502   3.776  0.00  0.00     0.119 C 
HETATM   12  C   UNK N   1      33.443  17.767   6.567  0.00  0.00     0.273 C 
HETATM   13  C   UNK N   1      33.380  13.578   4.641  0.00  0.00     0.035 C 
HETATM   14  C   UNK N   1      30.883  16.644   8.032  0.00  0.00    -0.046 A 
HETATM   15  C   UNK N   1      29.756  17.445   6.006  0.00  0.00     0.109 A 
HETATM   16  C   UNK N   1      34.566  17.557   8.640  0.00  0.00     0.310 C 
HETATM   17  C   UNK N   1      29.936  17.299   8.806  0.00  0.00     0.011 A 
HETATM   18  C   UNK N   1      28.804  18.116   6.834  0.00  0.00     0.102 A 
HETATM   19  C   UNK N   1      28.905  18.006   8.219  0.00  0.00     0.040 A 
HETATM   20  H   UNK N   1      31.268  13.236   7.458  0.00  0.00     0.210 HD
ENDROOT
BRANCH  11  21
HETATM   21  O   UNK N   1      32.002  13.777   2.710  0.00  0.00    -0.396 OA
HETATM   22  H   UNK N   1      31.053  13.590   2.637  0.00  0.00     0.210 HD
ENDBRANCH  11  21
BRANCH  15  23
HETATM   23  O   UNK N   1      29.705  17.628   4.660  0.00  0.00    -0.352 OA
HETATM   24  C   UNK N   1      28.689  17.149   3.872  0.00  0.00     0.210 C 
ENDBRANCH  15  23
BRANCH  18  25
HETATM   25  O   UNK N   1      27.787  18.883   6.364  0.00  0.00    -0.353 OA
HETATM   26  C   UNK N   1      27.480  20.162   6.765  0.00  0.00     0.210 C 
ENDBRANCH  18  25
TORSDOF 3
ENDMDL
MODEL 4
REMARK VINA RESULT:      -5.9     13.010     15.490
REMARK  3 active torsions:
REMARK  status: ('A' for Active; 'I' for Inactive)
REMARK    1  A    between atoms: C_14  and  O_2 
REMARK    2  A    between atoms: O_3  and  C_18 
REMARK    3  A    between atoms: O_4  and  C_21 
ROOT
HETATM    1  O   UNK N   1      25.788  16.618   6.488  0.00  0.00    -0.386 OA
HETATM    2  N   UNK N   1      25.828  15.150   3.096  0.00  0.00     0.092 N 
HETATM    3  C   UNK N   1      23.913  16.224   4.976  0.00  0.00     0.027 C 
HETATM    4  C   UNK N   1      25.349  15.803   5.433  0.00  0.00     0.101 C 
HETATM    5  C   UNK N   1      26.289  15.973   4.246  0.00  0.00     0.262 C 
HETATM    6  C   UNK N   1      23.020  16.049   6.219  0.00  0.00     0.049 C 
HETATM    7  C   UNK N   1      23.466  15.284   3.847  0.00  0.00     0.048 C 
HETATM    8  C   UNK N   1      25.368  14.342   5.920  0.00  0.00     0.043 C 
HETATM    9  C   UNK N   1      23.879  17.656   4.373  0.00  0.00    -0.004 A 
HETATM   10  C   UNK N   1      26.409  17.479   3.947  0.00  0.00     0.078 C 
HETATM   11  C   UNK N   1      23.025  14.609   6.750  0.00  0.00     0.119 C 
HETATM   12  C   UNK N   1      24.445  15.406   2.672  0.00  0.00     0.273 C 
HETATM   13  C   UNK N   1      24.436  14.166   7.114  0.00  0.00     0.035 C 
HETATM   14  C   UNK N   1      25.106  18.227   3.922  0.00  0.00    -0.046 A 
HETATM   15  C   UNK N   1      22.665  18.374   4.097  0.00  0.00     0.109 A 
HETATM   16  C   UNK N   1      26.695  15.342   1.942  0.00  0.00     0.310 C 
HETATM   17  C   UNK N   1      25.130  19.483   3.331  0.00  0.00     0.011 A 
HETATM   18  C   UNK N   1      22.724  19.661   3.477  0.00  0.00     0.102 A 
HETATM   19  C   UNK N   1      23.964  20.195   3.131  0.00  0.00     0.040 A 
HETATM   20  H   UNK N   1      26.099  17.287   7.118  0.00  0.00     0.210 HD
ENDROOT
BRANCH  11  21
HETATM   21  O   UNK N   1      22.209  14.519   7.876  0.00  0.00    -0.396 OA
HETATM   22  H   UNK N   1      22.433  13.951   8.630  0.00  0.00     0.210 HD
ENDBRANCH  11  21
BRANCH  15  23
HETATM   23  O   UNK N   1      21.449  17.821   4.352  0.00  0.00    -0.352 OA
HETATM   24  C   UNK N   1      20.664  17.246   3.385  0.00  0.00     0.210 C 
ENDBRANCH  15  23
BRANCH  18  25
HETATM   25  O   UNK N   1      21.638  20.419   3.182  0.00  0.00    -0.353 OA
HETATM   26  C   UNK N   1      21.102  20.620   1.932  0.00  0.00     0.210 C 
ENDBRANCH  18  25
TORSDOF 3
ENDMDL
MODEL 5
REMARK VINA RESULT:      -5.9      1.751      2.516
REMARK  3 active torsions:
REMARK  status: ('A' for Active; 'I' for Inactive)
REMARK    1  A    between atoms: C_14  and  O_2 
REMARK    2  A    between atoms: O_3  and  C_18 
REMARK    3  A    between atoms: O_4  and  C_21 
ROOT
HETATM    1  O   UNK N   1      33.820  10.727  12.369  0.00  0.00    -0.386 OA
HETATM    2  N   UNK N   1      37.378   9.797  12.747  0.00  0.00     0.092 N 
HETATM    3  C   UNK N   1      35.650  12.048  13.300  0.00  0.00     0.027 C 
HETATM    4  C   UNK N   1      35.211  10.911  12.319  0.00  0.00     0.101 C 
HETATM    5  C   UNK N   1      35.900   9.623  12.752  0.00  0.00     0.262 C 
HETATM    6  C   UNK N   1      34.908  13.310  12.822  0.00  0.00     0.049 C 
HETATM    7  C   UNK N   1      37.170  12.232  13.184  0.00  0.00     0.048 C 
HETATM    8  C   UNK N   1      35.594  11.255  10.867  0.00  0.00     0.043 C 
HETATM    9  C   UNK N   1      35.381  11.683  14.787  0.00  0.00    -0.004 A 
HETATM   10  C   UNK N   1      35.311   9.203  14.112  0.00  0.00     0.078 C 
HETATM   11  C   UNK N   1      35.246  13.679  11.371  0.00  0.00     0.119 C 
HETATM   12  C   UNK N   1      37.868  10.919  13.560  0.00  0.00     0.273 C 
HETATM   13  C   UNK N   1      34.901  12.539  10.423  0.00  0.00     0.035 C 
HETATM   14  C   UNK N   1      35.194  10.309  15.122  0.00  0.00    -0.046 A 
HETATM   15  C   UNK N   1      35.467  12.630  15.865  0.00  0.00     0.109 A 
HETATM   16  C   UNK N   1      38.044   8.585  13.203  0.00  0.00     0.310 C 
HETATM   17  C   UNK N   1      34.997   9.920  16.439  0.00  0.00     0.011 A 
HETATM   18  C   UNK N   1      35.270  12.193  17.212  0.00  0.00     0.102 A 
HETATM   19  C   UNK N   1      35.015  10.846  17.463  0.00  0.00     0.040 A 
HETATM   20  H   UNK N   1      32.882  10.547  12.536  0.00  0.00     0.210 HD
ENDROOT
BRANCH  11  21
HETATM   21  O   UNK N   1      34.538  14.820  10.997  0.00  0.00    -0.396 OA
HETATM   22  H   UNK N   1      34.740  15.694  11.365  0.00  0.00     0.210 HD
ENDBRANCH  11  21
BRANCH  15  23
HETATM   23  O   UNK N   1      35.802  13.927  15.636  0.00  0.00    -0.352 OA
HETATM   24  C   UNK N   1      37.069  14.423  15.814  0.00  0.00     0.210 C 
ENDBRANCH  15  23
BRANCH  18  25
HETATM   25  O   UNK N   1      35.324  13.008  18.297  0.00  0.00    -0.353 OA
HETATM   26  C   UNK N   1      35.288  12.613  19.613  0.00  0.00     0.210 C 
ENDBRANCH  18  25
TORSDOF 3
ENDMDL
MODEL 6
REMARK VINA RESULT:      -5.9     19.664     23.290
REMARK  3 active torsions:
REMARK  status: ('A' for Active; 'I' for Inactive)
REMARK    1  A    between atoms: C_14  and  O_2 
REMARK    2  A    between atoms: O_3  and  C_18 
REMARK    3  A    between atoms: O_4  and  C_21 
ROOT
HETATM    1  O   UNK N   1      30.425  23.943  -6.181  0.00  0.00    -0.386 OA
HETATM    2  N   UNK N   1      26.933  22.838  -6.683  0.00  0.00     0.092 N 
HETATM    3  C   UNK N   1      28.443  24.510  -4.872  0.00  0.00     0.027 C 
HETATM    4  C   UNK N   1      29.156  23.475  -5.805  0.00  0.00     0.101 C 
HETATM    5  C   UNK N   1      28.299  23.297  -7.052  0.00  0.00     0.262 C 
HETATM    6  C   UNK N   1      29.365  24.658  -3.646  0.00  0.00     0.049 C 
HETATM    7  C   UNK N   1      27.079  23.938  -4.462  0.00  0.00     0.048 C 
HETATM    8  C   UNK N   1      29.341  22.123  -5.091  0.00  0.00     0.043 C 
HETATM    9  C   UNK N   1      28.140  25.850  -5.598  0.00  0.00    -0.004 A 
HETATM   10  C   UNK N   1      28.337  24.617  -7.845  0.00  0.00     0.078 C 
HETATM   11  C   UNK N   1      29.591  23.328  -2.915  0.00  0.00     0.119 C 
HETATM   12  C   UNK N   1      26.234  23.699  -5.720  0.00  0.00     0.273 C 
HETATM   13  C   UNK N   1      30.204  22.291  -3.846  0.00  0.00     0.035 C 
HETATM   14  C   UNK N   1      28.130  25.859  -7.024  0.00  0.00    -0.046 A 
HETATM   15  C   UNK N   1      27.712  27.043  -4.918  0.00  0.00     0.109 A 
HETATM   16  C   UNK N   1      26.093  22.710  -7.865  0.00  0.00     0.310 C 
HETATM   17  C   UNK N   1      27.819  27.015  -7.725  0.00  0.00     0.011 A 
HETATM   18  C   UNK N   1      27.388  28.214  -5.672  0.00  0.00     0.102 A 
HETATM   19  C   UNK N   1      27.474  28.176  -7.062  0.00  0.00     0.040 A 
HETATM   20  H   UNK N   1      31.230  24.366  -6.519  0.00  0.00     0.210 HD
ENDROOT
BRANCH  11  21
HETATM   21  O   UNK N   1      30.437  23.527  -1.825  0.00  0.00    -0.396 OA
HETATM   22  H   UNK N   1      30.975  22.810  -1.454  0.00  0.00     0.210 HD
ENDBRANCH  11  21
BRANCH  15  23
HETATM   23  O   UNK N   1      27.542  27.060  -3.570  0.00  0.00    -0.352 OA
HETATM   24  C   UNK N   1      26.312  27.110  -2.964  0.00  0.00     0.210 C 
ENDBRANCH  15  23
BRANCH  18  25
HETATM   25  O   UNK N   1      26.982  29.388  -5.125  0.00  0.00    -0.353 OA
HETATM   26  C   UNK N   1      27.794  30.422  -4.725  0.00  0.00     0.210 C 
ENDBRANCH  18  25
TORSDOF 3
ENDMDL
MODEL 7
REMARK VINA RESULT:      -5.8      4.571      8.213
REMARK  3 active torsions:
REMARK  status: ('A' for Active; 'I' for Inactive)
REMARK    1  A    between atoms: C_14  and  O_2 
REMARK    2  A    between atoms: O_3  and  C_18 
REMARK    3  A    between atoms: O_4  and  C_21 
ROOT
HETATM    1  O   UNK N   1      32.261  15.031  10.298  0.00  0.00    -0.386 OA
HETATM    2  N   UNK N   1      34.503  17.081   8.190  0.00  0.00     0.092 N 
HETATM    3  C   UNK N   1      33.148  14.529   8.079  0.00  0.00     0.027 C 
HETATM    4  C   UNK N   1      33.338  15.288   9.434  0.00  0.00     0.101 C 
HETATM    5  C   UNK N   1      33.393  16.781   9.135  0.00  0.00     0.262 C 
HETATM    6  C   UNK N   1      33.081  13.036   8.452  0.00  0.00     0.049 C 
HETATM    7  C   UNK N   1      34.365  14.814   7.186  0.00  0.00     0.048 C 
HETATM    8  C   UNK N   1      34.632  14.841  10.141  0.00  0.00     0.043 C 
HETATM    9  C   UNK N   1      31.913  15.037   7.285  0.00  0.00    -0.004 A 
HETATM   10  C   UNK N   1      32.000  17.217   8.643  0.00  0.00     0.078 C 
HETATM   11  C   UNK N   1      34.345  12.552   9.176  0.00  0.00     0.119 C 
HETATM   12  C   UNK N   1      34.460  16.324   6.931  0.00  0.00     0.273 C 
HETATM   13  C   UNK N   1      34.581  13.349  10.452  0.00  0.00     0.035 C 
HETATM   14  C   UNK N   1      31.379  16.318   7.613  0.00  0.00    -0.046 A 
HETATM   15  C   UNK N   1      31.374  14.361   6.135  0.00  0.00     0.109 A 
HETATM   16  C   UNK N   1      34.534  18.499   7.862  0.00  0.00     0.310 C 
HETATM   17  C   UNK N   1      30.306  16.842   6.906  0.00  0.00     0.011 A 
HETATM   18  C   UNK N   1      30.276  14.935   5.423  0.00  0.00     0.102 A 
HETATM   19  C   UNK N   1      29.752  16.156   5.844  0.00  0.00     0.040 A 
HETATM   20  H   UNK N   1      31.438  14.933  10.801  0.00  0.00     0.210 HD
ENDROOT
BRANCH  11  21
HETATM   21  O   UNK N   1      34.219  11.201   9.494  0.00  0.00    -0.396 OA
HETATM   22  H   UNK N   1      33.374  10.731   9.417  0.00  0.00     0.210 HD
ENDBRANCH  11  21
BRANCH  15  23
HETATM   23  O   UNK N   1      31.937  13.216   5.667  0.00  0.00    -0.352 OA
HETATM   24  C   UNK N   1      32.709  13.162   4.534  0.00  0.00     0.210 C 
ENDBRANCH  15  23
BRANCH  18  25
HETATM   25  O   UNK N   1      29.694  14.374   4.332  0.00  0.00    -0.353 OA
HETATM   26  C   UNK N   1      29.597  14.938   3.082  0.00  0.00     0.210 C 
ENDBRANCH  18  25
TORSDOF 3
ENDMDL
MODEL 8
REMARK VINA RESULT:      -5.8      2.558      4.001
REMARK  3 active torsions:
REMARK  status: ('A' for Active; 'I' for Inactive)
REMARK    1  A    between atoms: C_14  and  O_2 
REMARK    2  A    between atoms: O_3  and  C_18 
REMARK    3  A    between atoms: O_4  and  C_21 
ROOT
HETATM    1  O   UNK N   1      38.348  14.942  10.124  0.00  0.00    -0.386 OA
HETATM    2  N   UNK N   1      34.762  14.127   9.743  0.00  0.00     0.092 N 
HETATM    3  C   UNK N   1      37.225  12.802  10.472  0.00  0.00     0.027 C 
HETATM    4  C   UNK N   1      37.235  14.181   9.732  0.00  0.00     0.101 C 
HETATM    5  C   UNK N   1      35.961  14.927  10.111  0.00  0.00     0.262 C 
HETATM    6  C   UNK N   1      38.541  12.111  10.064  0.00  0.00     0.049 C 
HETATM    7  C   UNK N   1      36.013  11.996   9.985  0.00  0.00     0.048 C 
HETATM    8  C   UNK N   1      37.303  13.989   8.206  0.00  0.00     0.043 C 
HETATM    9  C   UNK N   1      37.044  12.955  12.007  0.00  0.00    -0.004 A 
HETATM   10  C   UNK N   1      36.052  15.292  11.604  0.00  0.00     0.078 C 
HETATM   11  C   UNK N   1      38.658  11.916   8.546  0.00  0.00     0.119 C 
HETATM   12  C   UNK N   1      34.729  12.771  10.310  0.00  0.00     0.273 C 
HETATM   13  C   UNK N   1      38.579  13.251   7.817  0.00  0.00     0.035 C 
HETATM   14  C   UNK N   1      36.506  14.179  12.505  0.00  0.00    -0.046 A 
HETATM   15  C   UNK N   1      37.236  11.879  12.942  0.00  0.00     0.109 A 
HETATM   16  C   UNK N   1      33.541  14.812  10.144  0.00  0.00     0.310 C 
HETATM   17  C   UNK N   1      36.278  14.354  13.863  0.00  0.00     0.011 A 
HETATM   18  C   UNK N   1      36.981  12.091  14.332  0.00  0.00     0.102 A 
HETATM   19  C   UNK N   1      36.529  13.337  14.762  0.00  0.00     0.040 A 
HETATM   20  H   UNK N   1      39.050  15.479  10.523  0.00  0.00     0.210 HD
ENDROOT
BRANCH  11  21
HETATM   21  O   UNK N   1      39.869  11.297   8.243  0.00  0.00    -0.396 OA
HETATM   22  H   UNK N   1      40.010  10.822   7.409  0.00  0.00     0.210 HD
ENDBRANCH  11  21
BRANCH  15  23
HETATM   23  O   UNK N   1      37.592  10.637  12.519  0.00  0.00    -0.352 OA
HETATM   24  C   UNK N   1      36.717   9.581  12.458  0.00  0.00     0.210 C 
ENDBRANCH  15  23
BRANCH  18  25
HETATM   25  O   UNK N   1      37.137  11.143  15.292  0.00  0.00    -0.353 OA
HETATM   26  C   UNK N   1      36.288  10.906  16.347  0.00  0.00     0.210 C 
ENDBRANCH  18  25
TORSDOF 3
ENDMDL
MODEL 9
REMARK VINA RESULT:      -5.7     13.363     14.597
REMARK  3 active torsions:
REMARK  status: ('A' for Active; 'I' for Inactive)
REMARK    1  A    between atoms: C_14  and  O_2 
REMARK    2  A    between atoms: O_3  and  C_18 
REMARK    3  A    between atoms: O_4  and  C_21 
ROOT
HETATM    1  O   UNK N   1      22.967  17.699   5.947  0.00  0.00    -0.386 OA
HETATM    2  N   UNK N   1      20.905  15.233   4.123  0.00  0.00     0.092 N 
HETATM    3  C   UNK N   1      23.162  15.265   5.928  0.00  0.00     0.027 C 
HETATM    4  C   UNK N   1      22.711  16.558   5.170  0.00  0.00     0.101 C 
HETATM    5  C   UNK N   1      21.213  16.455   4.913  0.00  0.00     0.262 C 
HETATM    6  C   UNK N   1      24.673  15.441   6.173  0.00  0.00     0.049 C 
HETATM    7  C   UNK N   1      22.894  14.053   5.025  0.00  0.00     0.048 C 
HETATM    8  C   UNK N   1      23.469  16.711   3.838  0.00  0.00     0.043 C 
HETATM    9  C   UNK N   1      22.338  15.020   7.222  0.00  0.00    -0.004 A 
HETATM   10  C   UNK N   1      20.492  16.536   6.272  0.00  0.00     0.078 C 
HETATM   11  C   UNK N   1      25.465  15.615   4.870  0.00  0.00     0.119 C 
HETATM   12  C   UNK N   1      21.394  13.979   4.713  0.00  0.00     0.273 C 
HETATM   13  C   UNK N   1      24.969  16.823   4.087  0.00  0.00     0.035 C 
HETATM   14  C   UNK N   1      21.078  15.676   7.355  0.00  0.00    -0.046 A 
HETATM   15  C   UNK N   1      22.696  14.050   8.221  0.00  0.00     0.109 A 
HETATM   16  C   UNK N   1      19.470  15.101   3.912  0.00  0.00     0.310 C 
HETATM   17  C   UNK N   1      20.278  15.457   8.467  0.00  0.00     0.011 A 
HETATM   18  C   UNK N   1      21.843  13.841   9.349  0.00  0.00     0.102 A 
HETATM   19  C   UNK N   1      20.662  14.572   9.455  0.00  0.00     0.040 A 
HETATM   20  H   UNK N   1      23.038  18.439   6.571  0.00  0.00     0.210 HD
ENDROOT
BRANCH  11  21
HETATM   21  O   UNK N   1      26.819  15.778   5.159  0.00  0.00    -0.396 OA
HETATM   22  H   UNK N   1      27.183  15.592   6.038  0.00  0.00     0.210 HD
ENDBRANCH  11  21
BRANCH  15  23
HETATM   23  O   UNK N   1      23.802  13.271   8.078  0.00  0.00    -0.352 OA
HETATM   24  C   UNK N   1      24.893  13.350   8.907  0.00  0.00     0.210 C 
ENDBRANCH  15  23
BRANCH  18  25
HETATM   25  O   UNK N   1      22.095  12.955  10.346  0.00  0.00    -0.353 OA
HETATM   26  C   UNK N   1      21.157  12.304  11.111  0.00  0.00     0.210 C 
ENDBRANCH  18  25
TORSDOF 3
ENDMDL
