MODEL 1
REMARK VINA RESULT:      -4.8      0.000      0.000
REMARK  5 active torsions:
REMARK  status: ('A' for Active; 'I' for Inactive)
REMARK    1  A    between atoms: N_1  and  C_3 
REMARK    2  A    between atoms: N_1  and  C_7 
REMARK    3  A    between atoms: C_3  and  C_4 
REMARK    4  A    between atoms: C_4  and  C_5 
REMARK    5  A    between atoms: C_7  and  C_10 
ROOT
HETATM    1  N   UNK N   1      34.498  17.975   7.002  0.00  0.00    -0.197 NA
HETATM    2  C   UNK N   1      33.368  16.508   8.838  0.00  0.00     0.143 C 
HETATM    3  C   UNK N   1      34.016  17.326   7.828  0.00  0.00     0.060 C 
ENDROOT
BRANCH   2   4
HETATM    4  C   UNK N   1      32.003  16.196   8.306  0.00  0.00     0.128 C 
BRANCH   4   5
HETATM    5  N   UNK N   1      31.390  17.440   7.878  0.00  0.00    -0.416 N 
HETATM    6  H   UNK N   1      31.595  18.359   8.271  0.00  0.00     0.153 HD
BRANCH   5   7
HETATM    7  C   UNK N   1      30.442  17.184   6.812  0.00  0.00     0.076 C 
HETATM    8  C   UNK N   1      30.759  15.883   6.068  0.00  0.00     0.032 C 
BRANCH   7   9
HETATM    9  C   UNK N   1      28.979  17.360   7.245  0.00  0.00     0.062 C 
BRANCH   9  10
HETATM   10  C   UNK N   1      28.410  18.530   6.536  0.00  0.00    -0.056 A 
HETATM   11  C   UNK N   1      27.808  19.545   7.285  0.00  0.00     0.007 A 
HETATM   12  C   UNK N   1      27.258  20.654   6.668  0.00  0.00     0.001 A 
HETATM   13  C   UNK N   1      27.330  20.772   5.281  0.00  0.00     0.000 A 
HETATM   14  C   UNK N   1      27.934  19.765   4.517  0.00  0.00     0.001 A 
HETATM   15  C   UNK N   1      28.469  18.633   5.142  0.00  0.00     0.007 A 
ENDBRANCH   9  10
ENDBRANCH   7   9
ENDBRANCH   5   7
ENDBRANCH   4   5
ENDBRANCH   2   4
TORSDOF 5
ENDMDL
MODEL 2
REMARK VINA RESULT:      -4.7      2.233      5.739
REMARK  5 active torsions:
REMARK  status: ('A' for Active; 'I' for Inactive)
REMARK    1  A    between atoms: N_1  and  C_3 
REMARK    2  A    between atoms: N_1  and  C_7 
REMARK    3  A    between atoms: C_3  and  C_4 
REMARK    4  A    between atoms: C_4  and  C_5 
REMARK    5  A    between atoms: C_7  and  C_10 
ROOT
HETATM    1  N   UNK N   1      27.397  18.603   3.789  0.00  0.00    -0.197 NA
HETATM    2  C   UNK N   1      27.569  20.569   5.495  0.00  0.00     0.143 C 
HETATM    3  C   UNK N   1      27.472  19.489   4.528  0.00  0.00     0.060 C 
ENDROOT
BRANCH   2   4
HETATM    4  C   UNK N   1      27.684  19.914   6.837  0.00  0.00     0.128 C 
BRANCH   4   5
HETATM    5  N   UNK N   1      28.184  18.565   6.640  0.00  0.00    -0.416 N 
HETATM    6  H   UNK N   1      27.954  17.966   5.847  0.00  0.00     0.153 HD
BRANCH   5   7
HETATM    7  C   UNK N   1      29.058  18.196   7.735  0.00  0.00     0.076 C 
HETATM    8  C   UNK N   1      28.339  18.268   9.086  0.00  0.00     0.032 C 
BRANCH   7   9
HETATM    9  C   UNK N   1      29.848  16.905   7.473  0.00  0.00     0.062 C 
BRANCH   9  10
HETATM   10  C   UNK N   1      31.282  17.247   7.322  0.00  0.00    -0.056 A 
HETATM   11  C   UNK N   1      31.887  17.074   6.074  0.00  0.00     0.007 A 
HETATM   12  C   UNK N   1      33.225  17.374   5.885  0.00  0.00     0.001 A 
HETATM   13  C   UNK N   1      33.970  17.881   6.947  0.00  0.00     0.000 A 
HETATM   14  C   UNK N   1      33.376  18.065   8.203  0.00  0.00     0.001 A 
HETATM   15  C   UNK N   1      32.029  17.738   8.397  0.00  0.00     0.007 A 
ENDBRANCH   9  10
ENDBRANCH   7   9
ENDBRANCH   5   7
ENDBRANCH   4   5
ENDBRANCH   2   4
TORSDOF 5
ENDMDL
MODEL 3
REMARK VINA RESULT:      -4.5     12.228     14.701
REMARK  5 active torsions:
REMARK  status: ('A' for Active; 'I' for Inactive)
REMARK    1  A    between atoms: N_1  and  C_3 
REMARK    2  A    between atoms: N_1  and  C_7 
REMARK    3  A    between atoms: C_3  and  C_4 
REMARK    4  A    between atoms: C_4  and  C_5 
REMARK    5  A    between atoms: C_7  and  C_10 
ROOT
HETATM    1  N   UNK N   1      29.747  22.831  -4.235  0.00  0.00    -0.197 NA
HETATM    2  C   UNK N   1      27.882  23.830  -2.711  0.00  0.00     0.143 C 
HETATM    3  C   UNK N   1      28.934  23.270  -3.542  0.00  0.00     0.060 C 
ENDROOT
BRANCH   2   4
HETATM    4  C   UNK N   1      26.755  24.165  -3.639  0.00  0.00     0.128 C 
BRANCH   4   5
HETATM    5  N   UNK N   1      27.271  25.035  -4.680  0.00  0.00    -0.416 N 
HETATM    6  H   UNK N   1      28.133  25.578  -4.615  0.00  0.00     0.153 HD
BRANCH   5   7
HETATM    7  C   UNK N   1      26.382  25.020  -5.824  0.00  0.00     0.076 C 
HETATM    8  C   UNK N   1      25.860  23.610  -6.120  0.00  0.00     0.032 C 
BRANCH   7   9
HETATM    9  C   UNK N   1      25.318  26.126  -5.782  0.00  0.00     0.062 C 
BRANCH   9  10
HETATM   10  C   UNK N   1      25.976  27.405  -5.423  0.00  0.00    -0.056 A 
HETATM   11  C   UNK N   1      26.949  27.925  -6.280  0.00  0.00     0.007 A 
HETATM   12  C   UNK N   1      27.595  29.113  -5.985  0.00  0.00     0.001 A 
HETATM   13  C   UNK N   1      27.249  29.812  -4.830  0.00  0.00     0.000 A 
HETATM   14  C   UNK N   1      26.272  29.305  -3.963  0.00  0.00     0.001 A 
HETATM   15  C   UNK N   1      25.637  28.092  -4.252  0.00  0.00     0.007 A 
ENDBRANCH   9  10
ENDBRANCH   7   9
ENDBRANCH   5   7
ENDBRANCH   4   5
ENDBRANCH   2   4
TORSDOF 5
ENDMDL
MODEL 4
REMARK VINA RESULT:      -4.4      7.857     11.500
REMARK  5 active torsions:
REMARK  status: ('A' for Active; 'I' for Inactive)
REMARK    1  A    between atoms: N_1  and  C_3 
REMARK    2  A    between atoms: N_1  and  C_7 
REMARK    3  A    between atoms: C_3  and  C_4 
REMARK    4  A    between atoms: C_4  and  C_5 
REMARK    5  A    between atoms: C_7  and  C_10 
ROOT
HETATM    1  N   UNK N   1      35.634  16.959  10.297  0.00  0.00    -0.197 NA
HETATM    2  C   UNK N   1      35.768  15.371  12.361  0.00  0.00     0.143 C 
HETATM    3  C   UNK N   1      35.692  16.274  11.225  0.00  0.00     0.060 C 
ENDROOT
BRANCH   2   4
HETATM    4  C   UNK N   1      35.855  13.990  11.788  0.00  0.00     0.128 C 
BRANCH   4   5
HETATM    5  N   UNK N   1      34.638  13.279  12.134  0.00  0.00    -0.416 N 
HETATM    6  H   UNK N   1      33.713  13.482  11.753  0.00  0.00     0.153 HD
BRANCH   5   7
HETATM    7  C   UNK N   1      34.928  12.241  13.102  0.00  0.00     0.076 C 
HETATM    8  C   UNK N   1      34.847  10.843  12.479  0.00  0.00     0.032 C 
BRANCH   7   9
HETATM    9  C   UNK N   1      36.186  12.523  13.937  0.00  0.00     0.062 C 
BRANCH   9  10
HETATM   10  C   UNK N   1      35.865  12.308  15.368  0.00  0.00    -0.056 A 
HETATM   11  C   UNK N   1      36.217  11.093  15.962  0.00  0.00     0.007 A 
HETATM   12  C   UNK N   1      35.933  10.844  17.293  0.00  0.00     0.001 A 
HETATM   13  C   UNK N   1      35.312  11.830  18.058  0.00  0.00     0.000 A 
HETATM   14  C   UNK N   1      34.957  13.055  17.477  0.00  0.00     0.001 A 
HETATM   15  C   UNK N   1      35.224  13.295  16.125  0.00  0.00     0.007 A 
ENDBRANCH   9  10
ENDBRANCH   7   9
ENDBRANCH   5   7
ENDBRANCH   4   5
ENDBRANCH   2   4
TORSDOF 5
ENDMDL
MODEL 5
REMARK VINA RESULT:      -4.4     13.766     15.479
REMARK  5 active torsions:
REMARK  status: ('A' for Active; 'I' for Inactive)
REMARK    1  A    between atoms: N_1  and  C_3 
REMARK    2  A    between atoms: N_1  and  C_7 
REMARK    3  A    between atoms: C_3  and  C_4 
REMARK    4  A    between atoms: C_4  and  C_5 
REMARK    5  A    between atoms: C_7  and  C_10 
ROOT
HETATM    1  N   UNK N   1      30.811  25.953  -3.277  0.00  0.00    -0.197 NA
HETATM    2  C   UNK N   1      31.174  28.535  -3.209  0.00  0.00     0.143 C 
HETATM    3  C   UNK N   1      30.991  27.094  -3.257  0.00  0.00     0.060 C 
ENDROOT
BRANCH   2   4
HETATM    4  C   UNK N   1      29.966  29.082  -2.512  0.00  0.00     0.128 C 
BRANCH   4   5
HETATM    5  N   UNK N   1      28.794  28.415  -3.048  0.00  0.00    -0.416 N 
HETATM    6  H   UNK N   1      28.757  27.435  -3.332  0.00  0.00     0.153 HD
BRANCH   5   7
HETATM    7  C   UNK N   1      27.685  29.344  -3.123  0.00  0.00     0.076 C 
HETATM    8  C   UNK N   1      27.819  30.473  -2.096  0.00  0.00     0.032 C 
BRANCH   7   9
HETATM    9  C   UNK N   1      27.359  29.787  -4.557  0.00  0.00     0.062 C 
BRANCH   9  10
HETATM   10  C   UNK N   1      26.737  28.650  -5.276  0.00  0.00    -0.056 A 
HETATM   11  C   UNK N   1      27.338  28.186  -6.449  0.00  0.00     0.007 A 
HETATM   12  C   UNK N   1      26.792  27.131  -7.159  0.00  0.00     0.001 A 
HETATM   13  C   UNK N   1      25.642  26.507  -6.682  0.00  0.00     0.000 A 
HETATM   14  C   UNK N   1      25.030  26.958  -5.504  0.00  0.00     0.001 A 
HETATM   15  C   UNK N   1      25.571  28.040  -4.801  0.00  0.00     0.007 A 
ENDBRANCH   9  10
ENDBRANCH   7   9
ENDBRANCH   5   7
ENDBRANCH   4   5
ENDBRANCH   2   4
TORSDOF 5
ENDMDL
MODEL 6
REMARK VINA RESULT:      -4.3      9.908     11.823
REMARK  5 active torsions:
REMARK  status: ('A' for Active; 'I' for Inactive)
REMARK    1  A    between atoms: N_1  and  C_3 
REMARK    2  A    between atoms: N_1  and  C_7 
REMARK    3  A    between atoms: C_3  and  C_4 
REMARK    4  A    between atoms: C_4  and  C_5 
REMARK    5  A    between atoms: C_7  and  C_10 
ROOT
HETATM    1  N   UNK N   1      23.116  20.850   2.804  0.00  0.00    -0.197 NA
HETATM    2  C   UNK N   1      20.595  20.523   2.221  0.00  0.00     0.143 C 
HETATM    3  C   UNK N   1      21.996  20.726   2.552  0.00  0.00     0.060 C 
ENDROOT
BRANCH   2   4
HETATM    4  C   UNK N   1      20.476  19.096   1.781  0.00  0.00     0.128 C 
BRANCH   4   5
HETATM    5  N   UNK N   1      21.128  18.262   2.775  0.00  0.00    -0.416 N 
HETATM    6  H   UNK N   1      21.846  18.580   3.426  0.00  0.00     0.153 HD
BRANCH   5   7
HETATM    7  C   UNK N   1      20.610  16.910   2.704  0.00  0.00     0.076 C 
HETATM    8  C   UNK N   1      19.730  16.574   3.912  0.00  0.00     0.032 C 
BRANCH   7   9
HETATM    9  C   UNK N   1      20.016  16.558   1.332  0.00  0.00     0.062 C 
BRANCH   9  10
HETATM   10  C   UNK N   1      20.275  15.125   1.056  0.00  0.00    -0.056 A 
HETATM   11  C   UNK N   1      19.186  14.272   0.853  0.00  0.00     0.007 A 
HETATM   12  C   UNK N   1      19.377  12.926   0.597  0.00  0.00     0.001 A 
HETATM   13  C   UNK N   1      20.672  12.420   0.515  0.00  0.00     0.000 A 
HETATM   14  C   UNK N   1      21.774  13.264   0.712  0.00  0.00     0.001 A 
HETATM   15  C   UNK N   1      21.578  14.621   0.994  0.00  0.00     0.007 A 
ENDBRANCH   9  10
ENDBRANCH   7   9
ENDBRANCH   5   7
ENDBRANCH   4   5
ENDBRANCH   2   4
TORSDOF 5
ENDMDL
MODEL 7
REMARK VINA RESULT:      -4.3      7.961      9.846
REMARK  5 active torsions:
REMARK  status: ('A' for Active; 'I' for Inactive)
REMARK    1  A    between atoms: N_1  and  C_3 
REMARK    2  A    between atoms: N_1  and  C_7 
REMARK    3  A    between atoms: C_3  and  C_4 
REMARK    4  A    between atoms: C_4  and  C_5 
REMARK    5  A    between atoms: C_7  and  C_10 
ROOT
HETATM    1  N   UNK N   1      26.050  15.208   7.001  0.00  0.00    -0.197 NA
HETATM    2  C   UNK N   1      23.712  14.517   6.075  0.00  0.00     0.143 C 
HETATM    3  C   UNK N   1      25.024  14.886   6.578  0.00  0.00     0.060 C 
ENDROOT
BRANCH   2   4
HETATM    4  C   UNK N   1      22.744  15.475   6.699  0.00  0.00     0.128 C 
BRANCH   4   5
HETATM    5  N   UNK N   1      21.505  14.762   6.954  0.00  0.00    -0.416 N 
HETATM    6  H   UNK N   1      20.854  14.444   6.236  0.00  0.00     0.153 HD
BRANCH   5   7
HETATM    7  C   UNK N   1      21.329  14.570   8.380  0.00  0.00     0.076 C 
HETATM    8  C   UNK N   1      20.274  15.521   8.956  0.00  0.00     0.032 C 
BRANCH   7   9
HETATM    9  C   UNK N   1      21.182  13.095   8.780  0.00  0.00     0.062 C 
BRANCH   9  10
HETATM   10  C   UNK N   1      22.282  12.742   9.708  0.00  0.00    -0.056 A 
HETATM   11  C   UNK N   1      21.962  12.272  10.985  0.00  0.00     0.007 A 
HETATM   12  C   UNK N   1      22.954  11.935  11.888  0.00  0.00     0.001 A 
HETATM   13  C   UNK N   1      24.291  12.041  11.508  0.00  0.00     0.000 A 
HETATM   14  C   UNK N   1      24.628  12.506  10.230  0.00  0.00     0.001 A 
HETATM   15  C   UNK N   1      23.622  12.868   9.327  0.00  0.00     0.007 A 
ENDBRANCH   9  10
ENDBRANCH   7   9
ENDBRANCH   5   7
ENDBRANCH   4   5
ENDBRANCH   2   4
TORSDOF 5
ENDMDL
MODEL 8
REMARK VINA RESULT:      -4.2      6.505     10.643
REMARK  5 active torsions:
REMARK  status: ('A' for Active; 'I' for Inactive)
REMARK    1  A    between atoms: N_1  and  C_3 
REMARK    2  A    between atoms: N_1  and  C_7 
REMARK    3  A    between atoms: C_3  and  C_4 
REMARK    4  A    between atoms: C_4  and  C_5 
REMARK    5  A    between atoms: C_7  and  C_10 
ROOT
HETATM    1  N   UNK N   1      34.653  16.094   8.455  0.00  0.00    -0.197 NA
HETATM    2  C   UNK N   1      35.308  16.621  10.924  0.00  0.00     0.143 C 
HETATM    3  C   UNK N   1      34.931  16.346   9.548  0.00  0.00     0.060 C 
ENDROOT
BRANCH   2   4
HETATM    4  C   UNK N   1      36.184  15.483  11.349  0.00  0.00     0.128 C 
BRANCH   4   5
HETATM    5  N   UNK N   1      35.449  14.247  11.148  0.00  0.00    -0.416 N 
HETATM    6  H   UNK N   1      34.748  14.095  10.423  0.00  0.00     0.153 HD
BRANCH   5   7
HETATM    7  C   UNK N   1      35.857  13.263  12.130  0.00  0.00     0.076 C 
HETATM    8  C   UNK N   1      37.238  12.680  11.812  0.00  0.00     0.032 C 
BRANCH   7   9
HETATM    9  C   UNK N   1      35.652  13.729  13.579  0.00  0.00     0.062 C 
BRANCH   9  10
HETATM   10  C   UNK N   1      35.270  12.560  14.406  0.00  0.00    -0.056 A 
HETATM   11  C   UNK N   1      35.886  12.383  15.647  0.00  0.00     0.007 A 
HETATM   12  C   UNK N   1      35.566  11.303  16.452  0.00  0.00     0.001 A 
HETATM   13  C   UNK N   1      34.597  10.396  16.028  0.00  0.00     0.000 A 
HETATM   14  C   UNK N   1      33.967  10.563  14.788  0.00  0.00     0.001 A 
HETATM   15  C   UNK N   1      34.310  11.643  13.965  0.00  0.00     0.007 A 
ENDBRANCH   9  10
ENDBRANCH   7   9
ENDBRANCH   5   7
ENDBRANCH   4   5
ENDBRANCH   2   4
TORSDOF 5
ENDMDL
MODEL 9
REMARK VINA RESULT:      -4.2      1.776      2.633
REMARK  5 active torsions:
REMARK  status: ('A' for Active; 'I' for Inactive)
REMARK    1  A    between atoms: N_1  and  C_3 
REMARK    2  A    between atoms: N_1  and  C_7 
REMARK    3  A    between atoms: C_3  and  C_4 
REMARK    4  A    between atoms: C_4  and  C_5 
REMARK    5  A    between atoms: C_7  and  C_10 
ROOT
HETATM    1  N   UNK N   1      34.242  17.664   6.395  0.00  0.00    -0.197 NA
HETATM    2  C   UNK N   1      32.495  17.929   8.312  0.00  0.00     0.143 C 
HETATM    3  C   UNK N   1      33.482  17.795   7.255  0.00  0.00     0.060 C 
ENDROOT
BRANCH   2   4
HETATM    4  C   UNK N   1      31.337  17.068   7.910  0.00  0.00     0.128 C 
BRANCH   4   5
HETATM    5  N   UNK N   1      31.239  17.091   6.462  0.00  0.00    -0.416 N 
HETATM    6  H   UNK N   1      32.025  16.977   5.820  0.00  0.00     0.153 HD
BRANCH   5   7
HETATM    7  C   UNK N   1      29.863  17.300   6.061  0.00  0.00     0.076 C 
HETATM    8  C   UNK N   1      29.025  17.900   7.195  0.00  0.00     0.032 C 
BRANCH   7   9
HETATM    9  C   UNK N   1      29.725  17.994   4.697  0.00  0.00     0.062 C 
BRANCH   9  10
HETATM   10  C   UNK N   1      28.306  17.935   4.274  0.00  0.00    -0.056 A 
HETATM   11  C   UNK N   1      27.728  16.686   4.030  0.00  0.00     0.007 A 
HETATM   12  C   UNK N   1      26.408  16.581   3.628  0.00  0.00     0.001 A 
HETATM   13  C   UNK N   1      25.639  17.735   3.491  0.00  0.00     0.000 A 
HETATM   14  C   UNK N   1      26.204  18.994   3.736  0.00  0.00     0.001 A 
HETATM   15  C   UNK N   1      27.546  19.099   4.120  0.00  0.00     0.007 A 
ENDBRANCH   9  10
ENDBRANCH   7   9
ENDBRANCH   5   7
ENDBRANCH   4   5
ENDBRANCH   2   4
TORSDOF 5
ENDMDL
