MODEL 1
REMARK VINA RESULT:      -6.7      0.000      0.000
REMARK  2 active torsions:
REMARK  status: ('A' for Active; 'I' for Inactive)
REMARK    1  A    between atoms: C_12  and  O_2 
REMARK    2  A    between atoms: O_3  and  C_20 
ROOT
HETATM    1  O   UNK N   1      20.690  12.925   9.492  0.00  0.00    -0.339 OA
HETATM    2  N   UNK N   1      23.910  12.285   5.585  0.00  0.00     0.089 N 
HETATM    3  C   UNK N   1      22.549  12.457   8.173  0.00  0.00     0.026 C 
HETATM    4  C   UNK N   1      24.075  12.373   8.086  0.00  0.00     0.035 C 
HETATM    5  C   UNK N   1      21.831  12.104   9.514  0.00  0.00     0.171 C 
HETATM    6  C   UNK N   1      24.471  13.049   6.725  0.00  0.00     0.232 C 
HETATM    7  C   UNK N   1      21.961  11.621   7.020  0.00  0.00     0.048 C 
HETATM    8  C   UNK N   1      22.065  13.828   8.013  0.00  0.00    -0.004 A 
HETATM    9  C   UNK N   1      24.714  13.005   9.320  0.00  0.00     0.010 C 
HETATM   10  C   UNK N   1      22.696  12.561  10.716  0.00  0.00     0.148 C 
HETATM   11  C   UNK N   1      23.995  14.537   6.606  0.00  0.00     0.075 C 
HETATM   12  C   UNK N   1      24.189  12.272  10.559  0.00  0.00     0.035 C 
HETATM   13  C   UNK N   1      22.450  12.117   5.648  0.00  0.00     0.273 C 
HETATM   14  C   UNK N   1      22.642  14.807   7.227  0.00  0.00    -0.046 A 
HETATM   15  C   UNK N   1      20.932  14.001   8.718  0.00  0.00     0.110 A 
HETATM   16  C   UNK N   1      24.538  10.975   5.448  0.00  0.00     0.310 C 
HETATM   17  C   UNK N   1      21.971  16.037   7.121  0.00  0.00     0.011 A 
HETATM   18  C   UNK N   1      20.205  15.189   8.619  0.00  0.00     0.102 A 
HETATM   19  C   UNK N   1      20.735  16.218   7.791  0.00  0.00     0.040 A 
ENDROOT
BRANCH  10  20
HETATM   20  O   UNK N   1      22.212  12.012  11.906  0.00  0.00    -0.393 OA
HETATM   21  H   UNK N   1      21.279  11.759  11.986  0.00  0.00     0.210 HD
ENDBRANCH  10  20
BRANCH  18  22
HETATM   22  O   UNK N   1      19.042  15.336   9.295  0.00  0.00    -0.353 OA
HETATM   23  C   UNK N   1      18.302  16.496   9.265  0.00  0.00     0.210 C 
ENDBRANCH  18  22
TORSDOF 2
ENDMDL
MODEL 2
REMARK VINA RESULT:      -6.6      8.767     10.541
REMARK  2 active torsions:
REMARK  status: ('A' for Active; 'I' for Inactive)
REMARK    1  A    between atoms: C_12  and  O_2 
REMARK    2  A    between atoms: O_3  and  C_20 
ROOT
HETATM    1  O   UNK N   1      29.508  16.302   5.998  0.00  0.00    -0.339 OA
HETATM    2  N   UNK N   1      33.969  15.759   8.416  0.00  0.00     0.089 N 
HETATM    3  C   UNK N   1      31.263  16.432   7.520  0.00  0.00     0.026 C 
HETATM    4  C   UNK N   1      31.964  17.252   8.607  0.00  0.00     0.035 C 
HETATM    5  C   UNK N   1      29.710  16.512   7.373  0.00  0.00     0.171 C 
HETATM    6  C   UNK N   1      33.501  17.160   8.299  0.00  0.00     0.232 C 
HETATM    7  C   UNK N   1      31.708  14.965   7.671  0.00  0.00     0.048 C 
HETATM    8  C   UNK N   1      31.639  16.870   6.176  0.00  0.00    -0.004 A 
HETATM    9  C   UNK N   1      31.406  18.672   8.645  0.00  0.00     0.010 C 
HETATM   10  C   UNK N   1      29.219  17.947   7.690  0.00  0.00     0.148 C 
HETATM   11  C   UNK N   1      33.884  17.693   6.876  0.00  0.00     0.075 C 
HETATM   12  C   UNK N   1      29.897  18.587   8.902  0.00  0.00     0.035 C 
HETATM   13  C   UNK N   1      33.235  14.816   7.558  0.00  0.00     0.273 C 
HETATM   14  C   UNK N   1      32.869  17.375   5.800  0.00  0.00    -0.046 A 
HETATM   15  C   UNK N   1      30.617  16.670   5.325  0.00  0.00     0.110 A 
HETATM   16  C   UNK N   1      33.926  15.285   9.795  0.00  0.00     0.310 C 
HETATM   17  C   UNK N   1      33.074  17.645   4.437  0.00  0.00     0.011 A 
HETATM   18  C   UNK N   1      30.777  16.885   3.954  0.00  0.00     0.102 A 
HETATM   19  C   UNK N   1      32.038  17.370   3.507  0.00  0.00     0.040 A 
ENDROOT
BRANCH  10  20
HETATM   20  O   UNK N   1      27.831  17.969   7.836  0.00  0.00    -0.393 OA
HETATM   21  H   UNK N   1      27.431  18.144   8.703  0.00  0.00     0.210 HD
ENDBRANCH  10  20
BRANCH  18  22
HETATM   22  O   UNK N   1      29.757  16.638   3.101  0.00  0.00    -0.353 OA
HETATM   23  C   UNK N   1      29.475  15.379   2.619  0.00  0.00     0.210 C 
ENDBRANCH  18  22
TORSDOF 2
ENDMDL
MODEL 3
REMARK VINA RESULT:      -6.6     17.497     19.798
REMARK  2 active torsions:
REMARK  status: ('A' for Active; 'I' for Inactive)
REMARK    1  A    between atoms: C_12  and  O_2 
REMARK    2  A    between atoms: O_3  and  C_20 
ROOT
HETATM    1  O   UNK N   1      26.951  24.874  -3.964  0.00  0.00    -0.339 OA
HETATM    2  N   UNK N   1      27.642  29.927  -3.790  0.00  0.00     0.089 N 
HETATM    3  C   UNK N   1      26.942  27.155  -4.425  0.00  0.00     0.026 C 
HETATM    4  C   UNK N   1      26.883  28.250  -5.493  0.00  0.00     0.035 C 
HETATM    5  C   UNK N   1      26.163  25.819  -4.644  0.00  0.00     0.171 C 
HETATM    6  C   UNK N   1      27.974  29.306  -5.094  0.00  0.00     0.232 C 
HETATM    7  C   UNK N   1      26.546  27.785  -3.076  0.00  0.00     0.048 C 
HETATM    8  C   UNK N   1      28.290  26.607  -4.276  0.00  0.00    -0.004 A 
HETATM    9  C   UNK N   1      27.060  27.647  -6.884  0.00  0.00     0.010 C 
HETATM   10  C   UNK N   1      26.184  25.432  -6.145  0.00  0.00     0.148 C 
HETATM   11  C   UNK N   1      29.419  28.706  -5.002  0.00  0.00     0.075 C 
HETATM   12  C   UNK N   1      25.956  26.605  -7.098  0.00  0.00     0.035 C 
HETATM   13  C   UNK N   1      27.471  28.955  -2.699  0.00  0.00     0.273 C 
HETATM   14  C   UNK N   1      29.473  27.302  -4.440  0.00  0.00    -0.046 A 
HETATM   15  C   UNK N   1      28.223  25.316  -3.907  0.00  0.00     0.110 A 
HETATM   16  C   UNK N   1      26.450  30.766  -3.876  0.00  0.00     0.310 C 
HETATM   17  C   UNK N   1      30.671  26.628  -4.152  0.00  0.00     0.011 A 
HETATM   18  C   UNK N   1      29.380  24.608  -3.571  0.00  0.00     0.102 A 
HETATM   19  C   UNK N   1      30.624  25.290  -3.686  0.00  0.00     0.040 A 
ENDROOT
BRANCH  10  20
HETATM   20  O   UNK N   1      25.271  24.407  -6.400  0.00  0.00    -0.393 OA
HETATM   21  H   UNK N   1      24.477  24.310  -5.852  0.00  0.00     0.210 HD
ENDBRANCH  10  20
BRANCH  18  22
HETATM   22  O   UNK N   1      29.298  23.323  -3.158  0.00  0.00    -0.353 OA
HETATM   23  C   UNK N   1      30.038  22.828  -2.108  0.00  0.00     0.210 C 
ENDBRANCH  18  22
TORSDOF 2
ENDMDL
MODEL 4
REMARK VINA RESULT:      -6.4      8.581      9.996
REMARK  2 active torsions:
REMARK  status: ('A' for Active; 'I' for Inactive)
REMARK    1  A    between atoms: C_12  and  O_2 
REMARK    2  A    between atoms: O_3  and  C_20 
ROOT
HETATM    1  O   UNK N   1      30.861  16.119   8.122  0.00  0.00    -0.339 OA
HETATM    2  N   UNK N   1      32.394  14.912   3.407  0.00  0.00     0.089 N 
HETATM    3  C   UNK N   1      32.109  15.792   6.186  0.00  0.00     0.026 C 
HETATM    4  C   UNK N   1      33.298  16.240   5.333  0.00  0.00     0.035 C 
HETATM    5  C   UNK N   1      32.194  15.890   7.743  0.00  0.00     0.171 C 
HETATM    6  C   UNK N   1      32.782  16.272   3.850  0.00  0.00     0.232 C 
HETATM    7  C   UNK N   1      31.736  14.358   5.764  0.00  0.00     0.048 C 
HETATM    8  C   UNK N   1      30.932  16.634   5.972  0.00  0.00    -0.004 A 
HETATM    9  C   UNK N   1      33.849  17.569   5.844  0.00  0.00     0.010 C 
HETATM   10  C   UNK N   1      33.004  17.147   8.152  0.00  0.00     0.148 C 
HETATM   11  C   UNK N   1      31.560  17.230   3.636  0.00  0.00     0.075 C 
HETATM   12  C   UNK N   1      34.257  17.385   7.310  0.00  0.00     0.035 C 
HETATM   13  C   UNK N   1      31.386  14.275   4.269  0.00  0.00     0.273 C 
HETATM   14  C   UNK N   1      30.578  17.250   4.787  0.00  0.00    -0.046 A 
HETATM   15  C   UNK N   1      30.200  16.695   7.098  0.00  0.00     0.110 A 
HETATM   16  C   UNK N   1      33.550  14.030   3.288  0.00  0.00     0.310 C 
HETATM   17  C   UNK N   1      29.353  17.936   4.749  0.00  0.00     0.011 A 
HETATM   18  C   UNK N   1      28.956  17.331   7.107  0.00  0.00     0.102 A 
HETATM   19  C   UNK N   1      28.525  17.950   5.900  0.00  0.00     0.040 A 
ENDROOT
BRANCH  10  20
HETATM   20  O   UNK N   1      33.327  17.101   9.509  0.00  0.00    -0.393 OA
HETATM   21  H   UNK N   1      34.235  16.910   9.792  0.00  0.00     0.210 HD
ENDBRANCH  10  20
BRANCH  18  22
HETATM   22  O   UNK N   1      28.207  17.349   8.233  0.00  0.00    -0.353 OA
HETATM   23  C   UNK N   1      28.365  18.293   9.222  0.00  0.00     0.210 C 
ENDBRANCH  18  22
TORSDOF 2
ENDMDL
MODEL 5
REMARK VINA RESULT:      -6.2     13.667     15.975
REMARK  2 active torsions:
REMARK  status: ('A' for Active; 'I' for Inactive)
REMARK    1  A    between atoms: C_12  and  O_2 
REMARK    2  A    between atoms: O_3  and  C_20 
ROOT
HETATM    1  O   UNK N   1      37.119  12.854  13.514  0.00  0.00    -0.339 OA
HETATM    2  N   UNK N   1      36.430   8.411  15.927  0.00  0.00     0.089 N 
HETATM    3  C   UNK N   1      36.439  10.712  14.115  0.00  0.00     0.026 C 
HETATM    4  C   UNK N   1      35.359   9.631  14.016  0.00  0.00     0.035 C 
HETATM    5  C   UNK N   1      36.693  11.663  12.903  0.00  0.00     0.171 C 
HETATM    6  C   UNK N   1      35.180   9.061  15.468  0.00  0.00     0.232 C 
HETATM    7  C   UNK N   1      37.753  10.031  14.542  0.00  0.00     0.048 C 
HETATM    8  C   UNK N   1      36.117  11.719  15.126  0.00  0.00    -0.004 A 
HETATM    9  C   UNK N   1      34.087  10.205  13.397  0.00  0.00     0.010 C 
HETATM   10  C   UNK N   1      35.357  11.975  12.182  0.00  0.00     0.148 C 
HETATM   11  C   UNK N   1      34.774  10.150  16.520  0.00  0.00     0.075 C 
HETATM   12  C   UNK N   1      34.439  10.765  12.014  0.00  0.00     0.035 C 
HETATM   13  C   UNK N   1      37.606   9.294  15.883  0.00  0.00     0.273 C 
HETATM   14  C   UNK N   1      35.429  11.496  16.304  0.00  0.00    -0.046 A 
HETATM   15  C   UNK N   1      36.628  12.910  14.768  0.00  0.00     0.110 A 
HETATM   16  C   UNK N   1      36.716   7.193  15.175  0.00  0.00     0.310 C 
HETATM   17  C   UNK N   1      35.306  12.571  17.200  0.00  0.00     0.011 A 
HETATM   18  C   UNK N   1      36.569  14.002  15.637  0.00  0.00     0.102 A 
HETATM   19  C   UNK N   1      35.904  13.817  16.882  0.00  0.00     0.040 A 
ENDROOT
BRANCH  10  20
HETATM   20  O   UNK N   1      35.595  12.586  10.950  0.00  0.00    -0.393 OA
HETATM   21  H   UNK N   1      35.394  13.526  10.821  0.00  0.00     0.210 HD
ENDBRANCH  10  20
BRANCH  18  22
HETATM   22  O   UNK N   1      37.127  15.183  15.287  0.00  0.00    -0.353 OA
HETATM   23  C   UNK N   1      37.493  16.139  16.209  0.00  0.00     0.210 C 
ENDBRANCH  18  22
TORSDOF 2
ENDMDL
MODEL 6
REMARK VINA RESULT:      -6.2     12.856     14.349
REMARK  2 active torsions:
REMARK  status: ('A' for Active; 'I' for Inactive)
REMARK    1  A    between atoms: C_12  and  O_2 
REMARK    2  A    between atoms: O_3  and  C_20 
ROOT
HETATM    1  O   UNK N   1      35.719  14.043  13.472  0.00  0.00    -0.339 OA
HETATM    2  N   UNK N   1      37.111  10.232  10.376  0.00  0.00     0.089 N 
HETATM    3  C   UNK N   1      36.163  12.710  11.617  0.00  0.00     0.026 C 
HETATM    4  C   UNK N   1      35.809  12.365  10.168  0.00  0.00     0.035 C 
HETATM    5  C   UNK N   1      36.041  14.187  12.112  0.00  0.00     0.171 C 
HETATM    6  C   UNK N   1      35.771  10.797  10.091  0.00  0.00     0.232 C 
HETATM    7  C   UNK N   1      37.577  12.170  11.901  0.00  0.00     0.048 C 
HETATM    8  C   UNK N   1      35.251  12.078  12.570  0.00  0.00    -0.004 A 
HETATM    9  C   UNK N   1      34.509  13.054   9.760  0.00  0.00     0.010 C 
HETATM   10  C   UNK N   1      34.832  14.877  11.430  0.00  0.00     0.148 C 
HETATM   11  C   UNK N   1      34.741  10.149  11.078  0.00  0.00     0.075 C 
HETATM   12  C   UNK N   1      34.691  14.565   9.941  0.00  0.00     0.035 C 
HETATM   13  C   UNK N   1      37.666  10.651  11.673  0.00  0.00     0.273 C 
HETATM   14  C   UNK N   1      34.636  10.851  12.414  0.00  0.00    -0.046 A 
HETATM   15  C   UNK N   1      35.121  12.850  13.663  0.00  0.00     0.110 A 
HETATM   16  C   UNK N   1      38.069  10.548   9.321  0.00  0.00     0.310 C 
HETATM   17  C   UNK N   1      33.873  10.363  13.488  0.00  0.00     0.011 A 
HETATM   18  C   UNK N   1      34.406  12.399  14.775  0.00  0.00     0.102 A 
HETATM   19  C   UNK N   1      33.783  11.122  14.682  0.00  0.00     0.040 A 
ENDROOT
BRANCH  10  20
HETATM   20  O   UNK N   1      34.873  16.257  11.641  0.00  0.00    -0.393 OA
HETATM   21  H   UNK N   1      35.529  16.643  12.241  0.00  0.00     0.210 HD
ENDBRANCH  10  20
BRANCH  18  22
HETATM   22  O   UNK N   1      34.319  13.164  15.887  0.00  0.00    -0.353 OA
HETATM   23  C   UNK N   1      35.188  13.041  16.948  0.00  0.00     0.210 C 
ENDBRANCH  18  22
TORSDOF 2
ENDMDL
MODEL 7
REMARK VINA RESULT:      -6.2      3.660      5.889
REMARK  2 active torsions:
REMARK  status: ('A' for Active; 'I' for Inactive)
REMARK    1  A    between atoms: C_12  and  O_2 
REMARK    2  A    between atoms: O_3  and  C_20 
ROOT
HETATM    1  O   UNK N   1      21.580  18.660   6.182  0.00  0.00    -0.339 OA
HETATM    2  N   UNK N   1      23.840  14.680   3.925  0.00  0.00     0.089 N 
HETATM    3  C   UNK N   1      22.387  17.122   4.633  0.00  0.00     0.026 C 
HETATM    4  C   UNK N   1      22.209  16.465   3.262  0.00  0.00     0.035 C 
HETATM    5  C   UNK N   1      21.974  18.615   4.834  0.00  0.00     0.171 C 
HETATM    6  C   UNK N   1      22.448  14.929   3.481  0.00  0.00     0.232 C 
HETATM    7  C   UNK N   1      23.847  16.911   5.075  0.00  0.00     0.048 C 
HETATM    8  C   UNK N   1      21.527  16.513   5.648  0.00  0.00    -0.004 A 
HETATM    9  C   UNK N   1      20.845  16.819   2.675  0.00  0.00     0.010 C 
HETATM   10  C   UNK N   1      20.720  18.939   3.983  0.00  0.00     0.148 C 
HETATM   11  C   UNK N   1      21.473  14.289   4.528  0.00  0.00     0.075 C 
HETATM   12  C   UNK N   1      20.748  18.346   2.575  0.00  0.00     0.035 C 
HETATM   13  C   UNK N   1      24.214  15.418   5.142  0.00  0.00     0.273 C 
HETATM   14  C   UNK N   1      21.147  15.186   5.702  0.00  0.00    -0.046 A 
HETATM   15  C   UNK N   1      21.183  17.431   6.569  0.00  0.00     0.110 A 
HETATM   16  C   UNK N   1      24.806  14.973   2.871  0.00  0.00     0.310 C 
HETATM   17  C   UNK N   1      20.400  14.766   6.815  0.00  0.00     0.011 A 
HETATM   18  C   UNK N   1      20.474  17.062   7.715  0.00  0.00     0.102 A 
HETATM   19  C   UNK N   1      20.090  15.696   7.839  0.00  0.00     0.040 A 
ENDROOT
BRANCH  10  20
HETATM   20  O   UNK N   1      20.505  20.318   3.930  0.00  0.00    -0.393 OA
HETATM   21  H   UNK N   1      20.950  20.908   4.559  0.00  0.00     0.210 HD
ENDBRANCH  10  20
BRANCH  18  22
HETATM   22  O   UNK N   1      20.172  17.983   8.658  0.00  0.00    -0.353 OA
HETATM   23  C   UNK N   1      18.979  17.986   9.345  0.00  0.00     0.210 C 
ENDBRANCH  18  22
TORSDOF 2
ENDMDL
MODEL 8
REMARK VINA RESULT:      -6.1     16.476     18.503
REMARK  2 active torsions:
REMARK  status: ('A' for Active; 'I' for Inactive)
REMARK    1  A    between atoms: C_12  and  O_2 
REMARK    2  A    between atoms: O_3  and  C_20 
ROOT
HETATM    1  O   UNK N   1      29.892  22.679  -6.102  0.00  0.00    -0.339 OA
HETATM    2  N   UNK N   1      27.019  26.688  -4.793  0.00  0.00     0.089 N 
HETATM    3  C   UNK N   1      28.767  24.342  -4.926  0.00  0.00     0.026 C 
HETATM    4  C   UNK N   1      28.107  24.763  -3.610  0.00  0.00     0.035 C 
HETATM    5  C   UNK N   1      30.009  23.395  -4.899  0.00  0.00     0.171 C 
HETATM    6  C   UNK N   1      26.757  25.460  -4.004  0.00  0.00     0.232 C 
HETATM    7  C   UNK N   1      29.089  25.618  -5.725  0.00  0.00     0.048 C 
HETATM    8  C   UNK N   1      27.878  23.521  -5.747  0.00  0.00    -0.004 A 
HETATM    9  C   UNK N   1      27.954  23.560  -2.683  0.00  0.00     0.010 C 
HETATM   10  C   UNK N   1      29.871  22.370  -3.745  0.00  0.00     0.148 C 
HETATM   11  C   UNK N   1      25.796  24.538  -4.831  0.00  0.00     0.075 C 
HETATM   12  C   UNK N   1      29.346  22.964  -2.439  0.00  0.00     0.035 C 
HETATM   13  C   UNK N   1      27.827  26.454  -6.000  0.00  0.00     0.273 C 
HETATM   14  C   UNK N   1      26.502  23.630  -5.813  0.00  0.00    -0.046 A 
HETATM   15  C   UNK N   1      28.599  22.653  -6.479  0.00  0.00     0.110 A 
HETATM   16  C   UNK N   1      27.653  27.726  -3.986  0.00  0.00     0.310 C 
HETATM   17  C   UNK N   1      25.827  22.819  -6.741  0.00  0.00     0.011 A 
HETATM   18  C   UNK N   1      27.985  21.851  -7.444  0.00  0.00     0.102 A 
HETATM   19  C   UNK N   1      26.571  21.951  -7.581  0.00  0.00     0.040 A 
ENDROOT
BRANCH  10  20
HETATM   20  O   UNK N   1      31.081  21.707  -3.530  0.00  0.00    -0.393 OA
HETATM   21  H   UNK N   1      31.269  21.292  -2.674  0.00  0.00     0.210 HD
ENDBRANCH  10  20
BRANCH  18  22
HETATM   22  O   UNK N   1      28.724  21.014  -8.207  0.00  0.00    -0.353 OA
HETATM   23  C   UNK N   1      29.001  19.716  -7.840  0.00  0.00     0.210 C 
ENDBRANCH  18  22
TORSDOF 2
ENDMDL
MODEL 9
REMARK VINA RESULT:      -6.1      8.212      9.453
REMARK  2 active torsions:
REMARK  status: ('A' for Active; 'I' for Inactive)
REMARK    1  A    between atoms: C_12  and  O_2 
REMARK    2  A    between atoms: O_3  and  C_20 
ROOT
HETATM    1  O   UNK N   1      28.599  17.905   4.276  0.00  0.00    -0.339 OA
HETATM    2  N   UNK N   1      33.167  16.170   5.745  0.00  0.00     0.089 N 
HETATM    3  C   UNK N   1      30.469  16.582   4.684  0.00  0.00     0.026 C 
HETATM    4  C   UNK N   1      31.020  15.173   4.920  0.00  0.00     0.035 C 
HETATM    5  C   UNK N   1      29.248  16.785   3.730  0.00  0.00     0.171 C 
HETATM    6  C   UNK N   1      32.030  15.295   6.116  0.00  0.00     0.232 C 
HETATM    7  C   UNK N   1      31.639  17.483   4.248  0.00  0.00     0.048 C 
HETATM    8  C   UNK N   1      29.899  17.159   5.902  0.00  0.00    -0.004 A 
HETATM    9  C   UNK N   1      29.878  14.187   5.150  0.00  0.00     0.010 C 
HETATM   10  C   UNK N   1      28.272  15.588   3.855  0.00  0.00     0.148 C 
HETATM   11  C   UNK N   1      31.380  15.858   7.426  0.00  0.00     0.075 C 
HETATM   12  C   UNK N   1      28.959  14.224   3.923  0.00  0.00     0.035 C 
HETATM   13  C   UNK N   1      32.760  17.513   5.301  0.00  0.00     0.273 C 
HETATM   14  C   UNK N   1      30.340  16.932   7.192  0.00  0.00    -0.046 A 
HETATM   15  C   UNK N   1      28.893  17.993   5.588  0.00  0.00     0.110 A 
HETATM   16  C   UNK N   1      34.009  15.562   4.721  0.00  0.00     0.310 C 
HETATM   17  C   UNK N   1      29.730  17.659   8.227  0.00  0.00     0.011 A 
HETATM   18  C   UNK N   1      28.276  18.770   6.573  0.00  0.00     0.102 A 
HETATM   19  C   UNK N   1      28.719  18.603   7.915  0.00  0.00     0.040 A 
ENDROOT
BRANCH  10  20
HETATM   20  O   UNK N   1      27.332  15.613   2.822  0.00  0.00    -0.393 OA
HETATM   21  H   UNK N   1      27.399  16.271   2.113  0.00  0.00     0.210 HD
ENDBRANCH  10  20
BRANCH  18  22
HETATM   22  O   UNK N   1      27.295  19.640   6.240  0.00  0.00    -0.353 OA
HETATM   23  C   UNK N   1      27.478  21.005   6.234  0.00  0.00     0.210 C 
ENDBRANCH  18  22
TORSDOF 2
ENDMDL
