MODEL 1
REMARK VINA RESULT:      -6.0      0.000      0.000
REMARK  9 active torsions:
REMARK  status: ('A' for Active; 'I' for Inactive)
REMARK    1  A    between atoms: C_6  and  O_1 
REMARK    2  A    between atoms: O_1  and  C_23 
REMARK    3  A    between atoms: C_7  and  N_3 
REMARK    4  A    between atoms: C_4  and  C_5 
REMARK    5  A    between atoms: C_4  and  C_6 
REMARK    6  A    between atoms: C_4  and  C_8 
REMARK    7  A    between atoms: C_4  and  C_9 
REMARK    8  A    between atoms: C_5  and  C_7 
REMARK    9  A    between atoms: C_6  and  C_10 
ROOT
HETATM    1  C   UNK N   1      29.462  17.066   5.751  0.00  0.00     0.043 C 
ENDROOT
BRANCH   1   2
HETATM    2  C   UNK N   1      28.517  15.834   5.763  0.00  0.00     0.057 C 
BRANCH   2   3
HETATM    3  C   UNK N   1      27.287  15.828   4.807  0.00  0.00     0.219 C 
HETATM    4  C   UNK N   1      27.465  15.103   3.469  0.00  0.00     0.043 C 
BRANCH   3   5
HETATM    5  N   UNK N   1      25.960  15.695   5.435  0.00  0.00     0.084 N 
HETATM    6  C   UNK N   1      26.166  15.579   6.869  0.00  0.00     0.309 C 
HETATM    7  C   UNK N   1      25.132  16.881   5.235  0.00  0.00     0.309 C 
ENDBRANCH   3   5
ENDBRANCH   2   3
ENDBRANCH   1   2
BRANCH   1   8
HETATM    8  C   UNK N   1      30.066  17.294   7.194  0.00  0.00     0.149 C 
BRANCH   8   9
HETATM    9  O   UNK N   1      29.235  16.793   8.188  0.00  0.00    -0.315 OA
BRANCH   9  10
HETATM   10  C   UNK N   1      28.739  17.466   9.259  0.00  0.00     0.255 C 
HETATM   11  O   UNK N   1      27.616  17.231   9.697  0.00  0.00    -0.266 OA
HETATM   12  C   UNK N   1      29.535  18.568   9.859  0.00  0.00     0.126 C 
ENDBRANCH   9  10
ENDBRANCH   8   9
BRANCH   8  13
HETATM   13  C   UNK N   1      31.483  16.706   7.311  0.00  0.00     0.029 C 
HETATM   14  C   UNK N   1      32.412  17.758   7.895  0.00  0.00     0.007 C 
ENDBRANCH   8  13
ENDBRANCH   1   8
BRANCH   1  15
HETATM   15  C   UNK N   1      28.595  18.310   5.481  0.00  0.00    -0.042 A 
HETATM   16  C   UNK N   1      28.044  19.097   6.504  0.00  0.00     0.008 A 
HETATM   17  C   UNK N   1      27.212  20.179   6.203  0.00  0.00     0.001 A 
HETATM   18  C   UNK N   1      26.918  20.490   4.874  0.00  0.00     0.000 A 
HETATM   19  C   UNK N   1      27.453  19.717   3.843  0.00  0.00     0.001 A 
HETATM   20  C   UNK N   1      28.278  18.633   4.144  0.00  0.00     0.008 A 
ENDBRANCH   1  15
BRANCH   1  21
HETATM   21  C   UNK N   1      30.600  16.712   4.756  0.00  0.00    -0.042 A 
HETATM   22  C   UNK N   1      31.474  17.735   4.325  0.00  0.00     0.008 A 
HETATM   23  C   UNK N   1      32.543  17.474   3.470  0.00  0.00     0.001 A 
HETATM   24  C   UNK N   1      32.791  16.168   3.057  0.00  0.00     0.000 A 
HETATM   25  C   UNK N   1      31.956  15.134   3.484  0.00  0.00     0.001 A 
HETATM   26  C   UNK N   1      30.863  15.406   4.315  0.00  0.00     0.008 A 
ENDBRANCH   1  21
TORSDOF 9
ENDMDL
MODEL 2
REMARK VINA RESULT:      -6.0      1.572      3.030
REMARK  9 active torsions:
REMARK  status: ('A' for Active; 'I' for Inactive)
REMARK    1  A    between atoms: C_6  and  O_1 
REMARK    2  A    between atoms: O_1  and  C_23 
REMARK    3  A    between atoms: C_7  and  N_3 
REMARK    4  A    between atoms: C_4  and  C_5 
REMARK    5  A    between atoms: C_4  and  C_6 
REMARK    6  A    between atoms: C_4  and  C_8 
REMARK    7  A    between atoms: C_4  and  C_9 
REMARK    8  A    between atoms: C_5  and  C_7 
REMARK    9  A    between atoms: C_6  and  C_10 
ROOT
HETATM    1  C   UNK N   1      28.420  17.004   5.290  0.00  0.00     0.043 C 
ENDROOT
BRANCH   1   2
HETATM    2  C   UNK N   1      28.065  16.001   4.160  0.00  0.00     0.057 C 
BRANCH   2   3
HETATM    3  C   UNK N   1      28.912  14.701   4.022  0.00  0.00     0.219 C 
HETATM    4  C   UNK N   1      28.311  13.427   4.623  0.00  0.00     0.043 C 
BRANCH   3   5
HETATM    5  N   UNK N   1      29.657  14.525   2.763  0.00  0.00     0.084 N 
HETATM    6  C   UNK N   1      31.002  14.098   3.107  0.00  0.00     0.309 C 
HETATM    7  C   UNK N   1      29.092  13.465   1.930  0.00  0.00     0.309 C 
ENDBRANCH   3   5
ENDBRANCH   2   3
ENDBRANCH   1   2
BRANCH   1   8
HETATM    8  C   UNK N   1      27.706  16.576   6.633  0.00  0.00     0.149 C 
BRANCH   8   9
HETATM    9  O   UNK N   1      27.690  17.608   7.563  0.00  0.00    -0.315 OA
BRANCH   9  10
HETATM   10  C   UNK N   1      28.133  17.565   8.846  0.00  0.00     0.255 C 
HETATM   11  O   UNK N   1      27.576  16.871   9.691  0.00  0.00    -0.266 OA
HETATM   12  C   UNK N   1      29.262  18.439   9.257  0.00  0.00     0.126 C 
ENDBRANCH   9  10
ENDBRANCH   8   9
BRANCH   8  13
HETATM   13  C   UNK N   1      26.286  16.045   6.373  0.00  0.00     0.029 C 
HETATM   14  C   UNK N   1      26.020  14.863   7.292  0.00  0.00     0.007 C 
ENDBRANCH   8  13
ENDBRANCH   1   8
BRANCH   1  15
HETATM   15  C   UNK N   1      27.789  18.360   4.919  0.00  0.00    -0.042 A 
HETATM   16  C   UNK N   1      28.047  19.544   5.626  0.00  0.00     0.008 A 
HETATM   17  C   UNK N   1      27.399  20.734   5.286  0.00  0.00     0.001 A 
HETATM   18  C   UNK N   1      26.482  20.759   4.233  0.00  0.00     0.000 A 
HETATM   19  C   UNK N   1      26.209  19.591   3.521  0.00  0.00     0.001 A 
HETATM   20  C   UNK N   1      26.852  18.401   3.865  0.00  0.00     0.008 A 
ENDBRANCH   1  15
BRANCH   1  21
HETATM   21  C   UNK N   1      29.960  16.915   5.462  0.00  0.00    -0.042 A 
HETATM   22  C   UNK N   1      30.793  17.558   4.519  0.00  0.00     0.008 A 
HETATM   23  C   UNK N   1      32.181  17.556   4.644  0.00  0.00     0.001 A 
HETATM   24  C   UNK N   1      32.771  16.942   5.745  0.00  0.00     0.000 A 
HETATM   25  C   UNK N   1      31.972  16.316   6.704  0.00  0.00     0.001 A 
HETATM   26  C   UNK N   1      30.580  16.292   6.557  0.00  0.00     0.008 A 
ENDBRANCH   1  21
TORSDOF 9
ENDMDL
MODEL 3
REMARK VINA RESULT:      -5.7     11.727     14.271
REMARK  9 active torsions:
REMARK  status: ('A' for Active; 'I' for Inactive)
REMARK    1  A    between atoms: C_6  and  O_1 
REMARK    2  A    between atoms: O_1  and  C_23 
REMARK    3  A    between atoms: C_7  and  N_3 
REMARK    4  A    between atoms: C_4  and  C_5 
REMARK    5  A    between atoms: C_4  and  C_6 
REMARK    6  A    between atoms: C_4  and  C_8 
REMARK    7  A    between atoms: C_4  and  C_9 
REMARK    8  A    between atoms: C_5  and  C_7 
REMARK    9  A    between atoms: C_6  and  C_10 
ROOT
HETATM    1  C   UNK N   1      27.725  23.782  -5.685  0.00  0.00     0.043 C 
ENDROOT
BRANCH   1   2
HETATM    2  C   UNK N   1      26.642  24.397  -4.759  0.00  0.00     0.057 C 
BRANCH   2   3
HETATM    3  C   UNK N   1      26.337  25.920  -4.874  0.00  0.00     0.219 C 
HETATM    4  C   UNK N   1      25.061  26.307  -5.627  0.00  0.00     0.043 C 
BRANCH   3   5
HETATM    5  N   UNK N   1      26.666  26.752  -3.703  0.00  0.00     0.084 N 
HETATM    6  C   UNK N   1      27.968  27.352  -3.945  0.00  0.00     0.309 C 
HETATM    7  C   UNK N   1      25.731  27.861  -3.532  0.00  0.00     0.309 C 
ENDBRANCH   3   5
ENDBRANCH   2   3
ENDBRANCH   1   2
BRANCH   1   8
HETATM    8  C   UNK N   1      28.330  24.902  -6.622  0.00  0.00     0.149 C 
BRANCH   8   9
HETATM    9  O   UNK N   1      29.719  24.884  -6.620  0.00  0.00    -0.315 OA
BRANCH   9  10
HETATM   10  C   UNK N   1      30.553  25.905  -6.292  0.00  0.00     0.255 C 
HETATM   11  O   UNK N   1      30.512  26.978  -6.887  0.00  0.00    -0.266 OA
HETATM   12  C   UNK N   1      31.592  25.692  -5.252  0.00  0.00     0.126 C 
ENDBRANCH   9  10
ENDBRANCH   8   9
BRANCH   8  13
HETATM   13  C   UNK N   1      27.779  24.796  -8.054  0.00  0.00     0.029 C 
HETATM   14  C   UNK N   1      27.339  26.174  -8.522  0.00  0.00     0.007 C 
ENDBRANCH   8  13
ENDBRANCH   1   8
BRANCH   1  15
HETATM   15  C   UNK N   1      27.015  22.804  -6.639  0.00  0.00    -0.042 A 
HETATM   16  C   UNK N   1      25.621  22.651  -6.683  0.00  0.00     0.008 A 
HETATM   17  C   UNK N   1      25.032  21.703  -7.523  0.00  0.00     0.001 A 
HETATM   18  C   UNK N   1      25.829  20.891  -8.332  0.00  0.00     0.000 A 
HETATM   19  C   UNK N   1      27.217  21.024  -8.300  0.00  0.00     0.001 A 
HETATM   20  C   UNK N   1      27.805  21.967  -7.456  0.00  0.00     0.008 A 
ENDBRANCH   1  15
BRANCH   1  21
HETATM   21  C   UNK N   1      28.829  23.239  -4.737  0.00  0.00    -0.042 A 
HETATM   22  C   UNK N   1      28.917  23.755  -3.425  0.00  0.00     0.008 A 
HETATM   23  C   UNK N   1      29.854  23.276  -2.510  0.00  0.00     0.001 A 
HETATM   24  C   UNK N   1      30.702  22.234  -2.876  0.00  0.00     0.000 A 
HETATM   25  C   UNK N   1      30.623  21.692  -4.160  0.00  0.00     0.001 A 
HETATM   26  C   UNK N   1      29.703  22.199  -5.086  0.00  0.00     0.008 A 
ENDBRANCH   1  21
TORSDOF 9
ENDMDL
MODEL 4
REMARK VINA RESULT:      -5.7      1.979      4.903
REMARK  9 active torsions:
REMARK  status: ('A' for Active; 'I' for Inactive)
REMARK    1  A    between atoms: C_6  and  O_1 
REMARK    2  A    between atoms: O_1  and  C_23 
REMARK    3  A    between atoms: C_7  and  N_3 
REMARK    4  A    between atoms: C_4  and  C_5 
REMARK    5  A    between atoms: C_4  and  C_6 
REMARK    6  A    between atoms: C_4  and  C_8 
REMARK    7  A    between atoms: C_4  and  C_9 
REMARK    8  A    between atoms: C_5  and  C_7 
REMARK    9  A    between atoms: C_6  and  C_10 
ROOT
HETATM    1  C   UNK N   1      29.070  17.198   5.615  0.00  0.00     0.043 C 
ENDROOT
BRANCH   1   2
HETATM    2  C   UNK N   1      28.834  18.568   4.925  0.00  0.00     0.057 C 
BRANCH   2   3
HETATM    3  C   UNK N   1      27.485  19.307   5.174  0.00  0.00     0.219 C 
HETATM    4  C   UNK N   1      27.568  20.660   5.888  0.00  0.00     0.043 C 
BRANCH   3   5
HETATM    5  N   UNK N   1      26.468  19.205   4.112  0.00  0.00     0.084 N 
HETATM    6  C   UNK N   1      25.181  19.010   4.758  0.00  0.00     0.309 C 
HETATM    7  C   UNK N   1      26.353  20.438   3.337  0.00  0.00     0.309 C 
ENDBRANCH   3   5
ENDBRANCH   2   3
ENDBRANCH   1   2
BRANCH   1   8
HETATM    8  C   UNK N   1      30.445  16.584   5.135  0.00  0.00     0.149 C 
BRANCH   8   9
HETATM    9  O   UNK N   1      31.408  17.566   4.933  0.00  0.00    -0.315 OA
BRANCH   9  10
HETATM   10  C   UNK N   1      32.703  17.383   4.569  0.00  0.00     0.255 C 
HETATM   11  O   UNK N   1      33.627  17.792   5.266  0.00  0.00    -0.266 OA
HETATM   12  C   UNK N   1      33.009  16.751   3.259  0.00  0.00     0.126 C 
ENDBRANCH   9  10
ENDBRANCH   8   9
BRANCH   8  13
HETATM   13  C   UNK N   1      30.952  15.506   6.108  0.00  0.00     0.029 C 
HETATM   14  C   UNK N   1      30.955  14.160   5.402  0.00  0.00     0.007 C 
ENDBRANCH   8  13
ENDBRANCH   1   8
BRANCH   1  15
HETATM   15  C   UNK N   1      27.996  16.227   5.092  0.00  0.00    -0.042 A 
HETATM   16  C   UNK N   1      27.071  15.583   5.929  0.00  0.00     0.008 A 
HETATM   17  C   UNK N   1      26.158  14.662   5.410  0.00  0.00     0.001 A 
HETATM   18  C   UNK N   1      26.156  14.368   4.045  0.00  0.00     0.000 A 
HETATM   19  C   UNK N   1      27.069  14.994   3.197  0.00  0.00     0.001 A 
HETATM   20  C   UNK N   1      27.986  15.909   3.717  0.00  0.00     0.008 A 
ENDBRANCH   1  15
BRANCH   1  21
HETATM   21  C   UNK N   1      29.133  17.500   7.136  0.00  0.00    -0.042 A 
HETATM   22  C   UNK N   1      30.278  18.141   7.660  0.00  0.00     0.008 A 
HETATM   23  C   UNK N   1      30.375  18.483   9.008  0.00  0.00     0.001 A 
HETATM   24  C   UNK N   1      29.306  18.228   9.861  0.00  0.00     0.000 A 
HETATM   25  C   UNK N   1      28.153  17.613   9.367  0.00  0.00     0.001 A 
HETATM   26  C   UNK N   1      28.073  17.241   8.020  0.00  0.00     0.008 A 
ENDBRANCH   1  21
TORSDOF 9
ENDMDL
MODEL 5
REMARK VINA RESULT:      -5.7      2.033      4.842
REMARK  9 active torsions:
REMARK  status: ('A' for Active; 'I' for Inactive)
REMARK    1  A    between atoms: C_6  and  O_1 
REMARK    2  A    between atoms: O_1  and  C_23 
REMARK    3  A    between atoms: C_7  and  N_3 
REMARK    4  A    between atoms: C_4  and  C_5 
REMARK    5  A    between atoms: C_4  and  C_6 
REMARK    6  A    between atoms: C_4  and  C_8 
REMARK    7  A    between atoms: C_4  and  C_9 
REMARK    8  A    between atoms: C_5  and  C_7 
REMARK    9  A    between atoms: C_6  and  C_10 
ROOT
HETATM    1  C   UNK N   1      29.558  17.139   5.473  0.00  0.00     0.043 C 
ENDROOT
BRANCH   1   2
HETATM    2  C   UNK N   1      29.242  18.507   4.813  0.00  0.00     0.057 C 
BRANCH   2   3
HETATM    3  C   UNK N   1      27.822  19.118   5.005  0.00  0.00     0.219 C 
HETATM    4  C   UNK N   1      27.738  20.409   5.826  0.00  0.00     0.043 C 
BRANCH   3   5
HETATM    5  N   UNK N   1      26.901  19.030   3.857  0.00  0.00     0.084 N 
HETATM    6  C   UNK N   1      25.743  18.263   4.284  0.00  0.00     0.309 C 
HETATM    7  C   UNK N   1      26.396  20.339   3.451  0.00  0.00     0.309 C 
ENDBRANCH   3   5
ENDBRANCH   2   3
ENDBRANCH   1   2
BRANCH   1   8
HETATM    8  C   UNK N   1      31.082  16.779   5.261  0.00  0.00     0.149 C 
BRANCH   8   9
HETATM    9  O   UNK N   1      31.261  15.429   4.982  0.00  0.00    -0.315 OA
BRANCH   9  10
HETATM   10  C   UNK N   1      31.616  14.450   5.854  0.00  0.00     0.255 C 
HETATM   11  O   UNK N   1      31.362  13.271   5.629  0.00  0.00    -0.266 OA
HETATM   12  C   UNK N   1      32.246  14.821   7.148  0.00  0.00     0.126 C 
ENDBRANCH   9  10
ENDBRANCH   8   9
BRANCH   8  13
HETATM   13  C   UNK N   1      31.723  17.657   4.174  0.00  0.00     0.029 C 
HETATM   14  C   UNK N   1      32.348  16.763   3.115  0.00  0.00     0.007 C 
ENDBRANCH   8  13
ENDBRANCH   1   8
BRANCH   1  15
HETATM   15  C   UNK N   1      28.782  16.060   4.694  0.00  0.00    -0.042 A 
HETATM   16  C   UNK N   1      28.654  16.067   3.296  0.00  0.00     0.008 A 
HETATM   17  C   UNK N   1      27.885  15.099   2.645  0.00  0.00     0.001 A 
HETATM   18  C   UNK N   1      27.230  14.110   3.382  0.00  0.00     0.000 A 
HETATM   19  C   UNK N   1      27.342  14.088   4.772  0.00  0.00     0.001 A 
HETATM   20  C   UNK N   1      28.105  15.059   5.423  0.00  0.00     0.008 A 
ENDBRANCH   1  15
BRANCH   1  21
HETATM   21  C   UNK N   1      29.269  17.326   6.987  0.00  0.00    -0.042 A 
HETATM   22  C   UNK N   1      30.293  17.826   7.822  0.00  0.00     0.008 A 
HETATM   23  C   UNK N   1      30.083  18.062   9.179  0.00  0.00     0.001 A 
HETATM   24  C   UNK N   1      28.823  17.843   9.729  0.00  0.00     0.000 A 
HETATM   25  C   UNK N   1      27.786  17.369   8.922  0.00  0.00     0.001 A 
HETATM   26  C   UNK N   1      28.011  17.101   7.567  0.00  0.00     0.008 A 
ENDBRANCH   1  21
TORSDOF 9
ENDMDL
MODEL 6
REMARK VINA RESULT:      -5.6     11.795     14.643
REMARK  9 active torsions:
REMARK  status: ('A' for Active; 'I' for Inactive)
REMARK    1  A    between atoms: C_6  and  O_1 
REMARK    2  A    between atoms: O_1  and  C_23 
REMARK    3  A    between atoms: C_7  and  N_3 
REMARK    4  A    between atoms: C_4  and  C_5 
REMARK    5  A    between atoms: C_4  and  C_6 
REMARK    6  A    between atoms: C_4  and  C_8 
REMARK    7  A    between atoms: C_4  and  C_9 
REMARK    8  A    between atoms: C_5  and  C_7 
REMARK    9  A    between atoms: C_6  and  C_10 
ROOT
HETATM    1  C   UNK N   1      27.637  25.064  -5.263  0.00  0.00     0.043 C 
ENDROOT
BRANCH   1   2
HETATM    2  C   UNK N   1      26.291  25.451  -4.593  0.00  0.00     0.057 C 
BRANCH   2   3
HETATM    3  C   UNK N   1      25.733  26.888  -4.813  0.00  0.00     0.219 C 
HETATM    4  C   UNK N   1      24.630  27.040  -5.864  0.00  0.00     0.043 C 
BRANCH   3   5
HETATM    5  N   UNK N   1      25.596  27.737  -3.616  0.00  0.00     0.084 N 
HETATM    6  C   UNK N   1      26.407  27.144  -2.565  0.00  0.00     0.309 C 
HETATM    7  C   UNK N   1      26.123  29.082  -3.828  0.00  0.00     0.309 C 
ENDBRANCH   3   5
ENDBRANCH   2   3
ENDBRANCH   1   2
BRANCH   1   8
HETATM    8  C   UNK N   1      27.402  23.906  -6.312  0.00  0.00     0.149 C 
BRANCH   8   9
HETATM    9  O   UNK N   1      28.131  22.766  -5.996  0.00  0.00    -0.315 OA
BRANCH   9  10
HETATM   10  C   UNK N   1      28.912  22.033  -6.832  0.00  0.00     0.255 C 
HETATM   11  O   UNK N   1      28.726  22.035  -8.045  0.00  0.00    -0.266 OA
HETATM   12  C   UNK N   1      29.957  21.143  -6.260  0.00  0.00     0.126 C 
ENDBRANCH   9  10
ENDBRANCH   8   9
BRANCH   8  13
HETATM   13  C   UNK N   1      25.907  23.579  -6.466  0.00  0.00     0.029 C 
HETATM   14  C   UNK N   1      25.543  23.597  -7.942  0.00  0.00     0.007 C 
ENDBRANCH   8  13
ENDBRANCH   1   8
BRANCH   1  15
HETATM   15  C   UNK N   1      28.532  24.442  -4.176  0.00  0.00    -0.042 A 
HETATM   16  C   UNK N   1      29.934  24.443  -4.243  0.00  0.00     0.008 A 
HETATM   17  C   UNK N   1      30.698  23.809  -3.260  0.00  0.00     0.001 A 
HETATM   18  C   UNK N   1      30.071  23.160  -2.194  0.00  0.00     0.000 A 
HETATM   19  C   UNK N   1      28.678  23.144  -2.111  0.00  0.00     0.001 A 
HETATM   20  C   UNK N   1      27.916  23.772  -3.097  0.00  0.00     0.008 A 
ENDBRANCH   1  15
BRANCH   1  21
HETATM   21  C   UNK N   1      28.124  26.344  -5.995  0.00  0.00    -0.042 A 
HETATM   22  C   UNK N   1      27.812  26.509  -7.363  0.00  0.00     0.008 A 
HETATM   23  C   UNK N   1      28.179  27.657  -8.065  0.00  0.00     0.001 A 
HETATM   24  C   UNK N   1      28.832  28.691  -7.400  0.00  0.00     0.000 A 
HETATM   25  C   UNK N   1      29.134  28.563  -6.043  0.00  0.00     0.001 A 
HETATM   26  C   UNK N   1      28.794  27.394  -5.350  0.00  0.00     0.008 A 
ENDBRANCH   1  21
TORSDOF 9
ENDMDL
MODEL 7
REMARK VINA RESULT:      -5.6     12.069     14.558
REMARK  9 active torsions:
REMARK  status: ('A' for Active; 'I' for Inactive)
REMARK    1  A    between atoms: C_6  and  O_1 
REMARK    2  A    between atoms: O_1  and  C_23 
REMARK    3  A    between atoms: C_7  and  N_3 
REMARK    4  A    between atoms: C_4  and  C_5 
REMARK    5  A    between atoms: C_4  and  C_6 
REMARK    6  A    between atoms: C_4  and  C_8 
REMARK    7  A    between atoms: C_4  and  C_9 
REMARK    8  A    between atoms: C_5  and  C_7 
REMARK    9  A    between atoms: C_6  and  C_10 
ROOT
HETATM    1  C   UNK N   1      27.366  24.185  -6.364  0.00  0.00     0.043 C 
ENDROOT
BRANCH   1   2
HETATM    2  C   UNK N   1      26.252  24.741  -5.438  0.00  0.00     0.057 C 
BRANCH   2   3
HETATM    3  C   UNK N   1      26.191  26.277  -5.183  0.00  0.00     0.219 C 
HETATM    4  C   UNK N   1      24.974  27.016  -5.748  0.00  0.00     0.043 C 
BRANCH   3   5
HETATM    5  N   UNK N   1      26.676  26.752  -3.875  0.00  0.00     0.084 N 
HETATM    6  C   UNK N   1      27.939  27.435  -4.099  0.00  0.00     0.309 C 
HETATM    7  C   UNK N   1      25.779  27.737  -3.276  0.00  0.00     0.309 C 
ENDBRANCH   3   5
ENDBRANCH   2   3
ENDBRANCH   1   2
BRANCH   1   8
HETATM    8  C   UNK N   1      28.623  23.765  -5.502  0.00  0.00     0.149 C 
BRANCH   8   9
HETATM    9  O   UNK N   1      28.368  23.854  -4.139  0.00  0.00    -0.315 OA
BRANCH   9  10
HETATM   10  C   UNK N   1      29.282  23.921  -3.136  0.00  0.00     0.255 C 
HETATM   11  O   UNK N   1      30.191  24.745  -3.154  0.00  0.00    -0.266 OA
HETATM   12  C   UNK N   1      29.232  22.920  -2.038  0.00  0.00     0.126 C 
ENDBRANCH   9  10
ENDBRANCH   8   9
BRANCH   8  13
HETATM   13  C   UNK N   1      29.121  22.360  -5.880  0.00  0.00     0.029 C 
HETATM   14  C   UNK N   1      30.575  22.447  -6.315  0.00  0.00     0.007 C 
ENDBRANCH   8  13
ENDBRANCH   1   8
BRANCH   1  15
HETATM   15  C   UNK N   1      27.858  25.348  -7.245  0.00  0.00    -0.042 A 
HETATM   16  C   UNK N   1      27.126  25.848  -8.334  0.00  0.00     0.008 A 
HETATM   17  C   UNK N   1      27.648  26.863  -9.139  0.00  0.00     0.001 A 
HETATM   18  C   UNK N   1      28.911  27.394  -8.870  0.00  0.00     0.000 A 
HETATM   19  C   UNK N   1      29.656  26.908  -7.795  0.00  0.00     0.001 A 
HETATM   20  C   UNK N   1      29.137  25.889  -6.995  0.00  0.00     0.008 A 
ENDBRANCH   1  15
BRANCH   1  21
HETATM   21  C   UNK N   1      26.756  22.931  -7.047  0.00  0.00    -0.042 A 
HETATM   22  C   UNK N   1      25.494  22.463  -6.616  0.00  0.00     0.008 A 
HETATM   23  C   UNK N   1      24.871  21.373  -7.220  0.00  0.00     0.001 A 
HETATM   24  C   UNK N   1      25.479  20.746  -8.304  0.00  0.00     0.000 A 
HETATM   25  C   UNK N   1      26.717  21.200  -8.765  0.00  0.00     0.001 A 
HETATM   26  C   UNK N   1      27.355  22.275  -8.133  0.00  0.00     0.008 A 
ENDBRANCH   1  21
TORSDOF 9
ENDMDL
MODEL 8
REMARK VINA RESULT:      -5.5     15.015     17.689
REMARK  9 active torsions:
REMARK  status: ('A' for Active; 'I' for Inactive)
REMARK    1  A    between atoms: C_6  and  O_1 
REMARK    2  A    between atoms: O_1  and  C_23 
REMARK    3  A    between atoms: C_7  and  N_3 
REMARK    4  A    between atoms: C_4  and  C_5 
REMARK    5  A    between atoms: C_4  and  C_6 
REMARK    6  A    between atoms: C_4  and  C_8 
REMARK    7  A    between atoms: C_4  and  C_9 
REMARK    8  A    between atoms: C_5  and  C_7 
REMARK    9  A    between atoms: C_6  and  C_10 
ROOT
HETATM    1  C   UNK N   1      34.764   9.713  19.927  0.00  0.00     0.043 C 
ENDROOT
BRANCH   1   2
HETATM    2  C   UNK N   1      33.717   8.901  19.119  0.00  0.00     0.057 C 
BRANCH   2   3
HETATM    3  C   UNK N   1      32.785   7.914  19.883  0.00  0.00     0.219 C 
HETATM    4  C   UNK N   1      31.296   8.271  19.921  0.00  0.00     0.043 C 
BRANCH   3   5
HETATM    5  N   UNK N   1      33.096   6.479  19.760  0.00  0.00     0.084 N 
HETATM    6  C   UNK N   1      33.401   5.982  21.092  0.00  0.00     0.309 C 
HETATM    7  C   UNK N   1      31.952   5.703  19.287  0.00  0.00     0.309 C 
ENDBRANCH   3   5
ENDBRANCH   2   3
ENDBRANCH   1   2
BRANCH   1   8
HETATM    8  C   UNK N   1      36.113   8.896  20.033  0.00  0.00     0.149 C 
BRANCH   8   9
HETATM    9  O   UNK N   1      36.156   7.847  19.123  0.00  0.00    -0.315 OA
BRANCH   9  10
HETATM   10  C   UNK N   1      37.178   7.527  18.287  0.00  0.00     0.255 C 
HETATM   11  O   UNK N   1      38.146   6.882  18.680  0.00  0.00    -0.266 OA
HETATM   12  C   UNK N   1      37.167   8.040  16.892  0.00  0.00     0.126 C 
ENDBRANCH   9  10
ENDBRANCH   8   9
BRANCH   8  13
HETATM   13  C   UNK N   1      37.340   9.811  19.879  0.00  0.00     0.029 C 
HETATM   14  C   UNK N   1      38.195   9.714  21.132  0.00  0.00     0.007 C 
ENDBRANCH   8  13
ENDBRANCH   1   8
BRANCH   1  15
HETATM   15  C   UNK N   1      34.249   9.820  21.374  0.00  0.00    -0.042 A 
HETATM   16  C   UNK N   1      33.183  10.654  21.749  0.00  0.00     0.008 A 
HETATM   17  C   UNK N   1      32.796  10.761  23.087  0.00  0.00     0.001 A 
HETATM   18  C   UNK N   1      33.470  10.037  24.073  0.00  0.00     0.000 A 
HETATM   19  C   UNK N   1      34.534   9.206  23.722  0.00  0.00     0.001 A 
HETATM   20  C   UNK N   1      34.924   9.104  22.386  0.00  0.00     0.008 A 
ENDBRANCH   1  15
BRANCH   1  21
HETATM   21  C   UNK N   1      35.002  11.015  19.116  0.00  0.00    -0.042 A 
HETATM   22  C   UNK N   1      35.036  10.946  17.705  0.00  0.00     0.008 A 
HETATM   23  C   UNK N   1      35.197  12.085  16.919  0.00  0.00     0.001 A 
HETATM   24  C   UNK N   1      35.287  13.334  17.527  0.00  0.00     0.000 A 
HETATM   25  C   UNK N   1      35.236  13.435  18.919  0.00  0.00     0.001 A 
HETATM   26  C   UNK N   1      35.108  12.284  19.706  0.00  0.00     0.008 A 
ENDBRANCH   1  21
TORSDOF 9
ENDMDL
MODEL 9
REMARK VINA RESULT:      -5.5     13.152     15.754
REMARK  9 active torsions:
REMARK  status: ('A' for Active; 'I' for Inactive)
REMARK    1  A    between atoms: C_6  and  O_1 
REMARK    2  A    between atoms: O_1  and  C_23 
REMARK    3  A    between atoms: C_7  and  N_3 
REMARK    4  A    between atoms: C_4  and  C_5 
REMARK    5  A    between atoms: C_4  and  C_6 
REMARK    6  A    between atoms: C_4  and  C_8 
REMARK    7  A    between atoms: C_4  and  C_9 
REMARK    8  A    between atoms: C_5  and  C_7 
REMARK    9  A    between atoms: C_6  and  C_10 
ROOT
HETATM    1  C   UNK N   1      27.612  25.109  -7.125  0.00  0.00     0.043 C 
ENDROOT
BRANCH   1   2
HETATM    2  C   UNK N   1      28.880  24.732  -6.314  0.00  0.00     0.057 C 
BRANCH   2   3
HETATM    3  C   UNK N   1      28.751  23.678  -5.175  0.00  0.00     0.219 C 
HETATM    4  C   UNK N   1      29.506  22.359  -5.374  0.00  0.00     0.043 C 
BRANCH   3   5
HETATM    5  N   UNK N   1      28.720  24.194  -3.794  0.00  0.00     0.084 N 
HETATM    6  C   UNK N   1      27.346  24.110  -3.328  0.00  0.00     0.309 C 
HETATM    7  C   UNK N   1      29.513  23.375  -2.880  0.00  0.00     0.309 C 
ENDBRANCH   3   5
ENDBRANCH   2   3
ENDBRANCH   1   2
BRANCH   1   8
HETATM    8  C   UNK N   1      28.028  25.825  -8.472  0.00  0.00     0.149 C 
BRANCH   8   9
HETATM    9  O   UNK N   1      26.968  26.525  -9.034  0.00  0.00    -0.315 OA
BRANCH   9  10
HETATM   10  C   UNK N   1      26.326  26.245 -10.198  0.00  0.00     0.255 C 
HETATM   11  O   UNK N   1      26.704  26.719 -11.266  0.00  0.00    -0.266 OA
HETATM   12  C   UNK N   1      25.090  25.420 -10.169  0.00  0.00     0.126 C 
ENDBRANCH   9  10
ENDBRANCH   8   9
BRANCH   8  13
HETATM   13  C   UNK N   1      29.248  26.740  -8.270  0.00  0.00     0.029 C 
HETATM   14  C   UNK N   1      28.885  28.155  -8.691  0.00  0.00     0.007 C 
ENDBRANCH   8  13
ENDBRANCH   1   8
BRANCH   1  15
HETATM   15  C   UNK N   1      26.852  26.181  -6.322  0.00  0.00    -0.042 A 
HETATM   16  C   UNK N   1      27.489  27.095  -5.469  0.00  0.00     0.008 A 
HETATM   17  C   UNK N   1      26.746  28.006  -4.715  0.00  0.00     0.001 A 
HETATM   18  C   UNK N   1      25.352  28.016  -4.801  0.00  0.00     0.000 A 
HETATM   19  C   UNK N   1      24.700  27.113  -5.640  0.00  0.00     0.001 A 
HETATM   20  C   UNK N   1      25.443  26.199  -6.389  0.00  0.00     0.008 A 
ENDBRANCH   1  15
BRANCH   1  21
HETATM   21  C   UNK N   1      26.903  23.766  -7.444  0.00  0.00    -0.042 A 
HETATM   22  C   UNK N   1      27.395  22.966  -8.500  0.00  0.00     0.008 A 
HETATM   23  C   UNK N   1      26.833  21.727  -8.805  0.00  0.00     0.001 A 
HETATM   24  C   UNK N   1      25.787  21.236  -8.029  0.00  0.00     0.000 A 
HETATM   25  C   UNK N   1      25.293  21.997  -6.967  0.00  0.00     0.001 A 
HETATM   26  C   UNK N   1      25.839  23.255  -6.685  0.00  0.00     0.008 A 
ENDBRANCH   1  21
TORSDOF 9
ENDMDL
