MODEL 1
REMARK VINA RESULT:      -4.9      0.000      0.000
REMARK  3 active torsions:
REMARK  status: ('A' for Active; 'I' for Inactive)
REMARK    1  A    between atoms: N_2  and  C_3 
REMARK    2  A    between atoms: C_3  and  C_4 
REMARK    3  A    between atoms: C_4  and  C_7 
ROOT
HETATM    1 Cl   UNK N   1      35.532  10.594  20.715  0.00  0.00    -0.084 Cl
HETATM    2  C   UNK N   1      35.122  12.550  16.626  0.00  0.00    -0.056 A 
HETATM    3  C   UNK N   1      35.237  11.158  16.733  0.00  0.00     0.009 A 
HETATM    4  C   UNK N   1      35.140  13.339  17.782  0.00  0.00     0.009 A 
HETATM    5  C   UNK N   1      35.349  10.557  17.990  0.00  0.00     0.024 A 
HETATM    6  C   UNK N   1      35.259  12.737  19.040  0.00  0.00     0.024 A 
HETATM    7  C   UNK N   1      35.365  11.346  19.142  0.00  0.00     0.034 A 
ENDROOT
BRANCH   2   8
HETATM    8  C   UNK N   1      35.065  13.213  15.279  0.00  0.00     0.068 C 
BRANCH   8   9
HETATM    9  C   UNK N   1      36.387  13.458  14.532  0.00  0.00     0.019 C 
HETATM   10  C   UNK N   1      36.082  14.219  13.260  0.00  0.00     0.037 C 
HETATM   11  C   UNK N   1      37.155  12.200  14.156  0.00  0.00     0.037 C 
BRANCH   9  12
HETATM   12  N   UNK N   1      37.235  14.286  15.370  0.00  0.00    -0.422 N 
HETATM   13  H   UNK N   1      38.150  14.726  15.270  0.00  0.00     0.150 HD
HETATM   14  H   UNK N   1      36.815  14.472  16.280  0.00  0.00     0.150 HD
ENDBRANCH   9  12
ENDBRANCH   8   9
ENDBRANCH   2   8
TORSDOF 3
ENDMDL
MODEL 2
REMARK VINA RESULT:      -4.9     26.627     27.849
REMARK  3 active torsions:
REMARK  status: ('A' for Active; 'I' for Inactive)
REMARK    1  A    between atoms: N_2  and  C_3 
REMARK    2  A    between atoms: C_3  and  C_4 
REMARK    3  A    between atoms: C_4  and  C_7 
ROOT
HETATM    1 Cl   UNK N   1      26.418  22.938  -6.640  0.00  0.00    -0.084 Cl
HETATM    2  C   UNK N   1      25.806  26.983  -4.646  0.00  0.00    -0.056 A 
HETATM    3  C   UNK N   1      26.393  25.929  -3.934  0.00  0.00     0.009 A 
HETATM    4  C   UNK N   1      25.402  26.786  -5.971  0.00  0.00     0.009 A 
HETATM    5  C   UNK N   1      26.593  24.690  -4.552  0.00  0.00     0.024 A 
HETATM    6  C   UNK N   1      25.597  25.544  -6.587  0.00  0.00     0.024 A 
HETATM    7  C   UNK N   1      26.191  24.497  -5.876  0.00  0.00     0.034 A 
ENDROOT
BRANCH   2   8
HETATM    8  C   UNK N   1      25.528  28.298  -3.975  0.00  0.00     0.068 C 
BRANCH   8   9
HETATM    9  C   UNK N   1      26.673  29.320  -3.870  0.00  0.00     0.019 C 
HETATM   10  C   UNK N   1      27.391  29.371  -5.201  0.00  0.00     0.037 C 
HETATM   11  C   UNK N   1      27.701  29.022  -2.789  0.00  0.00     0.037 C 
BRANCH   9  12
HETATM   12  N   UNK N   1      26.093  30.625  -3.610  0.00  0.00    -0.422 N 
HETATM   13  H   UNK N   1      26.448  31.580  -3.548  0.00  0.00     0.150 HD
HETATM   14  H   UNK N   1      25.088  30.576  -3.449  0.00  0.00     0.150 HD
ENDBRANCH   9  12
ENDBRANCH   8   9
ENDBRANCH   2   8
TORSDOF 3
ENDMDL
MODEL 3
REMARK VINA RESULT:      -4.8     27.056     28.015
REMARK  3 active torsions:
REMARK  status: ('A' for Active; 'I' for Inactive)
REMARK    1  A    between atoms: N_2  and  C_3 
REMARK    2  A    between atoms: C_3  and  C_4 
REMARK    3  A    between atoms: C_4  and  C_7 
ROOT
HETATM    1 Cl   UNK N   1      26.464  22.154  -7.637  0.00  0.00    -0.084 Cl
HETATM    2  C   UNK N   1      25.496  26.177  -5.741  0.00  0.00    -0.056 A 
HETATM    3  C   UNK N   1      25.765  26.092  -7.114  0.00  0.00     0.009 A 
HETATM    4  C   UNK N   1      25.532  25.021  -4.954  0.00  0.00     0.009 A 
HETATM    5  C   UNK N   1      26.049  24.854  -7.698  0.00  0.00     0.024 A 
HETATM    6  C   UNK N   1      25.823  23.783  -5.538  0.00  0.00     0.024 A 
HETATM    7  C   UNK N   1      26.082  23.701  -6.909  0.00  0.00     0.034 A 
ENDROOT
BRANCH   2   8
HETATM    8  C   UNK N   1      25.253  27.509  -5.091  0.00  0.00     0.068 C 
BRANCH   8   9
HETATM    9  C   UNK N   1      26.288  28.024  -4.076  0.00  0.00     0.019 C 
HETATM   10  C   UNK N   1      26.324  29.535  -4.156  0.00  0.00     0.037 C 
HETATM   11  C   UNK N   1      27.703  27.506  -4.284  0.00  0.00     0.037 C 
BRANCH   9  12
HETATM   12  N   UNK N   1      25.847  27.645  -2.746  0.00  0.00    -0.422 N 
HETATM   13  H   UNK N   1      25.924  26.811  -2.164  0.00  0.00     0.150 HD
HETATM   14  H   UNK N   1      25.335  28.394  -2.280  0.00  0.00     0.150 HD
ENDBRANCH   9  12
ENDBRANCH   8   9
ENDBRANCH   2   8
TORSDOF 3
ENDMDL
MODEL 4
REMARK VINA RESULT:      -4.6     15.021     15.844
REMARK  3 active torsions:
REMARK  status: ('A' for Active; 'I' for Inactive)
REMARK    1  A    between atoms: N_2  and  C_3 
REMARK    2  A    between atoms: C_3  and  C_4 
REMARK    3  A    between atoms: C_4  and  C_7 
ROOT
HETATM    1 Cl   UNK N   1      23.313  11.785  13.221  0.00  0.00    -0.084 Cl
HETATM    2  C   UNK N   1      21.801  12.906   9.078  0.00  0.00    -0.056 A 
HETATM    3  C   UNK N   1      23.177  12.801   9.321  0.00  0.00     0.009 A 
HETATM    4  C   UNK N   1      20.893  12.671  10.116  0.00  0.00     0.009 A 
HETATM    5  C   UNK N   1      23.640  12.443  10.591  0.00  0.00     0.024 A 
HETATM    6  C   UNK N   1      21.357  12.319  11.389  0.00  0.00     0.024 A 
HETATM    7  C   UNK N   1      22.731  12.207  11.625  0.00  0.00     0.034 A 
ENDROOT
BRANCH   2   8
HETATM    8  C   UNK N   1      21.293  13.352   7.736  0.00  0.00     0.068 C 
BRANCH   8   9
HETATM    9  C   UNK N   1      21.137  14.861   7.480  0.00  0.00     0.019 C 
HETATM   10  C   UNK N   1      22.427  15.378   6.880  0.00  0.00     0.037 C 
HETATM   11  C   UNK N   1      20.825  15.692   8.715  0.00  0.00     0.037 C 
BRANCH   9  12
HETATM   12  N   UNK N   1      20.072  15.050   6.513  0.00  0.00    -0.422 N 
HETATM   13  H   UNK N   1      19.200  15.579   6.485  0.00  0.00     0.150 HD
HETATM   14  H   UNK N   1      20.233  14.526   5.653  0.00  0.00     0.150 HD
ENDBRANCH   9  12
ENDBRANCH   8   9
ENDBRANCH   2   8
TORSDOF 3
ENDMDL
MODEL 5
REMARK VINA RESULT:      -4.5     11.655     13.600
REMARK  3 active torsions:
REMARK  status: ('A' for Active; 'I' for Inactive)
REMARK    1  A    between atoms: N_2  and  C_3 
REMARK    2  A    between atoms: C_3  and  C_4 
REMARK    3  A    between atoms: C_4  and  C_7 
ROOT
HETATM    1 Cl   UNK N   1      33.123  17.328   8.744  0.00  0.00    -0.084 Cl
HETATM    2  C   UNK N   1      28.965  17.922   6.992  0.00  0.00    -0.056 A 
HETATM    3  C   UNK N   1      29.245  18.341   8.299  0.00  0.00     0.009 A 
HETATM    4  C   UNK N   1      29.968  17.314   6.228  0.00  0.00     0.009 A 
HETATM    5  C   UNK N   1      30.526  18.171   8.832  0.00  0.00     0.024 A 
HETATM    6  C   UNK N   1      31.249  17.137   6.764  0.00  0.00     0.024 A 
HETATM    7  C   UNK N   1      31.526  17.565   8.067  0.00  0.00     0.034 A 
ENDROOT
BRANCH   2   8
HETATM    8  C   UNK N   1      27.577  18.041   6.431  0.00  0.00     0.068 C 
BRANCH   8   9
HETATM    9  C   UNK N   1      27.178  19.360   5.746  0.00  0.00     0.019 C 
HETATM   10  C   UNK N   1      27.755  19.365   4.346  0.00  0.00     0.037 C 
HETATM   11  C   UNK N   1      27.651  20.620   6.455  0.00  0.00     0.037 C 
BRANCH   9  12
HETATM   12  N   UNK N   1      25.731  19.400   5.646  0.00  0.00    -0.422 N 
HETATM   13  H   UNK N   1      25.022  20.134   5.633  0.00  0.00     0.150 HD
HETATM   14  H   UNK N   1      25.323  18.469   5.572  0.00  0.00     0.150 HD
ENDBRANCH   9  12
ENDBRANCH   8   9
ENDBRANCH   2   8
TORSDOF 3
ENDMDL
MODEL 6
REMARK VINA RESULT:      -4.5     14.114     14.887
REMARK  3 active torsions:
REMARK  status: ('A' for Active; 'I' for Inactive)
REMARK    1  A    between atoms: N_2  and  C_3 
REMARK    2  A    between atoms: C_3  and  C_4 
REMARK    3  A    between atoms: C_4  and  C_7 
ROOT
HETATM    1 Cl   UNK N   1      23.313  11.919  13.529  0.00  0.00    -0.084 Cl
HETATM    2  C   UNK N   1      23.261  12.401   9.003  0.00  0.00    -0.056 A 
HETATM    3  C   UNK N   1      24.480  12.298   9.687  0.00  0.00     0.009 A 
HETATM    4  C   UNK N   1      22.059  12.362   9.719  0.00  0.00     0.009 A 
HETATM    5  C   UNK N   1      24.494  12.136  11.076  0.00  0.00     0.024 A 
HETATM    6  C   UNK N   1      22.074  12.206  11.110  0.00  0.00     0.024 A 
HETATM    7  C   UNK N   1      23.293  12.095  11.787  0.00  0.00     0.034 A 
ENDROOT
BRANCH   2   8
HETATM    8  C   UNK N   1      23.232  12.638   7.521  0.00  0.00     0.068 C 
BRANCH   8   9
HETATM    9  C   UNK N   1      22.991  11.435   6.594  0.00  0.00     0.019 C 
HETATM   10  C   UNK N   1      21.503  11.313   6.347  0.00  0.00     0.037 C 
HETATM   11  C   UNK N   1      23.492  10.102   7.130  0.00  0.00     0.037 C 
BRANCH   9  12
HETATM   12  N   UNK N   1      23.647  11.700   5.326  0.00  0.00    -0.422 N 
HETATM   13  H   UNK N   1      23.704  11.227   4.424  0.00  0.00     0.150 HD
HETATM   14  H   UNK N   1      24.181  12.568   5.342  0.00  0.00     0.150 HD
ENDBRANCH   9  12
ENDBRANCH   8   9
ENDBRANCH   2   8
TORSDOF 3
ENDMDL
MODEL 7
REMARK VINA RESULT:      -4.4     26.757     27.882
REMARK  3 active torsions:
REMARK  status: ('A' for Active; 'I' for Inactive)
REMARK    1  A    between atoms: N_2  and  C_3 
REMARK    2  A    between atoms: C_3  and  C_4 
REMARK    3  A    between atoms: C_4  and  C_7 
ROOT
HETATM    1 Cl   UNK N   1      25.870  23.527  -7.182  0.00  0.00    -0.084 Cl
HETATM    2  C   UNK N   1      25.888  27.135  -4.407  0.00  0.00    -0.056 A 
HETATM    3  C   UNK N   1      25.478  27.273  -5.740  0.00  0.00     0.009 A 
HETATM    4  C   UNK N   1      26.299  25.884  -3.934  0.00  0.00     0.009 A 
HETATM    5  C   UNK N   1      25.460  26.162  -6.588  0.00  0.00     0.024 A 
HETATM    6  C   UNK N   1      26.287  24.772  -4.785  0.00  0.00     0.024 A 
HETATM    7  C   UNK N   1      25.868  24.914  -6.112  0.00  0.00     0.034 A 
ENDROOT
BRANCH   2   8
HETATM    8  C   UNK N   1      25.973  28.332  -3.504  0.00  0.00     0.068 C 
BRANCH   8   9
HETATM    9  C   UNK N   1      27.196  29.257  -3.634  0.00  0.00     0.019 C 
HETATM   10  C   UNK N   1      27.727  29.542  -2.246  0.00  0.00     0.037 C 
HETATM   11  C   UNK N   1      26.923  30.588  -4.318  0.00  0.00     0.037 C 
BRANCH   9  12
HETATM   12  N   UNK N   1      28.220  28.552  -4.382  0.00  0.00    -0.422 N 
HETATM   13  H   UNK N   1      28.472  28.466  -5.367  0.00  0.00     0.150 HD
HETATM   14  H   UNK N   1      28.838  28.012  -3.778  0.00  0.00     0.150 HD
ENDBRANCH   9  12
ENDBRANCH   8   9
ENDBRANCH   2   8
TORSDOF 3
ENDMDL
MODEL 8
REMARK VINA RESULT:      -4.4     11.287     12.750
REMARK  3 active torsions:
REMARK  status: ('A' for Active; 'I' for Inactive)
REMARK    1  A    between atoms: N_2  and  C_3 
REMARK    2  A    between atoms: C_3  and  C_4 
REMARK    3  A    between atoms: C_4  and  C_7 
ROOT
HETATM    1 Cl   UNK N   1      29.660  18.696   9.965  0.00  0.00    -0.084 Cl
HETATM    2  C   UNK N   1      30.864  16.528   6.148  0.00  0.00    -0.056 A 
HETATM    3  C   UNK N   1      29.618  17.162   6.235  0.00  0.00     0.009 A 
HETATM    4  C   UNK N   1      31.736  16.558   7.242  0.00  0.00     0.009 A 
HETATM    5  C   UNK N   1      29.254  17.839   7.403  0.00  0.00     0.024 A 
HETATM    6  C   UNK N   1      31.369  17.231   8.414  0.00  0.00     0.024 A 
HETATM    7  C   UNK N   1      30.127  17.870   8.493  0.00  0.00     0.034 A 
ENDROOT
BRANCH   2   8
HETATM    8  C   UNK N   1      31.240  15.744   4.923  0.00  0.00     0.068 C 
BRANCH   8   9
HETATM    9  C   UNK N   1      31.895  16.493   3.750  0.00  0.00     0.019 C 
HETATM   10  C   UNK N   1      32.847  15.547   3.051  0.00  0.00     0.037 C 
HETATM   11  C   UNK N   1      32.672  17.741   4.140  0.00  0.00     0.037 C 
BRANCH   9  12
HETATM   12  N   UNK N   1      30.852  16.870   2.814  0.00  0.00    -0.422 N 
HETATM   13  H   UNK N   1      30.825  17.199   1.849  0.00  0.00     0.150 HD
HETATM   14  H   UNK N   1      29.921  16.787   3.219  0.00  0.00     0.150 HD
ENDBRANCH   9  12
ENDBRANCH   8   9
ENDBRANCH   2   8
TORSDOF 3
ENDMDL
MODEL 9
REMARK VINA RESULT:      -4.4     26.227     27.168
REMARK  3 active torsions:
REMARK  status: ('A' for Active; 'I' for Inactive)
REMARK    1  A    between atoms: N_2  and  C_3 
REMARK    2  A    between atoms: C_3  and  C_4 
REMARK    3  A    between atoms: C_4  and  C_7 
ROOT
HETATM    1 Cl   UNK N   1      28.290  21.400  -7.818  0.00  0.00    -0.084 Cl
HETATM    2  C   UNK N   1      26.749  24.593  -4.963  0.00  0.00    -0.056 A 
HETATM    3  C   UNK N   1      28.113  24.270  -4.990  0.00  0.00     0.009 A 
HETATM    4  C   UNK N   1      25.861  23.925  -5.814  0.00  0.00     0.009 A 
HETATM    5  C   UNK N   1      28.587  23.299  -5.876  0.00  0.00     0.024 A 
HETATM    6  C   UNK N   1      26.336  22.948  -6.697  0.00  0.00     0.024 A 
HETATM    7  C   UNK N   1      27.698  22.635  -6.726  0.00  0.00     0.034 A 
ENDROOT
BRANCH   2   8
HETATM    8  C   UNK N   1      26.217  25.587  -3.971  0.00  0.00     0.068 C 
BRANCH   8   9
HETATM    9  C   UNK N   1      26.046  27.048  -4.424  0.00  0.00     0.019 C 
HETATM   10  C   UNK N   1      24.895  27.113  -5.404  0.00  0.00     0.037 C 
HETATM   11  C   UNK N   1      27.269  27.660  -5.091  0.00  0.00     0.037 C 
BRANCH   9  12
HETATM   12  N   UNK N   1      25.705  27.846  -3.260  0.00  0.00    -0.422 N 
HETATM   13  H   UNK N   1      26.202  28.500  -2.655  0.00  0.00     0.150 HD
HETATM   14  H   UNK N   1      24.733  27.723  -2.979  0.00  0.00     0.150 HD
ENDBRANCH   9  12
ENDBRANCH   8   9
ENDBRANCH   2   8
TORSDOF 3
ENDMDL
