MODEL 1
REMARK VINA RESULT:      -6.8      0.000      0.000
REMARK  6 active torsions:
REMARK  status: ('A' for Active; 'I' for Inactive)
REMARK    1  A    between atoms: N_2  and  C_9 
REMARK    2  A    between atoms: N_3  and  C_4 
REMARK    3  A    between atoms: N_3  and  C_12 
REMARK       I    between atoms: N_3  and  C_13 
REMARK    4  A    between atoms: C_9  and  C_10 
REMARK    5  A    between atoms: C_10  and  C_14 
REMARK    6  A    between atoms: C_13  and  C_15 
ROOT
HETATM    1  N   UNK N   1      28.568  15.715   4.386  0.00  0.00     0.093 N 
HETATM    2  C   UNK N   1      27.292  18.080   4.978  0.00  0.00     0.096 C 
HETATM    3  C   UNK N   1      27.453  17.107   6.152  0.00  0.00     0.056 C 
HETATM    4  C   UNK N   1      26.802  17.408   3.709  0.00  0.00     0.056 C 
HETATM    5  C   UNK N   1      27.808  15.696   5.649  0.00  0.00     0.275 C 
HETATM    6  C   UNK N   1      27.783  16.309   3.280  0.00  0.00     0.275 C 
ENDROOT
BRANCH   2   7
HETATM    7  N   UNK N   1      26.574  19.329   5.237  0.00  0.00    -0.313 N 
HETATM    8  C   UNK N   1      27.104  20.271   6.102  0.00  0.00     0.224 C 
HETATM    9  O   UNK N   1      28.180  20.070   6.646  0.00  0.00    -0.273 OA
BRANCH   7  10
HETATM   10  C   UNK N   1      25.261  19.437   4.642  0.00  0.00     0.037 A 
HETATM   11  C   UNK N   1      24.197  18.591   5.008  0.00  0.00     0.030 A 
HETATM   12  C   UNK N   1      22.967  18.655   4.348  0.00  0.00     0.002 A 
HETATM   13  C   UNK N   1      22.775  19.568   3.311  0.00  0.00     0.000 A 
HETATM   14  C   UNK N   1      23.814  20.420   2.934  0.00  0.00     0.002 A 
HETATM   15  C   UNK N   1      25.046  20.347   3.585  0.00  0.00     0.030 A 
ENDBRANCH   7  10
BRANCH   8  16
HETATM   16  C   UNK N   1      26.412  21.570   6.412  0.00  0.00     0.099 C 
HETATM   17  C   UNK N   1      25.913  21.587   7.845  0.00  0.00     0.014 C 
ENDBRANCH   8  16
ENDBRANCH   2   7
BRANCH   1  18
HETATM   18  C   UNK N   1      29.880  16.370   4.565  0.00  0.00     0.223 C 
HETATM   19  C   UNK N   1      30.640  16.531   3.252  0.00  0.00     0.043 C 
BRANCH  18  20
HETATM   20  C   UNK N   1      30.759  15.606   5.568  0.00  0.00     0.074 C 
BRANCH  20  21
HETATM   21  C   UNK N   1      31.602  16.499   6.431  0.00  0.00    -0.056 A 
HETATM   22  C   UNK N   1      32.924  16.803   6.078  0.00  0.00     0.007 A 
HETATM   23  C   UNK N   1      33.700  17.625   6.901  0.00  0.00     0.001 A 
HETATM   24  C   UNK N   1      33.154  18.152   8.075  0.00  0.00     0.000 A 
HETATM   25  C   UNK N   1      31.834  17.856   8.427  0.00  0.00     0.001 A 
HETATM   26  C   UNK N   1      31.060  17.029   7.607  0.00  0.00     0.007 A 
ENDBRANCH  20  21
ENDBRANCH  18  20
ENDBRANCH   1  18
TORSDOF 6
ENDMDL
MODEL 2
REMARK VINA RESULT:      -6.7     11.664     14.838
REMARK  6 active torsions:
REMARK  status: ('A' for Active; 'I' for Inactive)
REMARK    1  A    between atoms: N_2  and  C_9 
REMARK    2  A    between atoms: N_3  and  C_4 
REMARK    3  A    between atoms: N_3  and  C_12 
REMARK       I    between atoms: N_3  and  C_13 
REMARK    4  A    between atoms: C_9  and  C_10 
REMARK    5  A    between atoms: C_10  and  C_14 
REMARK    6  A    between atoms: C_13  and  C_15 
ROOT
HETATM    1  N   UNK N   1      25.869  24.438  -7.537  0.00  0.00     0.093 N 
HETATM    2  C   UNK N   1      28.057  22.882  -6.936  0.00  0.00     0.096 C 
HETATM    3  C   UNK N   1      28.341  24.107  -7.815  0.00  0.00     0.056 C 
HETATM    4  C   UNK N   1      26.838  22.098  -7.383  0.00  0.00     0.056 C 
HETATM    5  C   UNK N   1      27.037  24.671  -8.406  0.00  0.00     0.275 C 
HETATM    6  C   UNK N   1      25.594  22.995  -7.359  0.00  0.00     0.275 C 
ENDROOT
BRANCH   2   7
HETATM    7  N   UNK N   1      29.185  21.999  -6.635  0.00  0.00    -0.313 N 
HETATM    8  C   UNK N   1      29.937  22.196  -5.489  0.00  0.00     0.224 C 
HETATM    9  O   UNK N   1      29.658  23.101  -4.717  0.00  0.00    -0.273 OA
BRANCH   7  10
HETATM   10  C   UNK N   1      29.514  21.027  -7.652  0.00  0.00     0.037 A 
HETATM   11  C   UNK N   1      29.234  19.656  -7.501  0.00  0.00     0.030 A 
HETATM   12  C   UNK N   1      29.649  18.726  -8.458  0.00  0.00     0.002 A 
HETATM   13  C   UNK N   1      30.349  19.150  -9.588  0.00  0.00     0.000 A 
HETATM   14  C   UNK N   1      30.634  20.504  -9.762  0.00  0.00     0.002 A 
HETATM   15  C   UNK N   1      30.230  21.431  -8.799  0.00  0.00     0.030 A 
ENDBRANCH   7  10
BRANCH   8  16
HETATM   16  C   UNK N   1      31.109  21.324  -5.127  0.00  0.00     0.099 C 
HETATM   17  C   UNK N   1      30.982  20.814  -3.703  0.00  0.00     0.014 C 
ENDBRANCH   8  16
ENDBRANCH   2   7
BRANCH   1  18
HETATM   18  C   UNK N   1      26.014  25.150  -6.251  0.00  0.00     0.223 C 
HETATM   19  C   UNK N   1      25.577  24.305  -5.058  0.00  0.00     0.043 C 
BRANCH  18  20
HETATM   20  C   UNK N   1      25.229  26.472  -6.248  0.00  0.00     0.074 C 
BRANCH  20  21
HETATM   21  C   UNK N   1      25.997  27.627  -5.672  0.00  0.00    -0.056 A 
HETATM   22  C   UNK N   1      25.614  28.214  -4.459  0.00  0.00     0.007 A 
HETATM   23  C   UNK N   1      26.332  29.298  -3.944  0.00  0.00     0.001 A 
HETATM   24  C   UNK N   1      27.441  29.791  -4.637  0.00  0.00     0.000 A 
HETATM   25  C   UNK N   1      27.831  29.203  -5.844  0.00  0.00     0.001 A 
HETATM   26  C   UNK N   1      27.108  28.124  -6.361  0.00  0.00     0.007 A 
ENDBRANCH  20  21
ENDBRANCH  18  20
ENDBRANCH   1  18
TORSDOF 6
ENDMDL
MODEL 3
REMARK VINA RESULT:      -6.7      2.281      7.614
REMARK  6 active torsions:
REMARK  status: ('A' for Active; 'I' for Inactive)
REMARK    1  A    between atoms: N_2  and  C_9 
REMARK    2  A    between atoms: N_3  and  C_4 
REMARK    3  A    between atoms: N_3  and  C_12 
REMARK       I    between atoms: N_3  and  C_13 
REMARK    4  A    between atoms: C_9  and  C_10 
REMARK    5  A    between atoms: C_10  and  C_14 
REMARK    6  A    between atoms: C_13  and  C_15 
ROOT
HETATM    1  N   UNK N   1      24.032  15.170   4.907  0.00  0.00     0.093 N 
HETATM    2  C   UNK N   1      25.870  17.202   5.151  0.00  0.00     0.096 C 
HETATM    3  C   UNK N   1      25.512  16.809   3.713  0.00  0.00     0.056 C 
HETATM    4  C   UNK N   1      26.139  16.008   6.047  0.00  0.00     0.056 C 
HETATM    5  C   UNK N   1      24.803  15.443   3.680  0.00  0.00     0.275 C 
HETATM    6  C   UNK N   1      24.904  15.099   6.101  0.00  0.00     0.275 C 
ENDROOT
BRANCH   2   7
HETATM    7  N   UNK N   1      26.883  18.245   5.326  0.00  0.00    -0.313 N 
HETATM    8  C   UNK N   1      26.547  19.578   5.155  0.00  0.00     0.224 C 
HETATM    9  O   UNK N   1      25.402  19.892   4.866  0.00  0.00    -0.273 OA
BRANCH   7  10
HETATM   10  C   UNK N   1      28.232  17.782   5.557  0.00  0.00     0.037 A 
HETATM   11  C   UNK N   1      28.790  17.703   6.846  0.00  0.00     0.030 A 
HETATM   12  C   UNK N   1      30.128  17.344   7.031  0.00  0.00     0.002 A 
HETATM   13  C   UNK N   1      30.932  17.050   5.930  0.00  0.00     0.000 A 
HETATM   14  C   UNK N   1      30.400  17.116   4.642  0.00  0.00     0.002 A 
HETATM   15  C   UNK N   1      29.067  17.489   4.458  0.00  0.00     0.030 A 
ENDBRANCH   7  10
BRANCH   8  16
HETATM   16  C   UNK N   1      27.543  20.694   5.318  0.00  0.00     0.099 C 
HETATM   17  C   UNK N   1      27.150  21.604   6.467  0.00  0.00     0.014 C 
ENDBRANCH   8  16
ENDBRANCH   2   7
BRANCH   1  18
HETATM   18  C   UNK N   1      22.929  16.139   5.067  0.00  0.00     0.223 C 
HETATM   19  C   UNK N   1      22.182  15.966   6.386  0.00  0.00     0.043 C 
BRANCH  18  20
HETATM   20  C   UNK N   1      21.927  16.050   3.904  0.00  0.00     0.074 C 
BRANCH  20  21
HETATM   21  C   UNK N   1      21.334  17.374   3.519  0.00  0.00    -0.056 A 
HETATM   22  C   UNK N   1      20.001  17.471   3.095  0.00  0.00     0.007 A 
HETATM   23  C   UNK N   1      19.469  18.710   2.727  0.00  0.00     0.001 A 
HETATM   24  C   UNK N   1      20.264  19.857   2.789  0.00  0.00     0.000 A 
HETATM   25  C   UNK N   1      21.592  19.766   3.218  0.00  0.00     0.001 A 
HETATM   26  C   UNK N   1      22.126  18.526   3.580  0.00  0.00     0.007 A 
ENDBRANCH  20  21
ENDBRANCH  18  20
ENDBRANCH   1  18
TORSDOF 6
ENDMDL
MODEL 4
REMARK VINA RESULT:      -6.7     11.465     14.484
REMARK  6 active torsions:
REMARK  status: ('A' for Active; 'I' for Inactive)
REMARK    1  A    between atoms: N_2  and  C_9 
REMARK    2  A    between atoms: N_3  and  C_4 
REMARK    3  A    between atoms: N_3  and  C_12 
REMARK       I    between atoms: N_3  and  C_13 
REMARK    4  A    between atoms: C_9  and  C_10 
REMARK    5  A    between atoms: C_10  and  C_14 
REMARK    6  A    between atoms: C_13  and  C_15 
ROOT
HETATM    1  N   UNK N   1      30.761  28.241  -5.687  0.00  0.00     0.093 N 
HETATM    2  C   UNK N   1      29.831  25.805  -4.807  0.00  0.00     0.096 C 
HETATM    3  C   UNK N   1      29.421  27.013  -3.956  0.00  0.00     0.056 C 
HETATM    4  C   UNK N   1      31.301  25.813  -5.184  0.00  0.00     0.056 C 
HETATM    5  C   UNK N   1      30.290  28.238  -4.290  0.00  0.00     0.275 C 
HETATM    6  C   UNK N   1      31.638  27.084  -5.974  0.00  0.00     0.275 C 
ENDROOT
BRANCH   2   7
HETATM    7  N   UNK N   1      29.400  24.484  -4.346  0.00  0.00    -0.313 N 
HETATM    8  C   UNK N   1      30.061  23.862  -3.300  0.00  0.00     0.224 C 
HETATM    9  O   UNK N   1      31.001  24.416  -2.750  0.00  0.00    -0.273 OA
BRANCH   7  10
HETATM   10  C   UNK N   1      28.356  23.855  -5.122  0.00  0.00     0.037 A 
HETATM   11  C   UNK N   1      28.629  23.103  -6.280  0.00  0.00     0.030 A 
HETATM   12  C   UNK N   1      27.593  22.587  -7.063  0.00  0.00     0.002 A 
HETATM   13  C   UNK N   1      26.264  22.809  -6.702  0.00  0.00     0.000 A 
HETATM   14  C   UNK N   1      25.969  23.548  -5.556  0.00  0.00     0.002 A 
HETATM   15  C   UNK N   1      27.004  24.074  -4.781  0.00  0.00     0.030 A 
ENDBRANCH   7  10
BRANCH   8  16
HETATM   16  C   UNK N   1      29.668  22.504  -2.784  0.00  0.00     0.099 C 
HETATM   17  C   UNK N   1      30.515  21.419  -3.424  0.00  0.00     0.014 C 
ENDBRANCH   8  16
ENDBRANCH   2   7
BRANCH   1  18
HETATM   18  C   UNK N   1      29.627  28.340  -6.630  0.00  0.00     0.223 C 
HETATM   19  C   UNK N   1      30.041  28.894  -7.990  0.00  0.00     0.043 C 
BRANCH  18  20
HETATM   20  C   UNK N   1      28.492  29.205  -6.056  0.00  0.00     0.074 C 
BRANCH  20  21
HETATM   21  C   UNK N   1      27.198  28.463  -5.889  0.00  0.00    -0.056 A 
HETATM   22  C   UNK N   1      26.382  28.681  -4.771  0.00  0.00     0.007 A 
HETATM   23  C   UNK N   1      25.186  27.972  -4.624  0.00  0.00     0.001 A 
HETATM   24  C   UNK N   1      24.798  27.049  -5.599  0.00  0.00     0.000 A 
HETATM   25  C   UNK N   1      25.606  26.835  -6.720  0.00  0.00     0.001 A 
HETATM   26  C   UNK N   1      26.805  27.540  -6.863  0.00  0.00     0.007 A 
ENDBRANCH  20  21
ENDBRANCH  18  20
ENDBRANCH   1  18
TORSDOF 6
ENDMDL
MODEL 5
REMARK VINA RESULT:      -6.6      5.852      7.855
REMARK  6 active torsions:
REMARK  status: ('A' for Active; 'I' for Inactive)
REMARK    1  A    between atoms: N_2  and  C_9 
REMARK    2  A    between atoms: N_3  and  C_4 
REMARK    3  A    between atoms: N_3  and  C_12 
REMARK       I    between atoms: N_3  and  C_13 
REMARK    4  A    between atoms: C_9  and  C_10 
REMARK    5  A    between atoms: C_10  and  C_14 
REMARK    6  A    between atoms: C_13  and  C_15 
ROOT
HETATM    1  N   UNK N   1      23.872  13.373   6.373  0.00  0.00     0.093 N 
HETATM    2  C   UNK N   1      22.037  15.388   6.745  0.00  0.00     0.096 C 
HETATM    3  C   UNK N   1      21.467  13.965   6.779  0.00  0.00     0.056 C 
HETATM    4  C   UNK N   1      22.993  15.621   5.590  0.00  0.00     0.056 C 
HETATM    5  C   UNK N   1      22.470  12.960   6.184  0.00  0.00     0.275 C 
HETATM    6  C   UNK N   1      24.171  14.642   5.674  0.00  0.00     0.275 C 
ENDROOT
BRANCH   2   7
HETATM    7  N   UNK N   1      21.087  16.493   6.887  0.00  0.00    -0.313 N 
HETATM    8  C   UNK N   1      20.477  16.734   8.107  0.00  0.00     0.224 C 
HETATM    9  O   UNK N   1      20.735  16.032   9.073  0.00  0.00    -0.273 OA
BRANCH   7  10
HETATM   10  C   UNK N   1      20.756  17.201   5.672  0.00  0.00     0.037 A 
HETATM   11  C   UNK N   1      19.903  16.658   4.693  0.00  0.00     0.030 A 
HETATM   12  C   UNK N   1      19.677  17.323   3.485  0.00  0.00     0.002 A 
HETATM   13  C   UNK N   1      20.296  18.547   3.233  0.00  0.00     0.000 A 
HETATM   14  C   UNK N   1      21.142  19.108   4.190  0.00  0.00     0.002 A 
HETATM   15  C   UNK N   1      21.378  18.437   5.392  0.00  0.00     0.030 A 
ENDBRANCH   7  10
BRANCH   8  16
HETATM   16  C   UNK N   1      19.490  17.850   8.315  0.00  0.00     0.099 C 
HETATM   17  C   UNK N   1      18.286  17.366   9.103  0.00  0.00     0.014 C 
ENDBRANCH   8  16
ENDBRANCH   2   7
BRANCH   1  18
HETATM   18  C   UNK N   1      24.224  13.419   7.807  0.00  0.00     0.223 C 
HETATM   19  C   UNK N   1      25.601  14.026   8.056  0.00  0.00     0.043 C 
BRANCH  18  20
HETATM   20  C   UNK N   1      24.165  12.022   8.447  0.00  0.00     0.074 C 
BRANCH  20  21
HETATM   21  C   UNK N   1      23.525  12.009   9.806  0.00  0.00    -0.056 A 
HETATM   22  C   UNK N   1      22.134  12.093   9.948  0.00  0.00     0.007 A 
HETATM   23  C   UNK N   1      21.556  12.094  11.221  0.00  0.00     0.001 A 
HETATM   24  C   UNK N   1      22.367  12.001  12.355  0.00  0.00     0.000 A 
HETATM   25  C   UNK N   1      23.755  11.910  12.217  0.00  0.00     0.001 A 
HETATM   26  C   UNK N   1      24.333  11.916  10.943  0.00  0.00     0.007 A 
ENDBRANCH  20  21
ENDBRANCH  18  20
ENDBRANCH   1  18
TORSDOF 6
ENDMDL
MODEL 6
REMARK VINA RESULT:      -6.6     11.351     13.781
REMARK  6 active torsions:
REMARK  status: ('A' for Active; 'I' for Inactive)
REMARK    1  A    between atoms: N_2  and  C_9 
REMARK    2  A    between atoms: N_3  and  C_4 
REMARK    3  A    between atoms: N_3  and  C_12 
REMARK       I    between atoms: N_3  and  C_13 
REMARK    4  A    between atoms: C_9  and  C_10 
REMARK    5  A    between atoms: C_10  and  C_14 
REMARK    6  A    between atoms: C_13  and  C_15 
ROOT
HETATM    1  N   UNK N   1      26.059  23.549  -9.023  0.00  0.00     0.093 N 
HETATM    2  C   UNK N   1      26.510  24.723  -6.577  0.00  0.00     0.096 C 
HETATM    3  C   UNK N   1      25.781  23.376  -6.535  0.00  0.00     0.056 C 
HETATM    4  C   UNK N   1      25.961  25.667  -7.630  0.00  0.00     0.056 C 
HETATM    5  C   UNK N   1      25.239  23.004  -7.927  0.00  0.00     0.275 C 
HETATM    6  C   UNK N   1      26.069  25.029  -9.020  0.00  0.00     0.275 C 
ENDROOT
BRANCH   2   7
HETATM    7  N   UNK N   1      26.726  25.408  -5.301  0.00  0.00    -0.313 N 
HETATM    8  C   UNK N   1      25.827  26.367  -4.864  0.00  0.00     0.224 C 
HETATM    9  O   UNK N   1      24.845  26.641  -5.537  0.00  0.00    -0.273 OA
BRANCH   7  10
HETATM   10  C   UNK N   1      27.966  25.105  -4.624  0.00  0.00     0.037 A 
HETATM   11  C   UNK N   1      29.182  25.723  -4.971  0.00  0.00     0.030 A 
HETATM   12  C   UNK N   1      30.382  25.340  -4.365  0.00  0.00     0.002 A 
HETATM   13  C   UNK N   1      30.389  24.336  -3.397  0.00  0.00     0.000 A 
HETATM   14  C   UNK N   1      29.196  23.713  -3.033  0.00  0.00     0.002 A 
HETATM   15  C   UNK N   1      27.999  24.086  -3.648  0.00  0.00     0.030 A 
ENDBRANCH   7  10
BRANCH   8  16
HETATM   16  C   UNK N   1      25.996  27.107  -3.565  0.00  0.00     0.099 C 
HETATM   17  C   UNK N   1      25.971  28.608  -3.792  0.00  0.00     0.014 C 
ENDBRANCH   8  16
ENDBRANCH   2   7
BRANCH   1  18
HETATM   18  C   UNK N   1      27.420  22.973  -9.006  0.00  0.00     0.223 C 
HETATM   19  C   UNK N   1      28.147  23.144 -10.336  0.00  0.00     0.043 C 
BRANCH  18  20
HETATM   20  C   UNK N   1      27.396  21.482  -8.630  0.00  0.00     0.074 C 
BRANCH  20  21
HETATM   21  C   UNK N   1      28.539  21.065  -7.750  0.00  0.00    -0.056 A 
HETATM   22  C   UNK N   1      29.000  21.900  -6.723  0.00  0.00     0.007 A 
HETATM   23  C   UNK N   1      30.074  21.502  -5.923  0.00  0.00     0.001 A 
HETATM   24  C   UNK N   1      30.685  20.264  -6.140  0.00  0.00     0.000 A 
HETATM   25  C   UNK N   1      30.223  19.425  -7.159  0.00  0.00     0.001 A 
HETATM   26  C   UNK N   1      29.152  19.827  -7.964  0.00  0.00     0.007 A 
ENDBRANCH  20  21
ENDBRANCH  18  20
ENDBRANCH   1  18
TORSDOF 6
ENDMDL
MODEL 7
REMARK VINA RESULT:      -6.5     11.545     14.774
REMARK  6 active torsions:
REMARK  status: ('A' for Active; 'I' for Inactive)
REMARK    1  A    between atoms: N_2  and  C_9 
REMARK    2  A    between atoms: N_3  and  C_4 
REMARK    3  A    between atoms: N_3  and  C_12 
REMARK       I    between atoms: N_3  and  C_13 
REMARK    4  A    between atoms: C_9  and  C_10 
REMARK    5  A    between atoms: C_10  and  C_14 
REMARK    6  A    between atoms: C_13  and  C_15 
ROOT
HETATM    1  N   UNK N   1      26.019  24.416  -7.416  0.00  0.00     0.093 N 
HETATM    2  C   UNK N   1      28.545  23.402  -7.018  0.00  0.00     0.096 C 
HETATM    3  C   UNK N   1      28.465  24.629  -7.935  0.00  0.00     0.056 C 
HETATM    4  C   UNK N   1      27.495  22.353  -7.332  0.00  0.00     0.056 C 
HETATM    5  C   UNK N   1      27.018  24.871  -8.399  0.00  0.00     0.275 C 
HETATM    6  C   UNK N   1      26.090  22.954  -7.195  0.00  0.00     0.275 C 
ENDROOT
BRANCH   2   7
HETATM    7  N   UNK N   1      29.865  22.800  -6.821  0.00  0.00    -0.313 N 
HETATM    8  C   UNK N   1      30.571  22.300  -7.902  0.00  0.00     0.224 C 
HETATM    9  O   UNK N   1      30.102  22.367  -9.028  0.00  0.00    -0.273 OA
BRANCH   7  10
HETATM   10  C   UNK N   1      30.296  22.661  -5.448  0.00  0.00     0.037 A 
HETATM   11  C   UNK N   1      30.189  21.446  -4.746  0.00  0.00     0.030 A 
HETATM   12  C   UNK N   1      30.524  21.366  -3.392  0.00  0.00     0.002 A 
HETATM   13  C   UNK N   1      30.977  22.498  -2.714  0.00  0.00     0.000 A 
HETATM   14  C   UNK N   1      31.095  23.712  -3.390  0.00  0.00     0.002 A 
HETATM   15  C   UNK N   1      30.748  23.795  -4.740  0.00  0.00     0.030 A 
ENDBRANCH   7  10
BRANCH   8  16
HETATM   16  C   UNK N   1      31.929  21.666  -7.762  0.00  0.00     0.099 C 
HETATM   17  C   UNK N   1      31.824  20.152  -7.798  0.00  0.00     0.014 C 
ENDBRANCH   8  16
ENDBRANCH   2   7
BRANCH   1  18
HETATM   18  C   UNK N   1      26.122  25.185  -6.158  0.00  0.00     0.223 C 
HETATM   19  C   UNK N   1      25.651  24.391  -4.944  0.00  0.00     0.043 C 
BRANCH  18  20
HETATM   20  C   UNK N   1      25.333  26.502  -6.238  0.00  0.00     0.074 C 
BRANCH  20  21
HETATM   21  C   UNK N   1      26.048  27.670  -5.621  0.00  0.00    -0.056 A 
HETATM   22  C   UNK N   1      25.649  28.185  -4.381  0.00  0.00     0.007 A 
HETATM   23  C   UNK N   1      26.318  29.282  -3.828  0.00  0.00     0.001 A 
HETATM   24  C   UNK N   1      27.392  29.860  -4.509  0.00  0.00     0.000 A 
HETATM   25  C   UNK N   1      27.797  29.343  -5.743  0.00  0.00     0.001 A 
HETATM   26  C   UNK N   1      27.125  28.251  -6.299  0.00  0.00     0.007 A 
ENDBRANCH  20  21
ENDBRANCH  18  20
ENDBRANCH   1  18
TORSDOF 6
ENDMDL
MODEL 8
REMARK VINA RESULT:      -6.5      9.679     12.961
REMARK  6 active torsions:
REMARK  status: ('A' for Active; 'I' for Inactive)
REMARK    1  A    between atoms: N_2  and  C_9 
REMARK    2  A    between atoms: N_3  and  C_4 
REMARK    3  A    between atoms: N_3  and  C_12 
REMARK       I    between atoms: N_3  and  C_13 
REMARK    4  A    between atoms: C_9  and  C_10 
REMARK    5  A    between atoms: C_10  and  C_14 
REMARK    6  A    between atoms: C_13  and  C_15 
ROOT
HETATM    1  N   UNK N   1      36.273   9.457  13.709  0.00  0.00     0.093 N 
HETATM    2  C   UNK N   1      35.547  11.618  12.169  0.00  0.00     0.096 C 
HETATM    3  C   UNK N   1      34.443  11.051  13.068  0.00  0.00     0.056 C 
HETATM    4  C   UNK N   1      36.314  10.547  11.417  0.00  0.00     0.056 C 
HETATM    5  C   UNK N   1      34.817   9.646  13.574  0.00  0.00     0.275 C 
HETATM    6  C   UNK N   1      36.965   9.571  12.406  0.00  0.00     0.275 C 
ENDROOT
BRANCH   2   7
HETATM    7  N   UNK N   1      35.189  12.737  11.295  0.00  0.00    -0.313 N 
HETATM    8  C   UNK N   1      34.951  13.991  11.831  0.00  0.00     0.224 C 
HETATM    9  O   UNK N   1      35.046  14.174  13.035  0.00  0.00    -0.273 OA
BRANCH   7  10
HETATM   10  C   UNK N   1      34.990  12.410   9.901  0.00  0.00     0.037 A 
HETATM   11  C   UNK N   1      35.947  12.708   8.914  0.00  0.00     0.030 A 
HETATM   12  C   UNK N   1      35.686  12.467   7.562  0.00  0.00     0.002 A 
HETATM   13  C   UNK N   1      34.464  11.918   7.171  0.00  0.00     0.000 A 
HETATM   14  C   UNK N   1      33.502  11.610   8.133  0.00  0.00     0.002 A 
HETATM   15  C   UNK N   1      33.758  11.863   9.482  0.00  0.00     0.030 A 
ENDBRANCH   7  10
BRANCH   8  16
HETATM   16  C   UNK N   1      34.576  15.178  10.985  0.00  0.00     0.099 C 
HETATM   17  C   UNK N   1      35.711  16.184  10.935  0.00  0.00     0.014 C 
ENDBRANCH   8  16
ENDBRANCH   2   7
BRANCH   1  18
HETATM   18  C   UNK N   1      36.834  10.365  14.730  0.00  0.00     0.223 C 
HETATM   19  C   UNK N   1      38.354  10.469  14.653  0.00  0.00     0.043 C 
BRANCH  18  20
HETATM   20  C   UNK N   1      36.429   9.934  16.150  0.00  0.00     0.074 C 
BRANCH  20  21
HETATM   21  C   UNK N   1      35.946  11.069  17.007  0.00  0.00    -0.056 A 
HETATM   22  C   UNK N   1      35.640  12.316  16.447  0.00  0.00     0.007 A 
HETATM   23  C   UNK N   1      35.206  13.365  17.262  0.00  0.00     0.001 A 
HETATM   24  C   UNK N   1      35.068  13.168  18.639  0.00  0.00     0.000 A 
HETATM   25  C   UNK N   1      35.366  11.922  19.200  0.00  0.00     0.001 A 
HETATM   26  C   UNK N   1      35.806  10.875  18.385  0.00  0.00     0.007 A 
ENDBRANCH  20  21
ENDBRANCH  18  20
ENDBRANCH   1  18
TORSDOF 6
ENDMDL
MODEL 9
REMARK VINA RESULT:      -6.5      5.426      8.274
REMARK  6 active torsions:
REMARK  status: ('A' for Active; 'I' for Inactive)
REMARK    1  A    between atoms: N_2  and  C_9 
REMARK    2  A    between atoms: N_3  and  C_4 
REMARK    3  A    between atoms: N_3  and  C_12 
REMARK       I    between atoms: N_3  and  C_13 
REMARK    4  A    between atoms: C_9  and  C_10 
REMARK    5  A    between atoms: C_10  and  C_14 
REMARK    6  A    between atoms: C_13  and  C_15 
ROOT
HETATM    1  N   UNK N   1      34.667  13.958  10.120  0.00  0.00     0.093 N 
HETATM    2  C   UNK N   1      33.635  15.640   8.203  0.00  0.00     0.096 C 
HETATM    3  C   UNK N   1      34.161  16.329   9.468  0.00  0.00     0.056 C 
HETATM    4  C   UNK N   1      32.772  14.428   8.499  0.00  0.00     0.056 C 
HETATM    5  C   UNK N   1      34.345  15.311  10.609  0.00  0.00     0.275 C 
HETATM    6  C   UNK N   1      33.571  13.394   9.301  0.00  0.00     0.275 C 
ENDROOT
BRANCH   2   7
HETATM    7  N   UNK N   1      33.031  16.494   7.179  0.00  0.00    -0.313 N 
HETATM    8  C   UNK N   1      33.727  16.790   6.019  0.00  0.00     0.224 C 
HETATM    9  O   UNK N   1      34.846  16.333   5.840  0.00  0.00    -0.273 OA
BRANCH   7  10
HETATM   10  C   UNK N   1      31.755  17.081   7.520  0.00  0.00     0.037 A 
HETATM   11  C   UNK N   1      31.616  18.033   8.547  0.00  0.00     0.030 A 
HETATM   12  C   UNK N   1      30.356  18.512   8.919  0.00  0.00     0.002 A 
HETATM   13  C   UNK N   1      29.212  18.052   8.267  0.00  0.00     0.000 A 
HETATM   14  C   UNK N   1      29.326  17.112   7.242  0.00  0.00     0.002 A 
HETATM   15  C   UNK N   1      30.583  16.625   6.880  0.00  0.00     0.030 A 
ENDBRANCH   7  10
BRANCH   8  16
HETATM   16  C   UNK N   1      33.162  17.664   4.933  0.00  0.00     0.099 C 
HETATM   17  C   UNK N   1      32.882  16.854   3.680  0.00  0.00     0.014 C 
ENDBRANCH   8  16
ENDBRANCH   2   7
BRANCH   1  18
HETATM   18  C   UNK N   1      35.966  13.943   9.417  0.00  0.00     0.223 C 
HETATM   19  C   UNK N   1      36.200  12.649   8.643  0.00  0.00     0.043 C 
BRANCH  18  20
HETATM   20  C   UNK N   1      37.136  14.168  10.390  0.00  0.00     0.074 C 
BRANCH  20  21
HETATM   21  C   UNK N   1      37.120  13.244  11.574  0.00  0.00    -0.056 A 
HETATM   22  C   UNK N   1      37.624  11.940  11.477  0.00  0.00     0.007 A 
HETATM   23  C   UNK N   1      37.588  11.089  12.585  0.00  0.00     0.001 A 
HETATM   24  C   UNK N   1      37.056  11.542  13.796  0.00  0.00     0.000 A 
HETATM   25  C   UNK N   1      36.559  12.844  13.898  0.00  0.00     0.001 A 
HETATM   26  C   UNK N   1      36.589  13.694  12.787  0.00  0.00     0.007 A 
ENDBRANCH  20  21
ENDBRANCH  18  20
ENDBRANCH   1  18
TORSDOF 6
ENDMDL
