MODEL 1
REMARK VINA RESULT:      -6.6      0.000      0.000
REMARK  1 active torsions:
REMARK  status: ('A' for Active; 'I' for Inactive)
REMARK    1  A    between atoms: C_10  and  C_13 
ROOT
HETATM    1 Br   UNK N   1      28.559  17.929   9.406  0.00  0.00    -0.051 Br
HETATM    2  O   UNK N   1      32.854  16.537   2.504  0.00  0.00    -0.271 OA
HETATM    3  N   UNK N   1      32.210  16.996   4.576  0.00  0.00    -0.325 N 
HETATM    4  N   UNK N   1      29.580  16.825   3.062  0.00  0.00    -0.379 N 
ATOM      5  HN  UNK N   1      29.092  17.012   2.187  1.00  0.00     0.160 HD
HETATM    6  C   UNK N   1      29.868  17.359   5.458  0.00  0.00     0.021 A 
HETATM    7  C   UNK N   1      31.274  17.117   5.636  0.00  0.00     0.047 A 
HETATM    8  C   UNK N   1      29.157  17.448   4.112  0.00  0.00     0.068 C 
HETATM    9  C   UNK N   1      29.102  17.588   6.614  0.00  0.00     0.035 A 
HETATM   10  C   UNK N   1      30.674  15.896   3.011  0.00  0.00     0.223 C 
HETATM   11  C   UNK N   1      31.810  17.112   6.933  0.00  0.00     0.032 A 
HETATM   12  C   UNK N   1      31.965  16.530   3.338  0.00  0.00     0.239 C 
HETATM   13  C   UNK N   1      29.655  17.572   7.890  0.00  0.00     0.011 A 
HETATM   14  C   UNK N   1      31.011  17.325   8.052  0.00  0.00     0.021 A 
HETATM   15  H   UNK N   1      33.133  17.284   4.765  0.00  0.00     0.169 HD
ENDROOT
BRANCH   8  16
HETATM   16  C   UNK N   1      27.852  18.180   3.952  0.00  0.00     0.059 A 
HETATM   17  N   UNK N   1      27.874  19.542   3.839  0.00  0.00    -0.364 N 
HETATM   18  C   UNK N   1      26.739  20.272   3.654  0.00  0.00     0.088 A 
ATOM     19  HN  UNK N   1      28.769  20.027   3.894  1.00  0.00     0.165 HD
HETATM   20  C   UNK N   1      25.502  19.636   3.571  0.00  0.00     0.017 A 
HETATM   21  C   UNK N   1      25.442  18.249   3.693  0.00  0.00     0.004 A 
HETATM   22  C   UNK N   1      26.615  17.520   3.886  0.00  0.00     0.032 A 
ENDBRANCH   8  16
TORSDOF 1
ENDMDL
MODEL 2
REMARK VINA RESULT:      -6.5      9.281     10.881
REMARK  1 active torsions:
REMARK  status: ('A' for Active; 'I' for Inactive)
REMARK    1  A    between atoms: C_10  and  C_13 
ROOT
HETATM    1 Br   UNK N   1      20.328  10.778   4.988  0.00  0.00    -0.051 Br
HETATM    2  O   UNK N   1      20.964  18.707   7.166  0.00  0.00    -0.271 OA
HETATM    3  N   UNK N   1      20.899  16.781   6.069  0.00  0.00    -0.325 N 
HETATM    4  N   UNK N   1      20.695  15.922   8.977  0.00  0.00    -0.379 N 
ATOM      5  HN  UNK N   1      20.991  16.099   9.937  1.00  0.00     0.160 HD
HETATM    6  C   UNK N   1      20.759  14.435   7.004  0.00  0.00     0.021 A 
HETATM    7  C   UNK N   1      20.674  15.386   5.929  0.00  0.00     0.047 A 
HETATM    8  C   UNK N   1      21.027  14.784   8.464  0.00  0.00     0.068 C 
HETATM    9  C   UNK N   1      20.643  13.075   6.671  0.00  0.00     0.035 A 
HETATM   10  C   UNK N   1      19.950  16.961   8.325  0.00  0.00     0.223 C 
HETATM   11  C   UNK N   1      20.474  14.925   4.619  0.00  0.00     0.032 A 
HETATM   12  C   UNK N   1      20.668  17.525   7.167  0.00  0.00     0.239 C 
HETATM   13  C   UNK N   1      20.438  12.642   5.365  0.00  0.00     0.011 A 
HETATM   14  C   UNK N   1      20.345  13.568   4.337  0.00  0.00     0.021 A 
HETATM   15  H   UNK N   1      21.261  17.253   5.284  0.00  0.00     0.169 HD
ENDROOT
BRANCH   8  16
HETATM   16  C   UNK N   1      21.598  13.777   9.426  0.00  0.00     0.059 A 
HETATM   17  N   UNK N   1      22.944  13.543   9.410  0.00  0.00    -0.364 N 
HETATM   18  C   UNK N   1      23.539  12.677  10.275  0.00  0.00     0.088 A 
ATOM     19  HN  UNK N   1      23.522  14.035   8.728  1.00  0.00     0.165 HD
HETATM   20  C   UNK N   1      22.776  11.994  11.220  0.00  0.00     0.017 A 
HETATM   21  C   UNK N   1      21.398  12.200  11.258  0.00  0.00     0.004 A 
HETATM   22  C   UNK N   1      20.807  13.089  10.360  0.00  0.00     0.032 A 
ENDBRANCH   8  16
TORSDOF 1
ENDMDL
MODEL 3
REMARK VINA RESULT:      -6.4     10.833     12.524
REMARK  1 active torsions:
REMARK  status: ('A' for Active; 'I' for Inactive)
REMARK    1  A    between atoms: C_10  and  C_13 
ROOT
HETATM    1 Br   UNK N   1      28.339  21.507  -9.285  0.00  0.00    -0.051 Br
HETATM    2  O   UNK N   1      30.718  22.955  -1.522  0.00  0.00    -0.271 OA
HETATM    3  N   UNK N   1      30.186  22.034  -3.467  0.00  0.00    -0.325 N 
HETATM    4  N   UNK N   1      29.357  24.935  -3.834  0.00  0.00    -0.379 N 
ATOM      5  HN  UNK N   1      28.964  25.767  -3.393  1.00  0.00     0.160 HD
HETATM    6  C   UNK N   1      29.094  23.110  -5.479  0.00  0.00     0.021 A 
HETATM    7  C   UNK N   1      29.813  22.043  -4.838  0.00  0.00     0.047 A 
HETATM    8  C   UNK N   1      28.689  24.420  -4.812  0.00  0.00     0.068 C 
HETATM    9  C   UNK N   1      28.682  22.903  -6.807  0.00  0.00     0.035 A 
HETATM   10  C   UNK N   1      30.600  24.447  -3.306  0.00  0.00     0.223 C 
HETATM   11  C   UNK N   1      30.077  20.866  -5.554  0.00  0.00     0.032 A 
HETATM   12  C   UNK N   1      30.468  23.107  -2.705  0.00  0.00     0.239 C 
HETATM   13  C   UNK N   1      28.962  21.729  -7.499  0.00  0.00     0.011 A 
HETATM   14  C   UNK N   1      29.667  20.711  -6.875  0.00  0.00     0.021 A 
HETATM   15  H   UNK N   1      30.244  21.153  -3.030  0.00  0.00     0.169 HD
ENDROOT
BRANCH   8  16
HETATM   16  C   UNK N   1      27.545  25.251  -5.327  0.00  0.00     0.059 A 
HETATM   17  N   UNK N   1      27.821  26.310  -6.147  0.00  0.00    -0.364 N 
HETATM   18  C   UNK N   1      26.839  27.085  -6.684  0.00  0.00     0.088 A 
ATOM     19  HN  UNK N   1      28.794  26.525  -6.364  1.00  0.00     0.165 HD
HETATM   20  C   UNK N   1      25.500  26.813  -6.408  0.00  0.00     0.017 A 
HETATM   21  C   UNK N   1      25.183  25.747  -5.568  0.00  0.00     0.004 A 
HETATM   22  C   UNK N   1      26.204  24.967  -5.024  0.00  0.00     0.032 A 
ENDBRANCH   8  16
TORSDOF 1
ENDMDL
MODEL 4
REMARK VINA RESULT:      -6.2     12.515     13.875
REMARK  1 active torsions:
REMARK  status: ('A' for Active; 'I' for Inactive)
REMARK    1  A    between atoms: C_10  and  C_13 
ROOT
HETATM    1 Br   UNK N   1      30.435  23.076  -4.068  0.00  0.00    -0.051 Br
HETATM    2  O   UNK N   1      25.458  21.080 -10.335  0.00  0.00    -0.271 OA
HETATM    3  N   UNK N   1      27.159  21.290  -8.927  0.00  0.00    -0.325 N 
HETATM    4  N   UNK N   1      25.119  23.264  -7.839  0.00  0.00    -0.379 N 
ATOM      5  HN  UNK N   1      24.391  23.941  -8.063  1.00  0.00     0.160 HD
HETATM    6  C   UNK N   1      27.383  22.841  -6.941  0.00  0.00     0.021 A 
HETATM    7  C   UNK N   1      27.794  21.710  -7.728  0.00  0.00     0.047 A 
HETATM    8  C   UNK N   1      26.166  23.713  -7.228  0.00  0.00     0.068 C 
HETATM    9  C   UNK N   1      28.201  23.203  -5.857  0.00  0.00     0.035 A 
HETATM   10  C   UNK N   1      24.886  21.903  -8.233  0.00  0.00     0.223 C 
HETATM   11  C   UNK N   1      28.967  21.023  -7.382  0.00  0.00     0.032 A 
HETATM   12  C   UNK N   1      25.858  21.436  -9.239  0.00  0.00     0.239 C 
HETATM   13  C   UNK N   1      29.357  22.502  -5.529  0.00  0.00     0.011 A 
HETATM   14  C   UNK N   1      29.738  21.405  -6.288  0.00  0.00     0.021 A 
HETATM   15  H   UNK N   1      27.728  20.850  -9.599  0.00  0.00     0.169 HD
ENDROOT
BRANCH   8  16
HETATM   16  C   UNK N   1      26.065  25.125  -6.716  0.00  0.00     0.059 A 
HETATM   17  N   UNK N   1      25.159  25.403  -5.732  0.00  0.00    -0.364 N 
HETATM   18  C   UNK N   1      25.035  26.646  -5.191  0.00  0.00     0.088 A 
ATOM     19  HN  UNK N   1      24.557  24.654  -5.390  1.00  0.00     0.165 HD
HETATM   20  C   UNK N   1      25.847  27.688  -5.635  0.00  0.00     0.017 A 
HETATM   21  C   UNK N   1      26.774  27.443  -6.646  0.00  0.00     0.004 A 
HETATM   22  C   UNK N   1      26.883  26.163  -7.190  0.00  0.00     0.032 A 
ENDBRANCH   8  16
TORSDOF 1
ENDMDL
MODEL 5
REMARK VINA RESULT:      -6.2      9.557     11.994
REMARK  1 active torsions:
REMARK  status: ('A' for Active; 'I' for Inactive)
REMARK    1  A    between atoms: C_10  and  C_13 
ROOT
HETATM    1 Br   UNK N   1      38.598   9.122  10.699  0.00  0.00    -0.051 Br
HETATM    2  O   UNK N   1      36.002  16.950  10.681  0.00  0.00    -0.271 OA
HETATM    3  N   UNK N   1      37.158  15.072  10.454  0.00  0.00    -0.325 N 
HETATM    4  N   UNK N   1      34.713  14.186  12.028  0.00  0.00    -0.379 N 
ATOM      5  HN  UNK N   1      34.031  14.433  12.745  1.00  0.00     0.160 HD
HETATM    6  C   UNK N   1      36.617  12.767  11.344  0.00  0.00     0.021 A 
HETATM    7  C   UNK N   1      37.351  13.666  10.495  0.00  0.00     0.047 A 
HETATM    8  C   UNK N   1      35.474  13.171  12.269  0.00  0.00     0.068 C 
HETATM    9  C   UNK N   1      37.024  11.422  11.363  0.00  0.00     0.035 A 
HETATM   10  C   UNK N   1      34.737  15.002  10.846  0.00  0.00     0.223 C 
HETATM   11  C   UNK N   1      38.417  13.169   9.730  0.00  0.00     0.032 A 
HETATM   12  C   UNK N   1      36.009  15.731  10.693  0.00  0.00     0.239 C 
HETATM   13  C   UNK N   1      38.081  10.952  10.590  0.00  0.00     0.011 A 
HETATM   14  C   UNK N   1      38.775  11.825   9.766  0.00  0.00     0.021 A 
HETATM   15  H   UNK N   1      37.944  15.621  10.229  0.00  0.00     0.169 HD
ENDROOT
BRANCH   8  16
HETATM   16  C   UNK N   1      35.094  12.342  13.466  0.00  0.00     0.059 A 
HETATM   17  N   UNK N   1      34.069  11.447  13.345  0.00  0.00    -0.364 N 
HETATM   18  C   UNK N   1      33.691  10.635  14.370  0.00  0.00     0.088 A 
ATOM     19  HN  UNK N   1      33.571  11.384  12.457  1.00  0.00     0.165 HD
HETATM   20  C   UNK N   1      34.354  10.695  15.594  0.00  0.00     0.017 A 
HETATM   21  C   UNK N   1      35.398  11.605  15.757  0.00  0.00     0.004 A 
HETATM   22  C   UNK N   1      35.767  12.431  14.695  0.00  0.00     0.032 A 
ENDBRANCH   8  16
TORSDOF 1
ENDMDL
MODEL 6
REMARK VINA RESULT:      -6.1     14.182     15.685
REMARK  1 active torsions:
REMARK  status: ('A' for Active; 'I' for Inactive)
REMARK    1  A    between atoms: C_10  and  C_13 
ROOT
HETATM    1 Br   UNK N   1      29.383  27.313 -10.454  0.00  0.00    -0.051 Br
HETATM    2  O   UNK N   1      25.378  28.117  -3.289  0.00  0.00    -0.271 OA
HETATM    3  N   UNK N   1      26.780  28.302  -4.996  0.00  0.00    -0.325 N 
HETATM    4  N   UNK N   1      25.071  25.910  -5.769  0.00  0.00    -0.379 N 
ATOM      5  HN  UNK N   1      24.572  25.084  -5.441  1.00  0.00     0.160 HD
HETATM    6  C   UNK N   1      26.965  26.843  -7.054  0.00  0.00     0.021 A 
HETATM    7  C   UNK N   1      27.252  28.039  -6.310  0.00  0.00     0.047 A 
HETATM    8  C   UNK N   1      26.055  25.714  -6.583  0.00  0.00     0.068 C 
HETATM    9  C   UNK N   1      27.621  26.678  -8.286  0.00  0.00     0.035 A 
HETATM   10  C   UNK N   1      24.616  27.181  -5.280  0.00  0.00     0.223 C 
HETATM   11  C   UNK N   1      28.151  28.977  -6.839  0.00  0.00     0.032 A 
HETATM   12  C   UNK N   1      25.630  27.861  -4.454  0.00  0.00     0.239 C 
HETATM   13  C   UNK N   1      28.504  27.626  -8.794  0.00  0.00     0.011 A 
HETATM   14  C   UNK N   1      28.764  28.782  -8.073  0.00  0.00     0.021 A 
HETATM   15  H   UNK N   1      27.353  28.863  -4.424  0.00  0.00     0.169 HD
ENDROOT
BRANCH   8  16
HETATM   16  C   UNK N   1      26.181  24.316  -7.126  0.00  0.00     0.059 A 
HETATM   17  N   UNK N   1      25.246  23.873  -8.020  0.00  0.00    -0.364 N 
HETATM   18  C   UNK N   1      25.313  22.636  -8.585  0.00  0.00     0.088 A 
ATOM     19  HN  UNK N   1      24.474  24.490  -8.272  1.00  0.00     0.165 HD
HETATM   20  C   UNK N   1      26.358  21.773  -8.262  0.00  0.00     0.017 A 
HETATM   21  C   UNK N   1      27.323  22.188  -7.346  0.00  0.00     0.004 A 
HETATM   22  C   UNK N   1      27.234  23.458  -6.775  0.00  0.00     0.032 A 
ENDBRANCH   8  16
TORSDOF 1
ENDMDL
MODEL 7
REMARK VINA RESULT:      -6.1      3.490      6.571
REMARK  1 active torsions:
REMARK  status: ('A' for Active; 'I' for Inactive)
REMARK    1  A    between atoms: C_10  and  C_13 
ROOT
HETATM    1 Br   UNK N   1      32.182  14.445   3.544  0.00  0.00    -0.051 Br
HETATM    2  O   UNK N   1      27.430  19.911   7.490  0.00  0.00    -0.271 OA
HETATM    3  N   UNK N   1      28.453  18.654   5.976  0.00  0.00    -0.325 N 
HETATM    4  N   UNK N   1      29.909  17.950   8.550  0.00  0.00    -0.379 N 
ATOM      5  HN  UNK N   1      30.266  18.290   9.442  1.00  0.00     0.160 HD
HETATM    6  C   UNK N   1      30.400  17.071   6.293  0.00  0.00     0.021 A 
HETATM    7  C   UNK N   1      29.301  17.604   5.535  0.00  0.00     0.047 A 
HETATM    8  C   UNK N   1      30.777  17.496   7.708  0.00  0.00     0.068 C 
HETATM    9  C   UNK N   1      31.225  16.128   5.656  0.00  0.00     0.035 A 
HETATM   10  C   UNK N   1      28.489  18.023   8.347  0.00  0.00     0.223 C 
HETATM   11  C   UNK N   1      29.096  17.161   4.219  0.00  0.00     0.032 A 
HETATM   12  C   UNK N   1      28.125  18.938   7.250  0.00  0.00     0.239 C 
HETATM   13  C   UNK N   1      30.998  15.699   4.352  0.00  0.00     0.011 A 
HETATM   14  C   UNK N   1      29.927  16.211   3.634  0.00  0.00     0.021 A 
HETATM   15  H   UNK N   1      28.066  19.234   5.280  0.00  0.00     0.169 HD
ENDROOT
BRANCH   8  16
HETATM   16  C   UNK N   1      32.169  17.306   8.247  0.00  0.00     0.059 A 
HETATM   17  N   UNK N   1      32.427  16.215   9.029  0.00  0.00    -0.364 N 
HETATM   18  C   UNK N   1      33.669  15.954   9.522  0.00  0.00     0.088 A 
ATOM     19  HN  UNK N   1      31.664  15.575   9.249  1.00  0.00     0.165 HD
HETATM   20  C   UNK N   1      34.731  16.810   9.236  0.00  0.00     0.017 A 
HETATM   21  C   UNK N   1      34.502  17.938   8.451  0.00  0.00     0.004 A 
HETATM   22  C   UNK N   1      33.221  18.189   7.958  0.00  0.00     0.032 A 
ENDBRANCH   8  16
TORSDOF 1
ENDMDL
MODEL 8
REMARK VINA RESULT:      -6.1     10.974     13.392
REMARK  1 active torsions:
REMARK  status: ('A' for Active; 'I' for Inactive)
REMARK    1  A    between atoms: C_10  and  C_13 
ROOT
HETATM    1 Br   UNK N   1      27.971  28.940  -3.096  0.00  0.00    -0.051 Br
HETATM    2  O   UNK N   1      24.940  23.043  -8.002  0.00  0.00    -0.271 OA
HETATM    3  N   UNK N   1      25.229  24.824  -6.712  0.00  0.00    -0.325 N 
HETATM    4  N   UNK N   1      27.877  23.353  -6.455  0.00  0.00    -0.379 N 
ATOM      5  HN  UNK N   1      28.342  22.447  -6.404  1.00  0.00     0.160 HD
HETATM    6  C   UNK N   1      27.240  25.449  -5.312  0.00  0.00     0.021 A 
HETATM    7  C   UNK N   1      25.986  25.750  -5.947  0.00  0.00     0.047 A 
HETATM    8  C   UNK N   1      27.984  24.123  -5.423  0.00  0.00     0.068 C 
HETATM    9  C   UNK N   1      27.793  26.437  -4.477  0.00  0.00     0.035 A 
HETATM   10  C   UNK N   1      27.162  23.650  -7.664  0.00  0.00     0.223 C 
HETATM   11  C   UNK N   1      25.382  26.996  -5.718  0.00  0.00     0.032 A 
HETATM   12  C   UNK N   1      25.713  23.799  -7.438  0.00  0.00     0.239 C 
HETATM   13  C   UNK N   1      27.178  27.668  -4.271  0.00  0.00     0.011 A 
HETATM   14  C   UNK N   1      25.974  27.951  -4.898  0.00  0.00     0.021 A 
HETATM   15  H   UNK N   1      24.251  24.942  -6.711  0.00  0.00     0.169 HD
ENDROOT
BRANCH   8  16
HETATM   16  C   UNK N   1      28.979  23.683  -4.383  0.00  0.00     0.059 A 
HETATM   17  N   UNK N   1      30.296  23.585  -4.735  0.00  0.00    -0.364 N 
HETATM   18  C   UNK N   1      31.260  23.231  -3.842  0.00  0.00     0.088 A 
ATOM     19  HN  UNK N   1      30.565  23.784  -5.698  1.00  0.00     0.165 HD
HETATM   20  C   UNK N   1      30.922  22.956  -2.518  0.00  0.00     0.017 A 
HETATM   21  C   UNK N   1      29.587  23.035  -2.127  0.00  0.00     0.004 A 
HETATM   22  C   UNK N   1      28.614  23.396  -3.058  0.00  0.00     0.032 A 
ENDBRANCH   8  16
TORSDOF 1
ENDMDL
MODEL 9
REMARK VINA RESULT:      -5.8     10.082     12.263
REMARK  1 active torsions:
REMARK  status: ('A' for Active; 'I' for Inactive)
REMARK    1  A    between atoms: C_10  and  C_13 
ROOT
HETATM    1 Br   UNK N   1      29.678  18.680  -8.332  0.00  0.00    -0.051 Br
HETATM    2  O   UNK N   1      30.620  24.809  -2.895  0.00  0.00    -0.271 OA
HETATM    3  N   UNK N   1      30.068  23.548  -4.632  0.00  0.00    -0.325 N 
HETATM    4  N   UNK N   1      32.016  21.788  -3.099  0.00  0.00    -0.379 N 
ATOM      5  HN  UNK N   1      32.861  21.755  -2.531  1.00  0.00     0.160 HD
HETATM    6  C   UNK N   1      30.903  21.238  -5.236  0.00  0.00     0.021 A 
HETATM    7  C   UNK N   1      29.987  22.338  -5.371  0.00  0.00     0.047 A 
HETATM    8  C   UNK N   1      32.048  21.169  -4.232  0.00  0.00     0.068 C 
HETATM    9  C   UNK N   1      30.764  20.169  -6.139  0.00  0.00     0.035 A 
HETATM   10  C   UNK N   1      30.902  22.522  -2.566  0.00  0.00     0.223 C 
HETATM   11  C   UNK N   1      29.007  22.295  -6.375  0.00  0.00     0.032 A 
HETATM   12  C   UNK N   1      30.557  23.696  -3.387  0.00  0.00     0.239 C 
HETATM   13  C   UNK N   1      29.779  20.147  -7.121  0.00  0.00     0.011 A 
HETATM   14  C   UNK N   1      28.894  21.208  -7.235  0.00  0.00     0.021 A 
HETATM   15  H   UNK N   1      29.733  24.361  -5.076  0.00  0.00     0.169 HD
ENDROOT
BRANCH   8  16
HETATM   16  C   UNK N   1      33.243  20.281  -4.454  0.00  0.00     0.059 A 
HETATM   17  N   UNK N   1      33.236  19.025  -3.917  0.00  0.00    -0.364 N 
HETATM   18  C   UNK N   1      34.262  18.149  -4.105  0.00  0.00     0.088 A 
ATOM     19  HN  UNK N   1      32.435  18.732  -3.357  1.00  0.00     0.165 HD
HETATM   20  C   UNK N   1      35.367  18.519  -4.869  0.00  0.00     0.017 A 
HETATM   21  C   UNK N   1      35.413  19.797  -5.423  0.00  0.00     0.004 A 
HETATM   22  C   UNK N   1      34.354  20.680  -5.215  0.00  0.00     0.032 A 
ENDBRANCH   8  16
TORSDOF 1
ENDMDL
