MODEL 1
REMARK VINA RESULT:      -6.8      0.000      0.000
REMARK  2 active torsions:
REMARK  status: ('A' for Active; 'I' for Inactive)
REMARK    1  A    between atoms: C_9  and  C_15 
REMARK    2  A    between atoms: C_10  and  C_12 
ROOT
HETATM    1  S   UNK N   1      20.707  16.932   4.576  0.00  0.00    -0.076 SA
HETATM    2  O   UNK N   1      20.816  20.084   0.773  0.00  0.00    -0.271 OA
HETATM    3  N   UNK N   1      20.929  18.544   2.396  0.00  0.00    -0.314 N 
HETATM    4  N   UNK N   1      23.382  20.323   2.938  0.00  0.00    -0.380 N 
ATOM      5  HN  UNK N   1      24.133  20.844   2.485  1.00  0.00     0.160 HD
HETATM    6  C   UNK N   1      22.677  18.431   4.290  0.00  0.00     0.026 A 
HETATM    7  C   UNK N   1      21.443  18.097   3.651  0.00  0.00     0.091 A 
HETATM    8  C   UNK N   1      23.742  19.353   3.721  0.00  0.00     0.053 C 
HETATM    9  C   UNK N   1      21.808  16.827   5.800  0.00  0.00    -0.015 A 
HETATM   10  C   UNK N   1      22.838  17.719   5.509  0.00  0.00     0.031 A 
HETATM   11  C   UNK N   1      22.041  20.739   2.640  0.00  0.00     0.223 C 
HETATM   12  C   UNK N   1      21.259  19.747   1.859  0.00  0.00     0.242 C 
HETATM   13  C   UNK N   1      19.961  17.716   1.707  0.00  0.00     0.160 C 
ENDROOT
BRANCH   8  14
HETATM   14  C   UNK N   1      25.257  19.300   4.008  0.00  0.00     0.013 A 
HETATM   15  C   UNK N   1      26.233  18.263   3.751  0.00  0.00     0.046 A 
HETATM   16 Cl   UNK N   1      25.990  16.716   2.972  0.00  0.00    -0.083 Cl
HETATM   17  C   UNK N   1      27.573  18.464   4.116  0.00  0.00     0.025 A 
HETATM   18  C   UNK N   1      28.003  19.642   4.712  0.00  0.00     0.002 A 
HETATM   19  C   UNK N   1      27.095  20.657   4.950  0.00  0.00     0.001 A 
HETATM   20  C   UNK N   1      25.758  20.482   4.608  0.00  0.00     0.015 A 
ENDBRANCH   8  14
BRANCH   9  21
HETATM   21  C   UNK N   1      21.782  15.909   6.983  0.00  0.00     0.042 C 
HETATM   22  C   UNK N   1      20.759  16.323   8.027  0.00  0.00     0.010 C 
ENDBRANCH   9  21
TORSDOF 2
ENDMDL
MODEL 2
REMARK VINA RESULT:      -6.8      8.829     11.643
REMARK  2 active torsions:
REMARK  status: ('A' for Active; 'I' for Inactive)
REMARK    1  A    between atoms: C_9  and  C_15 
REMARK    2  A    between atoms: C_10  and  C_12 
ROOT
HETATM    1  S   UNK N   1      34.682  15.214   5.329  0.00  0.00    -0.076 SA
HETATM    2  O   UNK N   1      35.550  15.116  10.193  0.00  0.00    -0.271 OA
HETATM    3  N   UNK N   1      34.975  15.041   8.029  0.00  0.00    -0.314 N 
HETATM    4  N   UNK N   1      33.054  17.142   9.198  0.00  0.00    -0.380 N 
ATOM      5  HN  UNK N   1      32.484  17.368  10.013  1.00  0.00     0.160 HD
HETATM    6  C   UNK N   1      33.186  16.488   6.862  0.00  0.00     0.026 A 
HETATM    7  C   UNK N   1      34.313  15.610   6.899  0.00  0.00     0.091 A 
HETATM    8  C   UNK N   1      32.422  16.991   8.075  0.00  0.00     0.053 C 
HETATM    9  C   UNK N   1      33.546  16.120   4.550  0.00  0.00    -0.015 A 
HETATM   10  C   UNK N   1      32.797  16.776   5.526  0.00  0.00     0.031 A 
HETATM   11  C   UNK N   1      34.468  17.023   9.416  0.00  0.00     0.223 C 
HETATM   12  C   UNK N   1      34.992  15.645   9.245  0.00  0.00     0.242 C 
HETATM   13  C   UNK N   1      35.719  13.810   7.851  0.00  0.00     0.160 C 
ENDROOT
BRANCH   8  14
HETATM   14  C   UNK N   1      30.937  17.403   8.124  0.00  0.00     0.013 A 
HETATM   15  C   UNK N   1      29.803  16.952   7.345  0.00  0.00     0.046 A 
HETATM   16 Cl   UNK N   1      29.766  15.729   6.095  0.00  0.00    -0.083 Cl
HETATM   17  C   UNK N   1      28.533  17.496   7.588  0.00  0.00     0.025 A 
HETATM   18  C   UNK N   1      28.319  18.454   8.568  0.00  0.00     0.002 A 
HETATM   19  C   UNK N   1      29.381  18.888   9.340  0.00  0.00     0.001 A 
HETATM   20  C   UNK N   1      30.654  18.375   9.116  0.00  0.00     0.015 A 
ENDBRANCH   8  14
BRANCH   9  21
HETATM   21  C   UNK N   1      33.284  16.200   3.077  0.00  0.00     0.042 C 
HETATM   22  C   UNK N   1      32.029  16.988   2.744  0.00  0.00     0.010 C 
ENDBRANCH   9  21
TORSDOF 2
ENDMDL
MODEL 3
REMARK VINA RESULT:      -6.8      4.208      7.162
REMARK  2 active torsions:
REMARK  status: ('A' for Active; 'I' for Inactive)
REMARK    1  A    between atoms: C_9  and  C_15 
REMARK    2  A    between atoms: C_10  and  C_12 
ROOT
HETATM    1  S   UNK N   1      22.347  15.222   4.379  0.00  0.00    -0.076 SA
HETATM    2  O   UNK N   1      20.791  18.783   7.431  0.00  0.00    -0.271 OA
HETATM    3  N   UNK N   1      21.682  17.161   6.167  0.00  0.00    -0.314 N 
HETATM    4  N   UNK N   1      20.781  15.667   8.702  0.00  0.00    -0.380 N 
ATOM      5  HN  UNK N   1      20.720  15.738   9.718  1.00  0.00     0.160 HD
HETATM    6  C   UNK N   1      21.787  14.648   6.739  0.00  0.00     0.026 A 
HETATM    7  C   UNK N   1      21.860  15.777   5.866  0.00  0.00     0.091 A 
HETATM    8  C   UNK N   1      21.517  14.706   8.233  0.00  0.00     0.053 C 
HETATM    9  C   UNK N   1      22.433  13.609   4.711  0.00  0.00    -0.015 A 
HETATM   10  C   UNK N   1      22.089  13.442   6.052  0.00  0.00     0.031 A 
HETATM   11  C   UNK N   1      20.046  16.640   7.945  0.00  0.00     0.223 C 
HETATM   12  C   UNK N   1      20.900  17.591   7.191  0.00  0.00     0.242 C 
HETATM   13  C   UNK N   1      22.300  18.146   5.302  0.00  0.00     0.160 C 
ENDROOT
BRANCH   8  14
HETATM   14  C   UNK N   1      21.994  13.696   9.297  0.00  0.00     0.013 A 
HETATM   15  C   UNK N   1      23.306  13.144   9.557  0.00  0.00     0.046 A 
HETATM   16 Cl   UNK N   1      24.811  13.500   8.739  0.00  0.00    -0.083 Cl
HETATM   17  C   UNK N   1      23.478  12.225  10.602  0.00  0.00     0.025 A 
HETATM   18  C   UNK N   1      22.424  11.829  11.414  0.00  0.00     0.002 A 
HETATM   19  C   UNK N   1      21.164  12.356  11.200  0.00  0.00     0.001 A 
HETATM   20  C   UNK N   1      20.961  13.263  10.165  0.00  0.00     0.015 A 
ENDBRANCH   8  14
BRANCH   9  21
HETATM   21  C   UNK N   1      22.864  12.503   3.797  0.00  0.00     0.042 C 
HETATM   22  C   UNK N   1      24.280  12.028   4.074  0.00  0.00     0.010 C 
ENDBRANCH   9  21
TORSDOF 2
ENDMDL
MODEL 4
REMARK VINA RESULT:      -6.6     11.467     12.849
REMARK  2 active torsions:
REMARK  status: ('A' for Active; 'I' for Inactive)
REMARK    1  A    between atoms: C_9  and  C_15 
REMARK    2  A    between atoms: C_10  and  C_12 
ROOT
HETATM    1  S   UNK N   1      29.496  21.423  -7.286  0.00  0.00    -0.076 SA
HETATM    2  O   UNK N   1      25.300  21.417  -9.895  0.00  0.00    -0.271 OA
HETATM    3  N   UNK N   1      27.229  21.630  -8.776  0.00  0.00    -0.314 N 
HETATM    4  N   UNK N   1      25.210  23.119  -6.993  0.00  0.00    -0.380 N 
ATOM      5  HN  UNK N   1      24.399  23.739  -7.013  1.00  0.00     0.160 HD
HETATM    6  C   UNK N   1      27.561  22.777  -6.489  0.00  0.00     0.026 A 
HETATM    7  C   UNK N   1      27.942  21.931  -7.576  0.00  0.00     0.091 A 
HETATM    8  C   UNK N   1      26.272  23.576  -6.405  0.00  0.00     0.053 C 
HETATM    9  C   UNK N   1      29.747  22.148  -5.827  0.00  0.00    -0.015 A 
HETATM   10  C   UNK N   1      28.588  22.856  -5.510  0.00  0.00     0.031 A 
HETATM   11  C   UNK N   1      25.053  21.837  -7.620  0.00  0.00     0.223 C 
HETATM   12  C   UNK N   1      25.873  21.659  -8.845  0.00  0.00     0.242 C 
HETATM   13  C   UNK N   1      27.977  21.204  -9.941  0.00  0.00     0.160 C 
ENDROOT
BRANCH   8  14
HETATM   14  C   UNK N   1      26.053  24.895  -5.637  0.00  0.00     0.013 A 
HETATM   15  C   UNK N   1      26.317  25.243  -4.257  0.00  0.00     0.046 A 
HETATM   16 Cl   UNK N   1      27.028  24.247  -3.007  0.00  0.00    -0.083 Cl
HETATM   17  C   UNK N   1      26.019  26.534  -3.796  0.00  0.00     0.025 A 
HETATM   18  C   UNK N   1      25.487  27.507  -4.630  0.00  0.00     0.002 A 
HETATM   19  C   UNK N   1      25.244  27.208  -5.958  0.00  0.00     0.001 A 
HETATM   20  C   UNK N   1      25.519  25.933  -6.441  0.00  0.00     0.015 A 
ENDBRANCH   8  14
BRANCH   9  21
HETATM   21  C   UNK N   1      30.993  22.136  -4.996  0.00  0.00     0.042 C 
HETATM   22  C   UNK N   1      30.851  21.305  -3.733  0.00  0.00     0.010 C 
ENDBRANCH   9  21
TORSDOF 2
ENDMDL
MODEL 5
REMARK VINA RESULT:      -6.6      5.107      6.888
REMARK  2 active torsions:
REMARK  status: ('A' for Active; 'I' for Inactive)
REMARK    1  A    between atoms: C_9  and  C_15 
REMARK    2  A    between atoms: C_10  and  C_12 
ROOT
HETATM    1  S   UNK N   1      26.164  18.483   3.856  0.00  0.00    -0.076 SA
HETATM    2  O   UNK N   1      28.206  14.361   2.051  0.00  0.00    -0.271 OA
HETATM    3  N   UNK N   1      27.276  16.129   3.066  0.00  0.00    -0.314 N 
HETATM    4  N   UNK N   1      30.222  16.278   3.946  0.00  0.00    -0.380 N 
ATOM      5  HN  UNK N   1      31.022  15.713   4.231  1.00  0.00     0.160 HD
HETATM    6  C   UNK N   1      28.489  17.880   4.522  0.00  0.00     0.026 A 
HETATM    7  C   UNK N   1      27.400  17.381   3.742  0.00  0.00     0.091 A 
HETATM    8  C   UNK N   1      29.777  17.132   4.816  0.00  0.00     0.053 C 
HETATM    9  C   UNK N   1      26.905  19.621   4.792  0.00  0.00    -0.015 A 
HETATM   10  C   UNK N   1      28.188  19.153   5.076  0.00  0.00     0.031 A 
HETATM   11  C   UNK N   1      29.707  16.042   2.626  0.00  0.00     0.223 C 
HETATM   12  C   UNK N   1      28.351  15.439   2.605  0.00  0.00     0.242 C 
HETATM   13  C   UNK N   1      25.949  15.613   2.797  0.00  0.00     0.160 C 
ENDROOT
BRANCH   8  14
HETATM   14  C   UNK N   1      30.681  17.302   6.054  0.00  0.00     0.013 A 
HETATM   15  C   UNK N   1      30.350  17.436   7.457  0.00  0.00     0.046 A 
HETATM   16 Cl   UNK N   1      28.768  17.403   8.203  0.00  0.00    -0.083 Cl
HETATM   17  C   UNK N   1      31.376  17.583   8.402  0.00  0.00     0.025 A 
HETATM   18  C   UNK N   1      32.715  17.593   8.038  0.00  0.00     0.002 A 
HETATM   19  C   UNK N   1      33.060  17.446   6.707  0.00  0.00     0.001 A 
HETATM   20  C   UNK N   1      32.065  17.308   5.746  0.00  0.00     0.015 A 
ENDBRANCH   8  14
BRANCH   9  21
HETATM   21  C   UNK N   1      26.325  20.896   5.322  0.00  0.00     0.042 C 
HETATM   22  C   UNK N   1      27.141  21.486   6.459  0.00  0.00     0.010 C 
ENDBRANCH   9  21
TORSDOF 2
ENDMDL
MODEL 6
REMARK VINA RESULT:      -6.5      6.486      8.809
REMARK  2 active torsions:
REMARK  status: ('A' for Active; 'I' for Inactive)
REMARK    1  A    between atoms: C_9  and  C_15 
REMARK    2  A    between atoms: C_10  and  C_12 
ROOT
HETATM    1  S   UNK N   1      32.693  15.480   6.595  0.00  0.00    -0.076 SA
HETATM    2  O   UNK N   1      29.499  13.452   3.418  0.00  0.00    -0.271 OA
HETATM    3  N   UNK N   1      30.957  14.545   4.721  0.00  0.00    -0.314 N 
HETATM    4  N   UNK N   1      28.296  15.988   5.275  0.00  0.00    -0.380 N 
ATOM      5  HN  UNK N   1      27.439  16.325   4.836  1.00  0.00     0.160 HD
HETATM    6  C   UNK N   1      30.421  16.474   6.348  0.00  0.00     0.026 A 
HETATM    7  C   UNK N   1      31.232  15.427   5.809  0.00  0.00     0.091 A 
HETATM    8  C   UNK N   1      29.054  16.885   5.828  0.00  0.00     0.053 C 
HETATM    9  C   UNK N   1      32.389  16.716   7.644  0.00  0.00    -0.015 A 
HETATM   10  C   UNK N   1      31.091  17.161   7.395  0.00  0.00     0.031 A 
HETATM   11  C   UNK N   1      28.535  14.574   5.214  0.00  0.00     0.223 C 
HETATM   12  C   UNK N   1      29.694  14.192   4.369  0.00  0.00     0.242 C 
HETATM   13  C   UNK N   1      32.071  13.943   4.016  0.00  0.00     0.160 C 
ENDROOT
BRANCH   8  14
HETATM   14  C   UNK N   1      28.414  18.285   5.921  0.00  0.00     0.013 A 
HETATM   15  C   UNK N   1      27.982  19.053   7.069  0.00  0.00     0.046 A 
HETATM   16 Cl   UNK N   1      28.096  18.628   8.761  0.00  0.00    -0.083 Cl
HETATM   17  C   UNK N   1      27.417  20.324   6.881  0.00  0.00     0.025 A 
HETATM   18  C   UNK N   1      27.269  20.883   5.619  0.00  0.00     0.002 A 
HETATM   19  C   UNK N   1      27.693  20.179   4.508  0.00  0.00     0.001 A 
HETATM   20  C   UNK N   1      28.246  18.912   4.661  0.00  0.00     0.015 A 
ENDBRANCH   8  14
BRANCH   9  21
HETATM   21  C   UNK N   1      33.324  17.326   8.643  0.00  0.00     0.042 C 
HETATM   22  C   UNK N   1      34.304  18.300   8.012  0.00  0.00     0.010 C 
ENDBRANCH   9  21
TORSDOF 2
ENDMDL
MODEL 7
REMARK VINA RESULT:      -6.3      8.468     11.279
REMARK  2 active torsions:
REMARK  status: ('A' for Active; 'I' for Inactive)
REMARK    1  A    between atoms: C_9  and  C_15 
REMARK    2  A    between atoms: C_10  and  C_12 
ROOT
HETATM    1  S   UNK N   1      34.121  13.838   7.234  0.00  0.00    -0.076 SA
HETATM    2  O   UNK N   1      35.604  17.607  10.064  0.00  0.00    -0.271 OA
HETATM    3  N   UNK N   1      34.773  15.862   8.931  0.00  0.00    -0.314 N 
HETATM    4  N   UNK N   1      32.764  18.114   8.332  0.00  0.00    -0.380 N 
ATOM      5  HN  UNK N   1      32.278  18.911   8.744  1.00  0.00     0.160 HD
HETATM    6  C   UNK N   1      32.681  15.863   7.422  0.00  0.00     0.026 A 
HETATM    7  C   UNK N   1      33.907  15.330   7.929  0.00  0.00     0.091 A 
HETATM    8  C   UNK N   1      32.019  17.148   7.890  0.00  0.00     0.053 C 
HETATM    9  C   UNK N   1      32.788  13.800   6.263  0.00  0.00    -0.015 A 
HETATM   10  C   UNK N   1      32.092  14.990   6.468  0.00  0.00     0.031 A 
HETATM   11  C   UNK N   1      34.198  18.182   8.302  0.00  0.00     0.223 C 
HETATM   12  C   UNK N   1      34.868  17.193   9.183  0.00  0.00     0.242 C 
HETATM   13  C   UNK N   1      35.639  14.953   9.654  0.00  0.00     0.160 C 
ENDROOT
BRANCH   8  14
HETATM   14  C   UNK N   1      30.512  17.472   7.863  0.00  0.00     0.013 A 
HETATM   15  C   UNK N   1      29.599  17.639   6.752  0.00  0.00     0.046 A 
HETATM   16 Cl   UNK N   1      29.934  17.476   5.043  0.00  0.00    -0.083 Cl
HETATM   17  C   UNK N   1      28.251  17.940   6.999  0.00  0.00     0.025 A 
HETATM   18  C   UNK N   1      27.752  18.072   8.287  0.00  0.00     0.002 A 
HETATM   19  C   UNK N   1      28.597  17.897   9.367  0.00  0.00     0.001 A 
HETATM   20  C   UNK N   1      29.941  17.609   9.153  0.00  0.00     0.015 A 
ENDBRANCH   8  14
BRANCH   9  21
HETATM   21  C   UNK N   1      32.334  12.689   5.367  0.00  0.00     0.042 C 
HETATM   22  C   UNK N   1      31.033  13.006   4.650  0.00  0.00     0.010 C 
ENDBRANCH   9  21
TORSDOF 2
ENDMDL
MODEL 8
REMARK VINA RESULT:      -6.3     15.711     17.990
REMARK  2 active torsions:
REMARK  status: ('A' for Active; 'I' for Inactive)
REMARK    1  A    between atoms: C_9  and  C_15 
REMARK    2  A    between atoms: C_10  and  C_12 
ROOT
HETATM    1  S   UNK N   1      35.153  12.545  10.936  0.00  0.00    -0.076 SA
HETATM    2  O   UNK N   1      37.311   8.592  12.968  0.00  0.00    -0.271 OA
HETATM    3  N   UNK N   1      36.168  10.355  12.191  0.00  0.00    -0.314 N 
HETATM    4  N   UNK N   1      37.387  11.405  14.814  0.00  0.00    -0.380 N 
ATOM      5  HN  UNK N   1      37.608  11.148  15.776  1.00  0.00     0.160 HD
HETATM    6  C   UNK N   1      36.048  12.702  13.257  0.00  0.00     0.026 A 
HETATM    7  C   UNK N   1      35.888  11.755  12.197  0.00  0.00     0.091 A 
HETATM    8  C   UNK N   1      36.548  12.382  14.654  0.00  0.00     0.053 C 
HETATM    9  C   UNK N   1      35.052  14.056  11.588  0.00  0.00    -0.015 A 
HETATM   10  C   UNK N   1      35.592  13.991  12.872  0.00  0.00     0.031 A 
HETATM   11  C   UNK N   1      38.037  10.647  13.782  0.00  0.00     0.223 C 
HETATM   12  C   UNK N   1      37.116   9.797  12.986  0.00  0.00     0.242 C 
HETATM   13  C   UNK N   1      35.466   9.510  11.246  0.00  0.00     0.160 C 
ENDROOT
BRANCH   8  14
HETATM   14  C   UNK N   1      36.200  13.136  15.954  0.00  0.00     0.013 A 
HETATM   15  C   UNK N   1      36.537  14.474  16.391  0.00  0.00     0.046 A 
HETATM   16 Cl   UNK N   1      37.439  15.700  15.529  0.00  0.00    -0.083 Cl
HETATM   17  C   UNK N   1      36.093  14.929  17.642  0.00  0.00     0.025 A 
HETATM   18  C   UNK N   1      35.321  14.137  18.480  0.00  0.00     0.002 A 
HETATM   19  C   UNK N   1      34.967  12.862  18.078  0.00  0.00     0.001 A 
HETATM   20  C   UNK N   1      35.402  12.379  16.848  0.00  0.00     0.015 A 
ENDBRANCH   8  14
BRANCH   9  21
HETATM   21  C   UNK N   1      34.438  15.281  10.982  0.00  0.00     0.042 C 
HETATM   22  C   UNK N   1      35.390  16.465  10.957  0.00  0.00     0.010 C 
ENDBRANCH   9  21
TORSDOF 2
ENDMDL
MODEL 9
REMARK VINA RESULT:      -6.2      6.010      8.219
REMARK  2 active torsions:
REMARK  status: ('A' for Active; 'I' for Inactive)
REMARK    1  A    between atoms: C_9  and  C_15 
REMARK    2  A    between atoms: C_10  and  C_12 
ROOT
HETATM    1  S   UNK N   1      32.094  15.387   4.479  0.00  0.00    -0.076 SA
HETATM    2  O   UNK N   1      27.781  13.195   3.478  0.00  0.00    -0.271 OA
HETATM    3  N   UNK N   1      29.681  14.343   3.783  0.00  0.00    -0.314 N 
HETATM    4  N   UNK N   1      27.593  16.015   5.306  0.00  0.00    -0.380 N 
ATOM      5  HN  UNK N   1      26.631  16.351   5.275  1.00  0.00     0.160 HD
HETATM    6  C   UNK N   1      29.973  16.489   5.184  0.00  0.00     0.026 A 
HETATM    7  C   UNK N   1      30.435  15.334   4.481  0.00  0.00     0.091 A 
HETATM    8  C   UNK N   1      28.522  16.921   5.310  0.00  0.00     0.053 C 
HETATM    9  C   UNK N   1      32.319  16.761   5.364  0.00  0.00    -0.015 A 
HETATM   10  C   UNK N   1      31.057  17.255   5.690  0.00  0.00     0.031 A 
HETATM   11  C   UNK N   1      27.776  14.591   5.339  0.00  0.00     0.223 C 
HETATM   12  C   UNK N   1      28.400  14.033   4.113  0.00  0.00     0.242 C 
HETATM   13  C   UNK N   1      30.331  13.587   2.731  0.00  0.00     0.160 C 
ENDROOT
BRANCH   8  14
HETATM   14  C   UNK N   1      28.001  18.361   5.494  0.00  0.00     0.013 A 
HETATM   15  C   UNK N   1      27.852  19.169   6.686  0.00  0.00     0.046 A 
HETATM   16 Cl   UNK N   1      28.272  18.755   8.333  0.00  0.00    -0.083 Cl
HETATM   17  C   UNK N   1      27.341  20.471   6.583  0.00  0.00     0.025 A 
HETATM   18  C   UNK N   1      26.981  21.025   5.363  0.00  0.00     0.002 A 
HETATM   19  C   UNK N   1      27.132  20.283   4.206  0.00  0.00     0.001 A 
HETATM   20  C   UNK N   1      27.626  18.984   4.278  0.00  0.00     0.015 A 
ENDBRANCH   8  14
BRANCH   9  21
HETATM   21  C   UNK N   1      33.614  17.427   5.715  0.00  0.00     0.042 C 
HETATM   22  C   UNK N   1      33.749  17.704   7.203  0.00  0.00     0.010 C 
ENDBRANCH   9  21
TORSDOF 2
ENDMDL
