MODEL 1
REMARK VINA RESULT:      -5.2      0.000      0.000
REMARK  3 active torsions:
REMARK  status: ('A' for Active; 'I' for Inactive)
REMARK    1  A    between atoms: C_3  and  N_2 
REMARK    2  A    between atoms: C_3  and  C_4 
REMARK    3  A    between atoms: C_4  and  C_5 
ROOT
HETATM    1  O   UNK N   1      34.360  13.064  15.133  0.00  0.00    -0.290 OA
HETATM    2  C   UNK N   1      35.373  13.142  15.817  0.00  0.00     0.181 C 
ENDROOT
BRANCH   2   3
HETATM    3  C   UNK N   1      36.601  13.793  15.215  0.00  0.00     0.145 C 
HETATM    4  C   UNK N   1      37.238  15.092  15.677  0.00  0.00     0.040 C 
BRANCH   3   5
HETATM    5  N   UNK N   1      37.240  13.126  14.094  0.00  0.00    -0.420 N 
HETATM    6  H   UNK N   1      38.237  12.917  14.126  0.00  0.00     0.150 HD
HETATM    7  H   UNK N   1      36.691  12.868  13.274  0.00  0.00     0.150 HD
ENDBRANCH   3   5
ENDBRANCH   2   3
BRANCH   2   8
HETATM    8  C   UNK N   1      35.353  12.595  17.202  0.00  0.00     0.012 A 
HETATM    9  C   UNK N   1      35.155  13.433  18.308  0.00  0.00     0.015 A 
HETATM   10  C   UNK N   1      35.137  12.915  19.604  0.00  0.00     0.001 A 
HETATM   11  C   UNK N   1      35.318  11.546  19.809  0.00  0.00     0.000 A 
HETATM   12  C   UNK N   1      35.516  10.698  18.717  0.00  0.00     0.001 A 
HETATM   13  C   UNK N   1      35.534  11.219  17.418  0.00  0.00     0.015 A 
ENDBRANCH   2   8
TORSDOF 3
ENDMDL
MODEL 2
REMARK VINA RESULT:      -5.2      0.099      1.460
REMARK  3 active torsions:
REMARK  status: ('A' for Active; 'I' for Inactive)
REMARK    1  A    between atoms: C_3  and  N_2 
REMARK    2  A    between atoms: C_3  and  C_4 
REMARK    3  A    between atoms: C_4  and  C_5 
ROOT
HETATM    1  O   UNK N   1      34.355  13.028  15.087  0.00  0.00    -0.290 OA
HETATM    2  C   UNK N   1      35.373  13.116  15.761  0.00  0.00     0.181 C 
ENDROOT
BRANCH   2   3
HETATM    3  C   UNK N   1      36.580  13.805  15.160  0.00  0.00     0.145 C 
HETATM    4  C   UNK N   1      37.236  15.071  15.682  0.00  0.00     0.040 C 
BRANCH   3   5
HETATM    5  N   UNK N   1      37.176  13.213  13.975  0.00  0.00    -0.420 N 
HETATM    6  H   UNK N   1      36.647  13.170  13.105  0.00  0.00     0.150 HD
HETATM    7  H   UNK N   1      38.124  12.839  14.013  0.00  0.00     0.150 HD
ENDBRANCH   3   5
ENDBRANCH   2   3
BRANCH   2   8
HETATM    8  C   UNK N   1      35.379  12.544  17.136  0.00  0.00     0.012 A 
HETATM    9  C   UNK N   1      35.617  11.179  17.352  0.00  0.00     0.015 A 
HETATM   10  C   UNK N   1      35.621  10.649  18.643  0.00  0.00     0.001 A 
HETATM   11  C   UNK N   1      35.386  11.481  19.738  0.00  0.00     0.000 A 
HETATM   12  C   UNK N   1      35.148  12.844  19.540  0.00  0.00     0.001 A 
HETATM   13  C   UNK N   1      35.143  13.374  18.245  0.00  0.00     0.015 A 
ENDBRANCH   2   8
TORSDOF 3
ENDMDL
MODEL 3
REMARK VINA RESULT:      -4.7      2.225      3.483
REMARK  3 active torsions:
REMARK  status: ('A' for Active; 'I' for Inactive)
REMARK    1  A    between atoms: C_3  and  N_2 
REMARK    2  A    between atoms: C_3  and  C_4 
REMARK    3  A    between atoms: C_4  and  C_5 
ROOT
HETATM    1  O   UNK N   1      37.202  11.789  14.487  0.00  0.00    -0.290 OA
HETATM    2  C   UNK N   1      36.176  12.392  14.776  0.00  0.00     0.181 C 
ENDROOT
BRANCH   2   3
HETATM    3  C   UNK N   1      34.893  12.013  14.068  0.00  0.00     0.145 C 
HETATM    4  C   UNK N   1      33.860  11.018  14.567  0.00  0.00     0.040 C 
BRANCH   3   5
HETATM    5  N   UNK N   1      34.608  12.651  12.794  0.00  0.00    -0.420 N 
HETATM    6  H   UNK N   1      34.966  12.245  11.930  0.00  0.00     0.150 HD
HETATM    7  H   UNK N   1      34.051  13.504  12.764  0.00  0.00     0.150 HD
ENDBRANCH   3   5
ENDBRANCH   2   3
BRANCH   2   8
HETATM    8  C   UNK N   1      36.237  13.467  15.806  0.00  0.00     0.012 A 
HETATM    9  C   UNK N   1      37.087  14.571  15.651  0.00  0.00     0.015 A 
HETATM   10  C   UNK N   1      37.139  15.574  16.619  0.00  0.00     0.001 A 
HETATM   11  C   UNK N   1      36.338  15.485  17.758  0.00  0.00     0.000 A 
HETATM   12  C   UNK N   1      35.485  14.392  17.927  0.00  0.00     0.001 A 
HETATM   13  C   UNK N   1      35.434  13.386  16.955  0.00  0.00     0.015 A 
ENDBRANCH   2   8
TORSDOF 3
ENDMDL
MODEL 4
REMARK VINA RESULT:      -4.6      9.331     11.238
REMARK  3 active torsions:
REMARK  status: ('A' for Active; 'I' for Inactive)
REMARK    1  A    between atoms: C_3  and  N_2 
REMARK    2  A    between atoms: C_3  and  C_4 
REMARK    3  A    between atoms: C_4  and  C_5 
ROOT
HETATM    1  O   UNK N   1      34.574  18.067   6.997  0.00  0.00    -0.290 OA
HETATM    2  C   UNK N   1      33.859  17.407   7.742  0.00  0.00     0.181 C 
ENDROOT
BRANCH   2   3
HETATM    3  C   UNK N   1      34.517  16.582   8.828  0.00  0.00     0.145 C 
HETATM    4  C   UNK N   1      34.955  15.133   8.705  0.00  0.00     0.040 C 
BRANCH   3   5
HETATM    5  N   UNK N   1      34.758  17.220  10.110  0.00  0.00    -0.420 N 
HETATM    6  H   UNK N   1      35.594  16.987  10.646  0.00  0.00     0.150 HD
HETATM    7  H   UNK N   1      34.092  17.900  10.475  0.00  0.00     0.150 HD
ENDBRANCH   3   5
ENDBRANCH   2   3
BRANCH   2   8
HETATM    8  C   UNK N   1      32.384  17.446   7.548  0.00  0.00     0.012 A 
HETATM    9  C   UNK N   1      31.800  17.032   6.342  0.00  0.00     0.015 A 
HETATM   10  C   UNK N   1      30.417  17.070   6.166  0.00  0.00     0.001 A 
HETATM   11  C   UNK N   1      29.596  17.526   7.198  0.00  0.00     0.000 A 
HETATM   12  C   UNK N   1      30.162  17.943   8.406  0.00  0.00     0.001 A 
HETATM   13  C   UNK N   1      31.549  17.904   8.581  0.00  0.00     0.015 A 
ENDBRANCH   2   8
TORSDOF 3
ENDMDL
MODEL 5
REMARK VINA RESULT:      -4.5     14.577     15.719
REMARK  3 active torsions:
REMARK  status: ('A' for Active; 'I' for Inactive)
REMARK    1  A    between atoms: C_3  and  N_2 
REMARK    2  A    between atoms: C_3  and  C_4 
REMARK    3  A    between atoms: C_4  and  C_5 
ROOT
HETATM    1  O   UNK N   1      23.199  11.137   9.044  0.00  0.00    -0.290 OA
HETATM    2  C   UNK N   1      23.023  12.106   9.771  0.00  0.00     0.181 C 
ENDROOT
BRANCH   2   3
HETATM    3  C   UNK N   1      23.756  12.157  11.095  0.00  0.00     0.145 C 
HETATM    4  C   UNK N   1      23.158  11.854  12.457  0.00  0.00     0.040 C 
BRANCH   3   5
HETATM    5  N   UNK N   1      25.160  12.528  11.077  0.00  0.00    -0.420 N 
HETATM    6  H   UNK N   1      25.593  12.842  10.209  0.00  0.00     0.150 HD
HETATM    7  H   UNK N   1      25.713  12.474  11.932  0.00  0.00     0.150 HD
ENDBRANCH   3   5
ENDBRANCH   2   3
BRANCH   2   8
HETATM    8  C   UNK N   1      22.100  13.186   9.324  0.00  0.00     0.012 A 
HETATM    9  C   UNK N   1      20.921  13.470  10.028  0.00  0.00     0.015 A 
HETATM   10  C   UNK N   1      20.061  14.483   9.603  0.00  0.00     0.001 A 
HETATM   11  C   UNK N   1      20.371  15.228   8.465  0.00  0.00     0.000 A 
HETATM   12  C   UNK N   1      21.542  14.958   7.752  0.00  0.00     0.001 A 
HETATM   13  C   UNK N   1      22.404  13.942   8.179  0.00  0.00     0.015 A 
ENDBRANCH   2   8
TORSDOF 3
ENDMDL
MODEL 6
REMARK VINA RESULT:      -4.5     13.385     14.969
REMARK  3 active torsions:
REMARK  status: ('A' for Active; 'I' for Inactive)
REMARK    1  A    between atoms: C_3  and  N_2 
REMARK    2  A    between atoms: C_3  and  C_4 
REMARK    3  A    between atoms: C_4  and  C_5 
ROOT
HETATM    1  O   UNK N   1      29.287  17.028   6.563  0.00  0.00    -0.290 OA
HETATM    2  C   UNK N   1      28.764  18.046   6.996  0.00  0.00     0.181 C 
ENDROOT
BRANCH   2   3
HETATM    3  C   UNK N   1      28.872  18.338   8.478  0.00  0.00     0.145 C 
HETATM    4  C   UNK N   1      30.133  18.750   9.217  0.00  0.00     0.040 C 
BRANCH   3   5
HETATM    5  N   UNK N   1      27.667  18.217   9.281  0.00  0.00    -0.420 N 
HETATM    6  H   UNK N   1      27.733  17.935  10.259  0.00  0.00     0.150 HD
HETATM    7  H   UNK N   1      26.756  18.413   8.867  0.00  0.00     0.150 HD
ENDBRANCH   3   5
ENDBRANCH   2   3
BRANCH   2   8
HETATM    8  C   UNK N   1      28.048  18.948   6.052  0.00  0.00     0.012 A 
HETATM    9  C   UNK N   1      27.567  20.198   6.468  0.00  0.00     0.015 A 
HETATM   10  C   UNK N   1      26.897  21.039   5.579  0.00  0.00     0.001 A 
HETATM   11  C   UNK N   1      26.700  20.638   4.257  0.00  0.00     0.000 A 
HETATM   12  C   UNK N   1      27.173  19.397   3.826  0.00  0.00     0.001 A 
HETATM   13  C   UNK N   1      27.845  18.554   4.719  0.00  0.00     0.015 A 
ENDBRANCH   2   8
TORSDOF 3
ENDMDL
MODEL 7
REMARK VINA RESULT:      -4.3      1.797      2.260
REMARK  3 active torsions:
REMARK  status: ('A' for Active; 'I' for Inactive)
REMARK    1  A    between atoms: C_3  and  N_2 
REMARK    2  A    between atoms: C_3  and  C_4 
REMARK    3  A    between atoms: C_4  and  C_5 
ROOT
HETATM    1  O   UNK N   1      34.889  10.798  14.808  0.00  0.00    -0.290 OA
HETATM    2  C   UNK N   1      35.845  11.195  15.462  0.00  0.00     0.181 C 
ENDROOT
BRANCH   2   3
HETATM    3  C   UNK N   1      37.229  11.079  14.858  0.00  0.00     0.145 C 
HETATM    4  C   UNK N   1      38.078   9.821  14.810  0.00  0.00     0.040 C 
BRANCH   3   5
HETATM    5  N   UNK N   1      37.812  12.271  14.267  0.00  0.00    -0.420 N 
HETATM    6  H   UNK N   1      37.315  13.160  14.319  0.00  0.00     0.150 HD
HETATM    7  H   UNK N   1      38.717  12.219  13.801  0.00  0.00     0.150 HD
ENDBRANCH   3   5
ENDBRANCH   2   3
BRANCH   2   8
HETATM    8  C   UNK N   1      35.606  11.771  16.814  0.00  0.00     0.012 A 
HETATM    9  C   UNK N   1      35.318  13.133  16.980  0.00  0.00     0.015 A 
HETATM   10  C   UNK N   1      35.095  13.667  18.250  0.00  0.00     0.001 A 
HETATM   11  C   UNK N   1      35.158  12.842  19.373  0.00  0.00     0.000 A 
HETATM   12  C   UNK N   1      35.443  11.482  19.224  0.00  0.00     0.001 A 
HETATM   13  C   UNK N   1      35.667  10.948  17.950  0.00  0.00     0.015 A 
ENDBRANCH   2   8
TORSDOF 3
ENDMDL
MODEL 8
REMARK VINA RESULT:      -4.3     25.855     26.764
REMARK  3 active torsions:
REMARK  status: ('A' for Active; 'I' for Inactive)
REMARK    1  A    between atoms: C_3  and  N_2 
REMARK    2  A    between atoms: C_3  and  C_4 
REMARK    3  A    between atoms: C_4  and  C_5 
ROOT
HETATM    1  O   UNK N   1      26.665  24.512  -2.677  0.00  0.00    -0.290 OA
HETATM    2  C   UNK N   1      26.595  24.985  -3.805  0.00  0.00     0.181 C 
ENDROOT
BRANCH   2   3
HETATM    3  C   UNK N   1      26.277  26.458  -3.952  0.00  0.00     0.145 C 
HETATM    4  C   UNK N   1      26.155  27.218  -5.260  0.00  0.00     0.040 C 
BRANCH   3   5
HETATM    5  N   UNK N   1      26.068  27.229  -2.738  0.00  0.00    -0.420 N 
HETATM    6  H   UNK N   1      26.732  27.957  -2.476  0.00  0.00     0.150 HD
HETATM    7  H   UNK N   1      25.256  27.043  -2.149  0.00  0.00     0.150 HD
ENDBRANCH   3   5
ENDBRANCH   2   3
BRANCH   2   8
HETATM    8  C   UNK N   1      26.825  24.094  -4.976  0.00  0.00     0.012 A 
HETATM    9  C   UNK N   1      25.753  23.597  -5.730  0.00  0.00     0.015 A 
HETATM   10  C   UNK N   1      25.974  22.763  -6.826  0.00  0.00     0.001 A 
HETATM   11  C   UNK N   1      27.277  22.414  -7.183  0.00  0.00     0.000 A 
HETATM   12  C   UNK N   1      28.357  22.901  -6.442  0.00  0.00     0.001 A 
HETATM   13  C   UNK N   1      28.133  23.737  -5.343  0.00  0.00     0.015 A 
ENDBRANCH   2   8
TORSDOF 3
ENDMDL
MODEL 9
REMARK VINA RESULT:      -4.3     17.460     18.922
REMARK  3 active torsions:
REMARK  status: ('A' for Active; 'I' for Inactive)
REMARK    1  A    between atoms: C_3  and  N_2 
REMARK    2  A    between atoms: C_3  and  C_4 
REMARK    3  A    between atoms: C_4  and  C_5 
ROOT
HETATM    1  O   UNK N   1      43.744  23.846   4.234  0.00  0.00    -0.290 OA
HETATM    2  C   UNK N   1      43.718  23.249   3.166  0.00  0.00     0.181 C 
ENDROOT
BRANCH   2   3
HETATM    3  C   UNK N   1      44.807  23.535   2.153  0.00  0.00     0.145 C 
HETATM    4  C   UNK N   1      44.850  23.029   0.722  0.00  0.00     0.040 C 
BRANCH   3   5
HETATM    5  N   UNK N   1      45.920  24.369   2.574  0.00  0.00    -0.420 N 
HETATM    6  H   UNK N   1      45.743  25.255   3.046  0.00  0.00     0.150 HD
HETATM    7  H   UNK N   1      46.878  24.069   2.396  0.00  0.00     0.150 HD
ENDBRANCH   3   5
ENDBRANCH   2   3
BRANCH   2   8
HETATM    8  C   UNK N   1      42.624  22.272   2.911  0.00  0.00     0.012 A 
HETATM    9  C   UNK N   1      41.504  22.622   2.143  0.00  0.00     0.015 A 
HETATM   10  C   UNK N   1      40.482  21.703   1.908  0.00  0.00     0.001 A 
HETATM   11  C   UNK N   1      40.567  20.416   2.439  0.00  0.00     0.000 A 
HETATM   12  C   UNK N   1      41.676  20.050   3.206  0.00  0.00     0.001 A 
HETATM   13  C   UNK N   1      42.701  20.974   3.442  0.00  0.00     0.015 A 
ENDBRANCH   2   8
TORSDOF 3
ENDMDL
