MODEL 1
REMARK VINA RESULT:      -7.3      0.000      0.000
REMARK  0 active torsions:
REMARK  status: ('A' for Active; 'I' for Inactive)
ROOT
HETATM    1  O   UNK N   1      33.795  15.454   2.094  0.00  0.00    -0.297 OA
HETATM    2  O   UNK N   1      35.442  15.015  12.491  0.00  0.00    -0.298 OA
HETATM    3  C   UNK N   1      34.912  15.596   7.051  0.00  0.00    -0.002 C 
HETATM    4  C   UNK N   1      33.681  16.487   6.714  0.00  0.00    -0.004 C 
HETATM    5  C   UNK N   1      34.881  15.235   8.568  0.00  0.00    -0.036 C 
HETATM    6  C   UNK N   1      33.596  16.688   5.194  0.00  0.00     0.006 C 
HETATM    7  C   UNK N   1      33.528  15.351   4.458  0.00  0.00     0.021 C 
HETATM    8  C   UNK N   1      34.541  16.494   9.463  0.00  0.00     0.001 C 
HETATM    9  C   UNK N   1      35.003  14.316   6.176  0.00  0.00     0.007 C 
HETATM   10  C   UNK N   1      33.808  17.848   7.432  0.00  0.00     0.006 C 
HETATM   11  C   UNK N   1      34.841  14.604   4.675  0.00  0.00     0.018 C 
HETATM   12  C   UNK N   1      34.689  17.810   8.696  0.00  0.00     0.006 C 
HETATM   13  C   UNK N   1      32.404  17.464   4.627  0.00  0.00     0.013 C 
HETATM   14  C   UNK N   1      36.236  14.609   8.967  0.00  0.00     0.017 C 
HETATM   15  C   UNK N   1      33.228  15.855   3.098  0.00  0.00     0.135 C 
HETATM   16  C   UNK N   1      33.791  14.177   8.816  0.00  0.00     0.016 C 
HETATM   17  C   UNK N   1      35.397  16.591  10.734  0.00  0.00     0.083 C 
HETATM   18  C   UNK N   1      32.453  17.134   3.124  0.00  0.00     0.079 C 
HETATM   19  C   UNK N   1      32.341  14.482   4.897  0.00  0.00     0.024 C 
HETATM   20  C   UNK N   1      36.231  14.159  10.435  0.00  0.00     0.079 C 
HETATM   21  C   UNK N   1      35.674  15.240  11.315  0.00  0.00     0.127 C 
ENDROOT
TORSDOF 0
ENDMDL
MODEL 2
REMARK VINA RESULT:      -7.2     12.386     14.540
REMARK  0 active torsions:
REMARK  status: ('A' for Active; 'I' for Inactive)
ROOT
HETATM    1  O   UNK N   1      26.704  24.420  -2.596  0.00  0.00    -0.297 OA
HETATM    2  O   UNK N   1      35.848  20.178  -5.661  0.00  0.00    -0.298 OA
HETATM    3  C   UNK N   1      30.900  21.943  -4.043  0.00  0.00    -0.002 C 
HETATM    4  C   UNK N   1      30.063  22.418  -5.267  0.00  0.00    -0.004 C 
HETATM    5  C   UNK N   1      32.373  21.701  -4.496  0.00  0.00    -0.036 C 
HETATM    6  C   UNK N   1      28.665  22.842  -4.795  0.00  0.00     0.006 C 
HETATM    7  C   UNK N   1      28.743  23.928  -3.725  0.00  0.00     0.021 C 
HETATM    8  C   UNK N   1      32.444  20.911  -5.865  0.00  0.00     0.001 C 
HETATM    9  C   UNK N   1      30.841  22.921  -2.840  0.00  0.00     0.007 C 
HETATM   10  C   UNK N   1      29.962  21.280  -6.306  0.00  0.00     0.006 C 
HETATM   11  C   UNK N   1      29.408  23.344  -2.480  0.00  0.00     0.018 C 
HETATM   12  C   UNK N   1      31.110  20.256  -6.228  0.00  0.00     0.006 C 
HETATM   13  C   UNK N   1      27.696  23.431  -5.826  0.00  0.00     0.013 C 
HETATM   14  C   UNK N   1      33.131  20.955  -3.375  0.00  0.00     0.017 C 
HETATM   15  C   UNK N   1      27.305  24.277  -3.649  0.00  0.00     0.135 C 
HETATM   16  C   UNK N   1      33.069  23.058  -4.703  0.00  0.00     0.016 C 
HETATM   17  C   UNK N   1      33.526  19.822  -5.887  0.00  0.00     0.083 C 
HETATM   18  C   UNK N   1      26.601  24.070  -4.952  0.00  0.00     0.079 C 
HETATM   19  C   UNK N   1      29.494  25.182  -4.192  0.00  0.00     0.024 C 
HETATM   20  C   UNK N   1      34.611  20.764  -3.735  0.00  0.00     0.079 C 
HETATM   21  C   UNK N   1      34.750  20.246  -5.137  0.00  0.00     0.127 C 
ENDROOT
TORSDOF 0
ENDMDL
MODEL 3
REMARK VINA RESULT:      -7.1     15.067     17.253
REMARK  0 active torsions:
REMARK  status: ('A' for Active; 'I' for Inactive)
ROOT
HETATM    1  O   UNK N   1      28.921  19.640  -8.233  0.00  0.00    -0.297 OA
HETATM    2  O   UNK N   1      25.631  28.746  -4.079  0.00  0.00    -0.298 OA
HETATM    3  C   UNK N   1      27.134  23.774  -5.875  0.00  0.00    -0.002 C 
HETATM    4  C   UNK N   1      28.599  23.461  -5.453  0.00  0.00    -0.004 C 
HETATM    5  C   UNK N   1      26.829  25.276  -5.586  0.00  0.00    -0.036 C 
HETATM    6  C   UNK N   1      28.969  22.042  -5.909  0.00  0.00     0.006 C 
HETATM    7  C   UNK N   1      28.781  21.873  -7.414  0.00  0.00     0.021 C 
HETATM    8  C   UNK N   1      27.360  25.718  -4.163  0.00  0.00     0.001 C 
HETATM    9  C   UNK N   1      26.831  23.420  -7.356  0.00  0.00     0.007 C 
HETATM   10  C   UNK N   1      28.741  23.591  -3.921  0.00  0.00     0.006 C 
HETATM   11  C   UNK N   1      27.295  22.006  -7.741  0.00  0.00     0.018 C 
HETATM   12  C   UNK N   1      27.700  24.522  -3.271  0.00  0.00     0.006 C 
HETATM   13  C   UNK N   1      30.402  21.552  -5.675  0.00  0.00     0.013 C 
HETATM   14  C   UNK N   1      25.310  25.520  -5.721  0.00  0.00     0.017 C 
HETATM   15  C   UNK N   1      29.414  20.544  -7.575  0.00  0.00     0.135 C 
HETATM   16  C   UNK N   1      27.535  26.148  -6.639  0.00  0.00     0.016 C 
HETATM   17  C   UNK N   1      26.378  26.615  -3.395  0.00  0.00     0.083 C 
HETATM   18  C   UNK N   1      30.497  20.305  -6.572  0.00  0.00     0.079 C 
HETATM   19  C   UNK N   1      29.601  22.874  -8.240  0.00  0.00     0.024 C 
HETATM   20  C   UNK N   1      24.964  27.003  -5.527  0.00  0.00     0.079 C 
HETATM   21  C   UNK N   1      25.654  27.550  -4.312  0.00  0.00     0.127 C 
ENDROOT
TORSDOF 0
ENDMDL
MODEL 4
REMARK VINA RESULT:      -7.0     16.791     18.819
REMARK  0 active torsions:
REMARK  status: ('A' for Active; 'I' for Inactive)
ROOT
HETATM    1  O   UNK N   1      25.671  22.886 -11.188  0.00  0.00    -0.297 OA
HETATM    2  O   UNK N   1      26.973  28.648  -2.464  0.00  0.00    -0.298 OA
HETATM    3  C   UNK N   1      25.932  25.419  -6.788  0.00  0.00    -0.002 C 
HETATM    4  C   UNK N   1      26.907  24.205  -6.811  0.00  0.00    -0.004 C 
HETATM    5  C   UNK N   1      26.417  26.443  -5.717  0.00  0.00    -0.036 C 
HETATM    6  C   UNK N   1      26.551  23.286  -7.989  0.00  0.00     0.006 C 
HETATM    7  C   UNK N   1      26.580  24.042  -9.315  0.00  0.00     0.021 C 
HETATM    8  C   UNK N   1      26.831  25.728  -4.368  0.00  0.00     0.001 C 
HETATM    9  C   UNK N   1      25.764  26.099  -8.173  0.00  0.00     0.007 C 
HETATM   10  C   UNK N   1      26.813  23.434  -5.476  0.00  0.00     0.006 C 
HETATM   11  C   UNK N   1      25.476  25.098  -9.303  0.00  0.00     0.018 C 
HETATM   12  C   UNK N   1      26.321  24.287  -4.292  0.00  0.00     0.006 C 
HETATM   13  C   UNK N   1      27.440  22.068  -8.257  0.00  0.00     0.013 C 
HETATM   14  C   UNK N   1      25.308  27.493  -5.482  0.00  0.00     0.017 C 
HETATM   15  C   UNK N   1      26.436  22.892 -10.236  0.00  0.00     0.135 C 
HETATM   16  C   UNK N   1      27.655  27.186  -6.250  0.00  0.00     0.016 C 
HETATM   17  C   UNK N   1      26.346  26.466  -3.111  0.00  0.00     0.083 C 
HETATM   18  C   UNK N   1      27.026  21.637  -9.676  0.00  0.00     0.079 C 
HETATM   19  C   UNK N   1      27.938  24.695  -9.606  0.00  0.00     0.024 C 
HETATM   20  C   UNK N   1      25.767  28.575  -4.494  0.00  0.00     0.079 C 
HETATM   21  C   UNK N   1      26.406  27.951  -3.288  0.00  0.00     0.127 C 
ENDROOT
TORSDOF 0
ENDMDL
MODEL 5
REMARK VINA RESULT:      -6.9     13.093     16.795
REMARK  0 active torsions:
REMARK  status: ('A' for Active; 'I' for Inactive)
ROOT
HETATM    1  O   UNK N   1      33.018  22.007  -3.958  0.00  0.00    -0.297 OA
HETATM    2  O   UNK N   1      24.060  27.315  -5.562  0.00  0.00    -0.298 OA
HETATM    3  C   UNK N   1      28.862  24.670  -5.173  0.00  0.00    -0.002 C 
HETATM    4  C   UNK N   1      28.673  23.151  -5.455  0.00  0.00    -0.004 C 
HETATM    5  C   UNK N   1      27.461  25.341  -5.030  0.00  0.00    -0.036 C 
HETATM    6  C   UNK N   1      30.038  22.449  -5.406  0.00  0.00     0.006 C 
HETATM    7  C   UNK N   1      30.736  22.679  -4.067  0.00  0.00     0.021 C 
HETATM    8  C   UNK N   1      26.463  24.858  -6.158  0.00  0.00     0.001 C 
HETATM    9  C   UNK N   1      29.747  24.960  -3.931  0.00  0.00     0.007 C 
HETATM   10  C   UNK N   1      28.013  22.953  -6.837  0.00  0.00     0.006 C 
HETATM   11  C   UNK N   1      31.062  24.165  -3.933  0.00  0.00     0.018 C 
HETATM   12  C   UNK N   1      27.183  24.160  -7.314  0.00  0.00     0.006 C 
HETATM   13  C   UNK N   1      30.080  20.926  -5.568  0.00  0.00     0.013 C 
HETATM   14  C   UNK N   1      27.631  26.876  -5.048  0.00  0.00     0.017 C 
HETATM   15  C   UNK N   1      31.860  21.729  -4.230  0.00  0.00     0.135 C 
HETATM   16  C   UNK N   1      26.851  24.956  -3.671  0.00  0.00     0.016 C 
HETATM   17  C   UNK N   1      25.612  25.992  -6.750  0.00  0.00     0.083 C 
HETATM   18  C   UNK N   1      31.498  20.562  -5.091  0.00  0.00     0.079 C 
HETATM   19  C   UNK N   1      29.906  22.205  -2.866  0.00  0.00     0.024 C 
HETATM   20  C   UNK N   1      26.289  27.588  -4.827  0.00  0.00     0.079 C 
HETATM   21  C   UNK N   1      25.226  26.992  -5.705  0.00  0.00     0.127 C 
ENDROOT
TORSDOF 0
ENDMDL
MODEL 6
REMARK VINA RESULT:      -6.9     12.043     15.175
REMARK  0 active torsions:
REMARK  status: ('A' for Active; 'I' for Inactive)
ROOT
HETATM    1  O   UNK N   1      33.543  19.252  -5.407  0.00  0.00    -0.297 OA
HETATM    2  O   UNK N   1      25.844  26.413  -4.731  0.00  0.00    -0.298 OA
HETATM    3  C   UNK N   1      29.583  22.384  -4.821  0.00  0.00    -0.002 C 
HETATM    4  C   UNK N   1      30.670  22.625  -3.733  0.00  0.00    -0.004 C 
HETATM    5  C   UNK N   1      28.697  23.662  -4.947  0.00  0.00    -0.036 C 
HETATM    6  C   UNK N   1      31.663  21.452  -3.736  0.00  0.00     0.006 C 
HETATM    7  C   UNK N   1      32.292  21.258  -5.113  0.00  0.00     0.021 C 
HETATM    8  C   UNK N   1      28.293  24.238  -3.530  0.00  0.00     0.001 C 
HETATM    9  C   UNK N   1      30.169  21.975  -6.198  0.00  0.00     0.007 C 
HETATM   10  C   UNK N   1      30.003  22.765  -2.348  0.00  0.00     0.006 C 
HETATM   11  C   UNK N   1      31.202  20.841  -6.097  0.00  0.00     0.018 C 
HETATM   12  C   UNK N   1      28.537  23.233  -2.403  0.00  0.00     0.006 C 
HETATM   13  C   UNK N   1      32.873  21.521  -2.800  0.00  0.00     0.013 C 
HETATM   14  C   UNK N   1      27.450  23.331  -5.797  0.00  0.00     0.017 C 
HETATM   15  C   UNK N   1      33.325  20.260  -4.752  0.00  0.00     0.135 C 
HETATM   16  C   UNK N   1      29.487  24.755  -5.689  0.00  0.00     0.016 C 
HETATM   17  C   UNK N   1      26.828  24.693  -3.449  0.00  0.00     0.083 C 
HETATM   18  C   UNK N   1      33.798  20.416  -3.342  0.00  0.00     0.079 C 
HETATM   19  C   UNK N   1      33.022  22.508  -5.623  0.00  0.00     0.024 C 
HETATM   20  C   UNK N   1      26.583  24.578  -6.023  0.00  0.00     0.079 C 
HETATM   21  C   UNK N   1      26.373  25.315  -4.732  0.00  0.00     0.127 C 
ENDROOT
TORSDOF 0
ENDMDL
MODEL 7
REMARK VINA RESULT:      -6.9      6.806     10.256
REMARK  0 active torsions:
REMARK  status: ('A' for Active; 'I' for Inactive)
ROOT
HETATM    1  O   UNK N   1      37.894  12.214  11.574  0.00  0.00    -0.297 OA
HETATM    2  O   UNK N   1      34.285   9.674  21.141  0.00  0.00    -0.298 OA
HETATM    3  C   UNK N   1      36.456  11.319  16.367  0.00  0.00    -0.002 C 
HETATM    4  C   UNK N   1      35.525  12.356  15.673  0.00  0.00    -0.004 C 
HETATM    5  C   UNK N   1      35.699  10.681  17.572  0.00  0.00    -0.036 C 
HETATM    6  C   UNK N   1      36.186  12.848  14.376  0.00  0.00     0.006 C 
HETATM    7  C   UNK N   1      36.513  11.686  13.441  0.00  0.00     0.021 C 
HETATM    8  C   UNK N   1      34.938  11.770  18.431  0.00  0.00     0.001 C 
HETATM    9  C   UNK N   1      36.989  10.227  15.402  0.00  0.00     0.007 C 
HETATM   10  C   UNK N   1      35.257  13.540  16.626  0.00  0.00     0.006 C 
HETATM   11  C   UNK N   1      37.571  10.806  14.103  0.00  0.00     0.018 C 
HETATM   12  C   UNK N   1      35.411  13.191  18.118  0.00  0.00     0.006 C 
HETATM   13  C   UNK N   1      35.403  13.813  13.480  0.00  0.00     0.013 C 
HETATM   14  C   UNK N   1      36.702   9.882  18.434  0.00  0.00     0.017 C 
HETATM   15  C   UNK N   1      36.901  12.462  12.241  0.00  0.00     0.135 C 
HETATM   16  C   UNK N   1      34.649   9.687  17.042  0.00  0.00     0.016 C 
HETATM   17  C   UNK N   1      35.066  11.553  19.946  0.00  0.00     0.083 C 
HETATM   18  C   UNK N   1      36.184  13.771  12.154  0.00  0.00     0.079 C 
HETATM   19  C   UNK N   1      35.282  10.849  13.067  0.00  0.00     0.024 C 
HETATM   20  C   UNK N   1      35.993   9.163  19.591  0.00  0.00     0.079 C 
HETATM   21  C   UNK N   1      35.054  10.098  20.296  0.00  0.00     0.127 C 
ENDROOT
TORSDOF 0
ENDMDL
MODEL 8
REMARK VINA RESULT:      -6.8     12.275     16.159
REMARK  0 active torsions:
REMARK  status: ('A' for Active; 'I' for Inactive)
ROOT
HETATM    1  O   UNK N   1      32.823  21.373  -1.965  0.00  0.00    -0.297 OA
HETATM    2  O   UNK N   1      25.193  27.073  -6.471  0.00  0.00    -0.298 OA
HETATM    3  C   UNK N   1      29.402  24.514  -4.032  0.00  0.00    -0.002 C 
HETATM    4  C   UNK N   1      30.405  23.979  -5.095  0.00  0.00    -0.004 C 
HETATM    5  C   UNK N   1      28.105  24.995  -4.752  0.00  0.00    -0.036 C 
HETATM    6  C   UNK N   1      31.602  23.328  -4.385  0.00  0.00     0.006 C 
HETATM    7  C   UNK N   1      31.154  22.217  -3.440  0.00  0.00     0.021 C 
HETATM    8  C   UNK N   1      28.432  25.851  -6.041  0.00  0.00     0.001 C 
HETATM    9  C   UNK N   1      29.073  23.482  -2.921  0.00  0.00     0.007 C 
HETATM   10  C   UNK N   1      30.877  25.137  -6.000  0.00  0.00     0.006 C 
HETATM   11  C   UNK N   1      30.327  22.834  -2.314  0.00  0.00     0.018 C 
HETATM   12  C   UNK N   1      29.889  26.316  -6.076  0.00  0.00     0.006 C 
HETATM   13  C   UNK N   1      32.677  22.651  -5.242  0.00  0.00     0.013 C 
HETATM   14  C   UNK N   1      27.236  25.791  -3.752  0.00  0.00     0.017 C 
HETATM   15  C   UNK N   1      32.482  21.654  -3.104  0.00  0.00     0.135 C 
HETATM   16  C   UNK N   1      27.289  23.768  -5.200  0.00  0.00     0.016 C 
HETATM   17  C   UNK N   1      27.537  27.089  -6.197  0.00  0.00     0.083 C 
HETATM   18  C   UNK N   1      33.466  21.815  -4.218  0.00  0.00     0.079 C 
HETATM   19  C   UNK N   1      30.354  21.113  -4.145  0.00  0.00     0.024 C 
HETATM   20  C   UNK N   1      25.905  26.218  -4.387  0.00  0.00     0.079 C 
HETATM   21  C   UNK N   1      26.137  26.817  -5.743  0.00  0.00     0.127 C 
ENDROOT
TORSDOF 0
ENDMDL
MODEL 9
REMARK VINA RESULT:      -6.7     18.189     19.495
REMARK  0 active torsions:
REMARK  status: ('A' for Active; 'I' for Inactive)
ROOT
HETATM    1  O   UNK N   1      26.972  25.068 -11.118  0.00  0.00    -0.297 OA
HETATM    2  O   UNK N   1      28.064  30.270  -2.021  0.00  0.00    -0.298 OA
HETATM    3  C   UNK N   1      27.079  27.793  -6.828  0.00  0.00    -0.002 C 
HETATM    4  C   UNK N   1      26.450  26.388  -6.599  0.00  0.00    -0.004 C 
HETATM    5  C   UNK N   1      27.586  28.354  -5.464  0.00  0.00    -0.036 C 
HETATM    6  C   UNK N   1      26.124  25.747  -7.957  0.00  0.00     0.006 C 
HETATM    7  C   UNK N   1      27.364  25.660  -8.844  0.00  0.00     0.021 C 
HETATM    8  C   UNK N   1      26.527  28.133  -4.309  0.00  0.00     0.001 C 
HETATM    9  C   UNK N   1      28.214  27.795  -7.887  0.00  0.00     0.007 C 
HETATM   10  C   UNK N   1      25.173  26.519  -5.743  0.00  0.00     0.006 C 
HETATM   11  C   UNK N   1      27.823  27.076  -9.187  0.00  0.00     0.018 C 
HETATM   12  C   UNK N   1      25.141  27.775  -4.852  0.00  0.00     0.006 C 
HETATM   13  C   UNK N   1      25.576  24.317  -7.974  0.00  0.00     0.013 C 
HETATM   14  C   UNK N   1      27.935  29.849  -5.629  0.00  0.00     0.017 C 
HETATM   15  C   UNK N   1      26.806  24.825  -9.933  0.00  0.00     0.135 C 
HETATM   16  C   UNK N   1      28.876  27.617  -5.061  0.00  0.00     0.016 C 
HETATM   17  C   UNK N   1      26.371  29.346  -3.381  0.00  0.00     0.083 C 
HETATM   18  C   UNK N   1      25.738  23.898  -9.447  0.00  0.00     0.079 C 
HETATM   19  C   UNK N   1      28.511  24.869  -8.201  0.00  0.00     0.024 C 
HETATM   20  C   UNK N   1      28.519  30.432  -4.334  0.00  0.00     0.079 C 
HETATM   21  C   UNK N   1      27.679  30.037  -3.154  0.00  0.00     0.127 C 
ENDROOT
TORSDOF 0
ENDMDL
