MODEL 1
REMARK VINA RESULT:      -4.1      0.000      0.000
REMARK  3 active torsions:
REMARK  status: ('A' for Active; 'I' for Inactive)
REMARK    1  A    between atoms: O_4  and  C_6 
REMARK    2  A    between atoms: O_5  and  C_6 
REMARK    3  A    between atoms: C_6  and  C_7 
ROOT
HETATM    1  C   UNK N   1      20.710  20.926   1.044  0.00  0.00     0.163 C 
ENDROOT
BRANCH   1   2
HETATM    2  O   UNK N   1      20.593  20.251  -0.121  0.00  0.00    -0.775 OA
HETATM    3  H   UNK N   1      20.484  20.719  -0.924  0.00  0.00     0.167 HD
ENDBRANCH   1   2
BRANCH   1   4
HETATM    4  O   UNK N   1      20.551  22.268   1.006  0.00  0.00    -0.775 OA
HETATM    5  H   UNK N   1      21.078  22.817   1.551  0.00  0.00     0.167 HD
ENDBRANCH   1   4
BRANCH   1   6
HETATM    6  C   UNK N   1      21.016  20.183   2.365  0.00  0.00     0.270 A 
HETATM    7 Cl   UNK N   1      21.240  19.282   3.879  0.00  0.00    -0.072 Cl
HETATM    8 Cl   UNK N   1      19.442  19.390   2.685  0.00  0.00    -0.072 Cl
HETATM    9 Cl   UNK N   1      22.731  20.606   2.692  0.00  0.00    -0.072 Cl
ENDBRANCH   1   6
TORSDOF 3
ENDMDL
MODEL 2
REMARK VINA RESULT:      -4.1      0.076      2.246
REMARK  3 active torsions:
REMARK  status: ('A' for Active; 'I' for Inactive)
REMARK    1  A    between atoms: O_4  and  C_6 
REMARK    2  A    between atoms: O_5  and  C_6 
REMARK    3  A    between atoms: C_6  and  C_7 
ROOT
HETATM    1  C   UNK N   1      20.697  20.913   1.040  0.00  0.00     0.163 C 
ENDROOT
BRANCH   1   2
HETATM    2  O   UNK N   1      20.560  22.257   1.031  0.00  0.00    -0.775 OA
HETATM    3  H   UNK N   1      19.729  22.644   1.223  0.00  0.00     0.167 HD
ENDBRANCH   1   2
BRANCH   1   4
HETATM    4  O   UNK N   1      20.596  20.267  -0.143  0.00  0.00    -0.775 OA
HETATM    5  H   UNK N   1      20.063  19.500  -0.213  0.00  0.00     0.167 HD
ENDBRANCH   1   4
BRANCH   1   6
HETATM    6  C   UNK N   1      20.960  20.151   2.360  0.00  0.00     0.270 A 
HETATM    7 Cl   UNK N   1      21.386  19.327   3.875  0.00  0.00    -0.072 Cl
HETATM    8 Cl   UNK N   1      22.663  20.603   2.684  0.00  0.00    -0.072 Cl
HETATM    9 Cl   UNK N   1      19.394  19.330   2.684  0.00  0.00    -0.072 Cl
ENDBRANCH   1   6
TORSDOF 3
ENDMDL
MODEL 3
REMARK VINA RESULT:      -3.9     12.283     12.881
REMARK  3 active torsions:
REMARK  status: ('A' for Active; 'I' for Inactive)
REMARK    1  A    between atoms: O_4  and  C_6 
REMARK    2  A    between atoms: O_5  and  C_6 
REMARK    3  A    between atoms: C_6  and  C_7 
ROOT
HETATM    1  C   UNK N   1      23.066  11.961  12.152  0.00  0.00     0.163 C 
ENDROOT
BRANCH   1   2
HETATM    2  O   UNK N   1      24.381  12.258  12.238  0.00  0.00    -0.775 OA
HETATM    3  H   UNK N   1      24.751  12.516  13.058  0.00  0.00     0.167 HD
ENDBRANCH   1   2
BRANCH   1   4
HETATM    4  O   UNK N   1      22.540  11.172  13.117  0.00  0.00    -0.775 OA
HETATM    5  H   UNK N   1      21.661  10.860  13.038  0.00  0.00     0.167 HD
ENDBRANCH   1   4
BRANCH   1   6
HETATM    6  C   UNK N   1      22.202  12.506  10.991  0.00  0.00     0.270 A 
HETATM    7 Cl   UNK N   1      21.101  13.095   9.729  0.00  0.00    -0.072 Cl
HETATM    8 Cl   UNK N   1      20.554  12.136  11.587  0.00  0.00    -0.072 Cl
HETATM    9 Cl   UNK N   1      23.418  13.143   9.832  0.00  0.00    -0.072 Cl
ENDBRANCH   1   6
TORSDOF 3
ENDMDL
MODEL 4
REMARK VINA RESULT:      -3.8     12.302     13.015
REMARK  3 active torsions:
REMARK  status: ('A' for Active; 'I' for Inactive)
REMARK    1  A    between atoms: O_4  and  C_6 
REMARK    2  A    between atoms: O_5  and  C_6 
REMARK    3  A    between atoms: C_6  and  C_7 
ROOT
HETATM    1  C   UNK N   1      23.085  11.950  12.149  0.00  0.00     0.163 C 
ENDROOT
BRANCH   1   2
HETATM    2  O   UNK N   1      24.391  12.288  12.223  0.00  0.00    -0.775 OA
HETATM    3  H   UNK N   1      24.923  12.274  11.453  0.00  0.00     0.167 HD
ENDBRANCH   1   2
BRANCH   1   4
HETATM    4  O   UNK N   1      22.569  11.227  13.168  0.00  0.00    -0.775 OA
HETATM    5  H   UNK N   1      23.138  10.853  13.811  0.00  0.00     0.167 HD
ENDBRANCH   1   4
BRANCH   1   6
HETATM    6  C   UNK N   1      22.221  12.377  10.939  0.00  0.00     0.270 A 
HETATM    7 Cl   UNK N   1      21.345  12.888   9.482  0.00  0.00    -0.072 Cl
HETATM    8 Cl   UNK N   1      23.488  12.791   9.742  0.00  0.00    -0.072 Cl
HETATM    9 Cl   UNK N   1      20.539  12.172  11.537  0.00  0.00    -0.072 Cl
ENDBRANCH   1   6
TORSDOF 3
ENDMDL
MODEL 5
REMARK VINA RESULT:      -3.8     12.030     12.679
REMARK  3 active torsions:
REMARK  status: ('A' for Active; 'I' for Inactive)
REMARK    1  A    between atoms: O_4  and  C_6 
REMARK    2  A    between atoms: O_5  and  C_6 
REMARK    3  A    between atoms: C_6  and  C_7 
ROOT
HETATM    1  C   UNK N   1      24.201  12.214  10.663  0.00  0.00     0.163 C 
ENDROOT
BRANCH   1   2
HETATM    2  O   UNK N   1      24.477  11.930   9.371  0.00  0.00    -0.775 OA
HETATM    3  H   UNK N   1      25.365  11.828   9.093  0.00  0.00     0.167 HD
ENDBRANCH   1   2
BRANCH   1   4
HETATM    4  O   UNK N   1      25.236  12.564  11.459  0.00  0.00    -0.775 OA
HETATM    5  H   UNK N   1      26.016  12.922  11.083  0.00  0.00     0.167 HD
ENDBRANCH   1   4
BRANCH   1   6
HETATM    6  C   UNK N   1      22.754  12.138  11.202  0.00  0.00     0.270 A 
HETATM    7 Cl   UNK N   1      21.048  12.070  11.693  0.00  0.00    -0.072 Cl
HETATM    8 Cl   UNK N   1      21.814  12.406   9.700  0.00  0.00    -0.072 Cl
HETATM    9 Cl   UNK N   1      22.980  11.831  12.958  0.00  0.00    -0.072 Cl
ENDBRANCH   1   6
TORSDOF 3
ENDMDL
MODEL 6
REMARK VINA RESULT:      -3.6     11.922     12.604
REMARK  3 active torsions:
REMARK  status: ('A' for Active; 'I' for Inactive)
REMARK    1  A    between atoms: O_4  and  C_6 
REMARK    2  A    between atoms: O_5  and  C_6 
REMARK    3  A    between atoms: C_6  and  C_7 
ROOT
HETATM    1  C   UNK N   1      21.220  12.266  11.056  0.00  0.00     0.163 C 
ENDROOT
BRANCH   1   2
HETATM    2  O   UNK N   1      20.620  12.874  10.010  0.00  0.00    -0.775 OA
HETATM    3  H   UNK N   1      20.188  13.696  10.130  0.00  0.00     0.167 HD
ENDBRANCH   1   2
BRANCH   1   4
HETATM    4  O   UNK N   1      20.423  11.740  12.013  0.00  0.00    -0.775 OA
HETATM    5  H   UNK N   1      20.800  11.269  12.730  0.00  0.00     0.167 HD
ENDBRANCH   1   4
BRANCH   1   6
HETATM    6  C   UNK N   1      22.761  12.179  11.147  0.00  0.00     0.270 A 
HETATM    7 Cl   UNK N   1      24.535  12.104  11.119  0.00  0.00    -0.072 Cl
HETATM    8 Cl   UNK N   1      23.222  12.448   9.437  0.00  0.00    -0.072 Cl
HETATM    9 Cl   UNK N   1      23.057  11.872  12.893  0.00  0.00    -0.072 Cl
ENDBRANCH   1   6
TORSDOF 3
ENDMDL
MODEL 7
REMARK VINA RESULT:      -3.6     11.922     12.584
REMARK  3 active torsions:
REMARK  status: ('A' for Active; 'I' for Inactive)
REMARK    1  A    between atoms: O_4  and  C_6 
REMARK    2  A    between atoms: O_5  and  C_6 
REMARK    3  A    between atoms: C_6  and  C_7 
ROOT
HETATM    1  C   UNK N   1      21.122  12.289  11.086  0.00  0.00     0.163 C 
ENDROOT
BRANCH   1   2
HETATM    2  O   UNK N   1      20.386  11.698  12.052  0.00  0.00    -0.775 OA
HETATM    3  H   UNK N   1      20.748  11.574  12.906  0.00  0.00     0.167 HD
ENDBRANCH   1   2
BRANCH   1   4
HETATM    4  O   UNK N   1      20.458  12.963  10.120  0.00  0.00    -0.775 OA
HETATM    5  H   UNK N   1      19.968  12.494   9.474  0.00  0.00     0.167 HD
ENDBRANCH   1   4
BRANCH   1   6
HETATM    6  C   UNK N   1      22.666  12.194  11.091  0.00  0.00     0.270 A 
HETATM    7 Cl   UNK N   1      24.431  12.058  11.231  0.00  0.00    -0.072 Cl
HETATM    8 Cl   UNK N   1      22.982  11.859  12.823  0.00  0.00    -0.072 Cl
HETATM    9 Cl   UNK N   1      23.106  12.477   9.373  0.00  0.00    -0.072 Cl
ENDBRANCH   1   6
TORSDOF 3
ENDMDL
MODEL 8
REMARK VINA RESULT:      -3.6     13.734     14.320
REMARK  3 active torsions:
REMARK  status: ('A' for Active; 'I' for Inactive)
REMARK    1  A    between atoms: O_4  and  C_6 
REMARK    2  A    between atoms: O_5  and  C_6 
REMARK    3  A    between atoms: C_6  and  C_7 
ROOT
HETATM    1  C   UNK N   1      34.132  18.047   8.499  0.00  0.00     0.163 C 
ENDROOT
BRANCH   1   2
HETATM    2  O   UNK N   1      34.985  19.067   8.260  0.00  0.00    -0.775 OA
HETATM    3  H   UNK N   1      35.851  19.047   8.614  0.00  0.00     0.167 HD
ENDBRANCH   1   2
BRANCH   1   4
HETATM    4  O   UNK N   1      34.295  17.355   9.650  0.00  0.00    -0.775 OA
HETATM    5  H   UNK N   1      35.032  17.530  10.201  0.00  0.00     0.167 HD
ENDBRANCH   1   4
BRANCH   1   6
HETATM    6  C   UNK N   1      33.016  17.690   7.490  0.00  0.00     0.270 A 
HETATM    7 Cl   UNK N   1      31.645  17.302   6.431  0.00  0.00    -0.072 Cl
HETATM    8 Cl   UNK N   1      31.559  17.854   8.518  0.00  0.00    -0.072 Cl
HETATM    9 Cl   UNK N   1      33.920  17.354   5.974  0.00  0.00    -0.072 Cl
ENDBRANCH   1   6
TORSDOF 3
ENDMDL
MODEL 9
REMARK VINA RESULT:      -3.5     11.285     11.851
REMARK  3 active torsions:
REMARK  status: ('A' for Active; 'I' for Inactive)
REMARK    1  A    between atoms: O_4  and  C_6 
REMARK    2  A    between atoms: O_5  and  C_6 
REMARK    3  A    between atoms: C_6  and  C_7 
ROOT
HETATM    1  C   UNK N   1      31.299  22.012  -2.619  0.00  0.00     0.163 C 
ENDROOT
BRANCH   1   2
HETATM    2  O   UNK N   1      32.409  21.360  -2.209  0.00  0.00    -0.775 OA
HETATM    3  H   UNK N   1      32.802  21.574  -1.387  0.00  0.00     0.167 HD
ENDBRANCH   1   2
BRANCH   1   4
HETATM    4  O   UNK N   1      30.796  22.963  -1.800  0.00  0.00    -0.775 OA
HETATM    5  H   UNK N   1      30.533  23.791  -2.151  0.00  0.00     0.167 HD
ENDBRANCH   1   4
BRANCH   1   6
HETATM    6  C   UNK N   1      30.635  21.675  -3.974  0.00  0.00     0.270 A 
HETATM    7 Cl   UNK N   1      29.951  21.179  -5.536  0.00  0.00    -0.072 Cl
HETATM    8 Cl   UNK N   1      31.497  20.168  -4.414  0.00  0.00    -0.072 Cl
HETATM    9 Cl   UNK N   1      29.451  23.008  -4.199  0.00  0.00    -0.072 Cl
ENDBRANCH   1   6
TORSDOF 3
ENDMDL
