MODEL 1
REMARK VINA RESULT:      -7.9      0.000      0.000
REMARK  0 active torsions:
REMARK  status: ('A' for Active; 'I' for Inactive)
ROOT
HETATM    1  O   UNK N   1      26.012  23.955  -3.488  0.00  0.00    -0.389 OA
HETATM    2  O   UNK N   1      35.022  19.327  -4.320  0.00  0.00    -0.293 OA
HETATM    3  C   UNK N   1      28.205  23.130  -5.079  0.00  0.00     0.001 C 
HETATM    4  C   UNK N   1      28.273  24.397  -4.223  0.00  0.00    -0.009 C 
HETATM    5  C   UNK N   1      29.610  22.533  -5.349  0.00  0.00    -0.001 C 
HETATM    6  C   UNK N   1      30.303  22.253  -3.976  0.00  0.00     0.003 C 
HETATM    7  C   UNK N   1      26.800  24.833  -4.241  0.00  0.00     0.062 C 
HETATM    8  C   UNK N   1      31.770  21.788  -4.189  0.00  0.00    -0.016 C 
HETATM    9  C   UNK N   1      28.854  24.053  -2.853  0.00  0.00     0.013 C 
HETATM   10  C   UNK N   1      30.267  23.483  -3.033  0.00  0.00     0.007 C 
HETATM   11  C   UNK N   1      27.375  23.592  -6.278  0.00  0.00     0.009 C 
HETATM   12  C   UNK N   1      29.543  21.192  -6.122  0.00  0.00    -0.010 C 
HETATM   13  C   UNK N   1      26.428  24.673  -5.717  0.00  0.00     0.038 C 
HETATM   14  C   UNK N   1      30.923  20.581  -6.359  0.00  0.00     0.039 C 
HETATM   15  C   UNK N   1      31.828  20.616  -5.159  0.00  0.00    -0.067 C 
HETATM   16  C   UNK N   1      29.152  25.485  -4.880  0.00  0.00     0.018 C 
HETATM   17  C   UNK N   1      32.376  21.359  -2.839  0.00  0.00     0.022 C 
HETATM   18  C   UNK N   1      26.563  26.248  -3.737  0.00  0.00     0.046 C 
HETATM   19  C   UNK N   1      32.608  22.932  -4.769  0.00  0.00     0.020 C 
HETATM   20  C   UNK N   1      28.867  21.319  -7.476  0.00  0.00     0.010 C 
HETATM   21  C   UNK N   1      33.810  20.830  -2.970  0.00  0.00     0.084 C 
HETATM   22  C   UNK N   1      32.916  19.831  -5.192  0.00  0.00     0.053 C 
HETATM   23  C   UNK N   1      33.978  19.940  -4.170  0.00  0.00     0.149 C 
HETATM   24  H   UNK N   1      25.469  23.262  -3.082  0.00  0.00     0.210 HD
ENDROOT
TORSDOF 0
ENDMDL
MODEL 2
REMARK VINA RESULT:      -7.9      1.539      6.482
REMARK  0 active torsions:
REMARK  status: ('A' for Active; 'I' for Inactive)
ROOT
HETATM    1  O   UNK N   1      33.073  22.418  -5.082  0.00  0.00    -0.389 OA
HETATM    2  O   UNK N   1      24.179  27.312  -5.563  0.00  0.00    -0.293 OA
HETATM    3  C   UNK N   1      30.259  22.361  -5.396  0.00  0.00     0.001 C 
HETATM    4  C   UNK N   1      30.905  22.452  -4.012  0.00  0.00    -0.009 C 
HETATM    5  C   UNK N   1      28.826  22.953  -5.411  0.00  0.00    -0.001 C 
HETATM    6  C   UNK N   1      28.894  24.433  -4.914  0.00  0.00     0.003 C 
HETATM    7  C   UNK N   1      32.213  21.686  -4.256  0.00  0.00     0.062 C 
HETATM    8  C   UNK N   1      27.467  25.029  -4.772  0.00  0.00    -0.016 C 
HETATM    9  C   UNK N   1      31.052  23.920  -3.616  0.00  0.00     0.013 C 
HETATM   10  C   UNK N   1      29.664  24.573  -3.576  0.00  0.00     0.007 C 
HETATM   11  C   UNK N   1      30.431  20.881  -5.738  0.00  0.00     0.009 C 
HETATM   12  C   UNK N   1      28.207  22.963  -6.831  0.00  0.00    -0.010 C 
HETATM   13  C   UNK N   1      31.733  20.453  -5.028  0.00  0.00     0.038 C 
HETATM   14  C   UNK N   1      26.808  23.578  -6.857  0.00  0.00     0.039 C 
HETATM   15  C   UNK N   1      26.677  24.847  -6.061  0.00  0.00    -0.067 C 
HETATM   16  C   UNK N   1      30.062  21.728  -2.937  0.00  0.00     0.018 C 
HETATM   17  C   UNK N   1      27.564  26.531  -4.445  0.00  0.00     0.022 C 
HETATM   18  C   UNK N   1      32.964  21.312  -2.987  0.00  0.00     0.046 C 
HETATM   19  C   UNK N   1      26.709  24.322  -3.643  0.00  0.00     0.020 C 
HETATM   20  C   UNK N   1      28.101  21.578  -7.445  0.00  0.00     0.010 C 
HETATM   21  C   UNK N   1      26.193  27.211  -4.345  0.00  0.00     0.084 C 
HETATM   22  C   UNK N   1      25.590  25.601  -6.290  0.00  0.00     0.053 C 
HETATM   23  C   UNK N   1      25.253  26.751  -5.424  0.00  0.00     0.149 C 
HETATM   24  H   UNK N   1      33.589  22.876  -5.763  0.00  0.00     0.210 HD
ENDROOT
TORSDOF 0
ENDMDL
MODEL 3
REMARK VINA RESULT:      -7.8      2.373      3.638
REMARK  0 active torsions:
REMARK  status: ('A' for Active; 'I' for Inactive)
ROOT
HETATM    1  O   UNK N   1      24.637  23.174  -8.561  0.00  0.00    -0.389 OA
HETATM    2  O   UNK N   1      32.374  21.586  -2.166  0.00  0.00    -0.293 OA
HETATM    3  C   UNK N   1      27.324  22.400  -8.111  0.00  0.00     0.001 C 
HETATM    4  C   UNK N   1      26.922  23.874  -8.191  0.00  0.00    -0.009 C 
HETATM    5  C   UNK N   1      28.614  22.191  -7.276  0.00  0.00    -0.001 C 
HETATM    6  C   UNK N   1      28.388  22.795  -5.852  0.00  0.00     0.003 C 
HETATM    7  C   UNK N   1      25.737  23.794  -9.165  0.00  0.00     0.062 C 
HETATM    8  C   UNK N   1      29.699  22.743  -5.022  0.00  0.00    -0.016 C 
HETATM    9  C   UNK N   1      26.604  24.391  -6.789  0.00  0.00     0.013 C 
HETATM   10  C   UNK N   1      27.850  24.248  -5.905  0.00  0.00     0.007 C 
HETATM   11  C   UNK N   1      27.343  21.987  -9.583  0.00  0.00     0.009 C 
HETATM   12  C   UNK N   1      28.966  20.694  -7.099  0.00  0.00    -0.010 C 
HETATM   13  C   UNK N   1      26.274  22.869 -10.261  0.00  0.00     0.038 C 
HETATM   14  C   UNK N   1      30.217  20.482  -6.247  0.00  0.00     0.039 C 
HETATM   15  C   UNK N   1      30.272  21.333  -5.009  0.00  0.00    -0.067 C 
HETATM   16  C   UNK N   1      28.047  24.742  -8.800  0.00  0.00     0.018 C 
HETATM   17  C   UNK N   1      29.411  23.186  -3.575  0.00  0.00     0.022 C 
HETATM   18  C   UNK N   1      25.290  25.140  -9.716  0.00  0.00     0.046 C 
HETATM   19  C   UNK N   1      30.748  23.681  -5.630  0.00  0.00     0.020 C 
HETATM   20  C   UNK N   1      29.192  19.975  -8.418  0.00  0.00     0.010 C 
HETATM   21  C   UNK N   1      30.647  23.108  -2.669  0.00  0.00     0.084 C 
HETATM   22  C   UNK N   1      31.162  20.982  -4.067  0.00  0.00     0.053 C 
HETATM   23  C   UNK N   1      31.449  21.860  -2.912  0.00  0.00     0.149 C 
HETATM   24  H   UNK N   1      23.941  22.621  -8.174  0.00  0.00     0.210 HD
ENDROOT
TORSDOF 0
ENDMDL
MODEL 4
REMARK VINA RESULT:      -7.6      1.406      6.677
REMARK  0 active torsions:
REMARK  status: ('A' for Active; 'I' for Inactive)
ROOT
HETATM    1  O   UNK N   1      32.689  18.679  -4.154  0.00  0.00    -0.389 OA
HETATM    2  O   UNK N   1      25.270  25.091  -6.825  0.00  0.00    -0.293 OA
HETATM    3  C   UNK N   1      31.510  21.251  -4.026  0.00  0.00     0.001 C 
HETATM    4  C   UNK N   1      32.377  20.830  -5.214  0.00  0.00    -0.009 C 
HETATM    5  C   UNK N   1      30.499  22.363  -4.407  0.00  0.00    -0.001 C 
HETATM    6  C   UNK N   1      29.622  21.851  -5.596  0.00  0.00     0.003 C 
HETATM    7  C   UNK N   1      33.347  19.856  -4.528  0.00  0.00     0.062 C 
HETATM    8  C   UNK N   1      28.689  22.980  -6.113  0.00  0.00    -0.016 C 
HETATM    9  C   UNK N   1      31.490  20.235  -6.306  0.00  0.00     0.013 C 
HETATM   10  C   UNK N   1      30.476  21.292  -6.763  0.00  0.00     0.007 C 
HETATM   11  C   UNK N   1      32.555  21.563  -2.954  0.00  0.00     0.009 C 
HETATM   12  C   UNK N   1      29.544  22.717  -3.240  0.00  0.00    -0.010 C 
HETATM   13  C   UNK N   1      33.737  20.619  -3.259  0.00  0.00     0.038 C 
HETATM   14  C   UNK N   1      28.522  23.788  -3.622  0.00  0.00     0.039 C 
HETATM   15  C   UNK N   1      27.885  23.580  -4.968  0.00  0.00    -0.067 C 
HETATM   16  C   UNK N   1      33.160  22.025  -5.804  0.00  0.00     0.018 C 
HETATM   17  C   UNK N   1      27.721  22.408  -7.166  0.00  0.00     0.022 C 
HETATM   18  C   UNK N   1      34.558  19.485  -5.371  0.00  0.00     0.046 C 
HETATM   19  C   UNK N   1      29.517  24.099  -6.754  0.00  0.00     0.020 C 
HETATM   20  C   UNK N   1      30.274  23.212  -2.003  0.00  0.00     0.010 C 
HETATM   21  C   UNK N   1      26.723  23.449  -7.688  0.00  0.00     0.084 C 
HETATM   22  C   UNK N   1      26.771  24.283  -5.230  0.00  0.00     0.053 C 
HETATM   23  C   UNK N   1      26.183  24.318  -6.586  0.00  0.00     0.149 C 
HETATM   24  H   UNK N   1      32.187  17.938  -3.780  0.00  0.00     0.210 HD
ENDROOT
TORSDOF 0
ENDMDL
MODEL 5
REMARK VINA RESULT:      -7.5     11.019     12.894
REMARK  0 active torsions:
REMARK  status: ('A' for Active; 'I' for Inactive)
ROOT
HETATM    1  O   UNK N   1      26.491  17.247   3.397  0.00  0.00    -0.389 OA
HETATM    2  O   UNK N   1      35.072  17.970   8.794  0.00  0.00    -0.293 OA
HETATM    3  C   UNK N   1      27.938  16.738   5.778  0.00  0.00     0.001 C 
HETATM    4  C   UNK N   1      28.094  15.847   4.544  0.00  0.00    -0.009 C 
HETATM    5  C   UNK N   1      29.192  16.698   6.689  0.00  0.00    -0.001 C 
HETATM    6  C   UNK N   1      30.436  17.118   5.840  0.00  0.00     0.003 C 
HETATM    7  C   UNK N   1      26.693  15.967   3.925  0.00  0.00     0.062 C 
HETATM    8  C   UNK N   1      31.741  16.956   6.666  0.00  0.00    -0.016 C 
HETATM    9  C   UNK N   1      29.251  16.360   3.689  0.00  0.00     0.013 C 
HETATM   10  C   UNK N   1      30.544  16.321   4.515  0.00  0.00     0.007 C 
HETATM   11  C   UNK N   1      26.608  16.258   6.360  0.00  0.00     0.009 C 
HETATM   12  C   UNK N   1      29.086  17.681   7.881  0.00  0.00    -0.010 C 
HETATM   13  C   UNK N   1      25.780  15.796   5.143  0.00  0.00     0.038 C 
HETATM   14  C   UNK N   1      30.334  17.671   8.762  0.00  0.00     0.039 C 
HETATM   15  C   UNK N   1      31.629  17.685   7.998  0.00  0.00    -0.067 C 
HETATM   16  C   UNK N   1      28.374  14.377   4.932  0.00  0.00     0.018 C 
HETATM   17  C   UNK N   1      32.929  17.531   5.872  0.00  0.00     0.022 C 
HETATM   18  C   UNK N   1      26.401  14.944   2.839  0.00  0.00     0.046 C 
HETATM   19  C   UNK N   1      32.005  15.474   6.953  0.00  0.00     0.020 C 
HETATM   20  C   UNK N   1      27.897  17.397   8.783  0.00  0.00     0.010 C 
HETATM   21  C   UNK N   1      34.253  17.462   6.644  0.00  0.00     0.084 C 
HETATM   22  C   UNK N   1      32.740  17.994   8.685  0.00  0.00     0.053 C 
HETATM   23  C   UNK N   1      34.084  17.834   8.091  0.00  0.00     0.149 C 
HETATM   24  H   UNK N   1      26.322  18.173   3.166  0.00  0.00     0.210 HD
ENDROOT
TORSDOF 0
ENDMDL
MODEL 6
REMARK VINA RESULT:      -7.3     23.198     26.137
REMARK  0 active torsions:
REMARK  status: ('A' for Active; 'I' for Inactive)
ROOT
HETATM    1  O   UNK N   1      37.793  12.287  13.932  0.00  0.00    -0.389 OA
HETATM    2  O   UNK N   1      34.970   8.203  22.800  0.00  0.00    -0.293 OA
HETATM    3  C   UNK N   1      35.996  12.180  16.119  0.00  0.00     0.001 C 
HETATM    4  C   UNK N   1      35.899  11.187  14.958  0.00  0.00    -0.009 C 
HETATM    5  C   UNK N   1      35.395  11.607  17.428  0.00  0.00    -0.001 C 
HETATM    6  C   UNK N   1      36.127  10.268  17.766  0.00  0.00     0.003 C 
HETATM    7  C   UNK N   1      36.420  12.051  13.800  0.00  0.00     0.062 C 
HETATM    8  C   UNK N   1      35.466   9.577  18.990  0.00  0.00    -0.016 C 
HETATM    9  C   UNK N   1      36.719   9.941  15.287  0.00  0.00     0.013 C 
HETATM   10  C   UNK N   1      36.163   9.293  16.561  0.00  0.00     0.007 C 
HETATM   11  C   UNK N   1      35.361  13.438  15.524  0.00  0.00     0.009 C 
HETATM   12  C   UNK N   1      35.587  12.562  18.632  0.00  0.00    -0.010 C 
HETATM   13  C   UNK N   1      35.678  13.373  14.015  0.00  0.00     0.038 C 
HETATM   14  C   UNK N   1      35.028  11.986  19.933  0.00  0.00     0.039 C 
HETATM   15  C   UNK N   1      35.371  10.540  20.165  0.00  0.00    -0.067 C 
HETATM   16  C   UNK N   1      34.438  10.765  14.685  0.00  0.00     0.018 C 
HETATM   17  C   UNK N   1      36.303   8.352  19.406  0.00  0.00     0.022 C 
HETATM   18  C   UNK N   1      36.161  11.465  12.420  0.00  0.00     0.046 C 
HETATM   19  C   UNK N   1      34.050   9.114  18.634  0.00  0.00     0.020 C 
HETATM   20  C   UNK N   1      34.938  13.919  18.425  0.00  0.00     0.010 C 
HETATM   21  C   UNK N   1      35.748   7.644  20.648  0.00  0.00     0.084 C 
HETATM   22  C   UNK N   1      35.193  10.063  21.407  0.00  0.00     0.053 C 
HETATM   23  C   UNK N   1      35.294   8.617  21.700  0.00  0.00     0.149 C 
HETATM   24  H   UNK N   1      38.707  12.553  14.117  0.00  0.00     0.210 HD
ENDROOT
TORSDOF 0
ENDMDL
MODEL 7
REMARK VINA RESULT:      -7.3      2.279      6.774
REMARK  0 active torsions:
REMARK  status: ('A' for Active; 'I' for Inactive)
ROOT
HETATM    1  O   UNK N   1      28.937  18.821  -7.437  0.00  0.00    -0.389 OA
HETATM    2  O   UNK N   1      25.563  27.683  -3.780  0.00  0.00    -0.293 OA
HETATM    3  C   UNK N   1      29.460  21.351  -6.277  0.00  0.00     0.001 C 
HETATM    4  C   UNK N   1      29.204  21.200  -7.778  0.00  0.00    -0.009 C 
HETATM    5  C   UNK N   1      29.108  22.772  -5.765  0.00  0.00    -0.001 C 
HETATM    6  C   UNK N   1      27.615  23.071  -6.118  0.00  0.00     0.003 C 
HETATM    7  C   UNK N   1      29.761  19.790  -8.022  0.00  0.00     0.062 C 
HETATM    8  C   UNK N   1      27.250  24.537  -5.757  0.00  0.00    -0.016 C 
HETATM    9  C   UNK N   1      27.715  21.392  -8.061  0.00  0.00     0.013 C 
HETATM   10  C   UNK N   1      27.292  22.796  -7.610  0.00  0.00     0.007 C 
HETATM   11  C   UNK N   1      30.907  20.876  -6.145  0.00  0.00     0.009 C 
HETATM   12  C   UNK N   1      29.260  22.900  -4.229  0.00  0.00    -0.010 C 
HETATM   13  C   UNK N   1      31.088  19.823  -7.258  0.00  0.00     0.038 C 
HETATM   14  C   UNK N   1      28.880  24.288  -3.716  0.00  0.00     0.039 C 
HETATM   15  C   UNK N   1      27.614  24.841  -4.310  0.00  0.00    -0.067 C 
HETATM   16  C   UNK N   1      30.005  22.233  -8.603  0.00  0.00     0.018 C 
HETATM   17  C   UNK N   1      25.739  24.757  -5.956  0.00  0.00     0.022 C 
HETATM   18  C   UNK N   1      29.951  19.440  -9.490  0.00  0.00     0.046 C 
HETATM   19  C   UNK N   1      28.017  25.510  -6.658  0.00  0.00     0.020 C 
HETATM   20  C   UNK N   1      30.671  22.612  -3.745  0.00  0.00     0.010 C 
HETATM   21  C   UNK N   1      25.284  26.169  -5.564  0.00  0.00     0.084 C 
HETATM   22  C   UNK N   1      27.055  25.891  -3.688  0.00  0.00     0.053 C 
HETATM   23  C   UNK N   1      25.937  26.642  -4.296  0.00  0.00     0.149 C 
HETATM   24  H   UNK N   1      28.434  18.183  -6.909  0.00  0.00     0.210 HD
ENDROOT
TORSDOF 0
ENDMDL
MODEL 8
REMARK VINA RESULT:      -7.1      1.444      2.971
REMARK  0 active torsions:
REMARK  status: ('A' for Active; 'I' for Inactive)
ROOT
HETATM    1  O   UNK N   1      27.269  26.540  -6.085  0.00  0.00    -0.389 OA
HETATM    2  O   UNK N   1      34.849  20.144  -3.864  0.00  0.00    -0.293 OA
HETATM    3  C   UNK N   1      28.216  24.240  -4.731  0.00  0.00     0.001 C 
HETATM    4  C   UNK N   1      27.819  24.189  -6.207  0.00  0.00    -0.009 C 
HETATM    5  C   UNK N   1      29.244  23.138  -4.365  0.00  0.00    -0.001 C 
HETATM    6  C   UNK N   1      30.492  23.294  -5.293  0.00  0.00     0.003 C 
HETATM    7  C   UNK N   1      26.721  25.262  -6.246  0.00  0.00     0.062 C 
HETATM    8  C   UNK N   1      31.491  22.127  -5.068  0.00  0.00    -0.016 C 
HETATM    9  C   UNK N   1      29.048  24.456  -7.074  0.00  0.00     0.013 C 
HETATM   10  C   UNK N   1      30.107  23.381  -6.793  0.00  0.00     0.007 C 
HETATM   11  C   UNK N   1      26.858  24.222  -4.028  0.00  0.00     0.009 C 
HETATM   12  C   UNK N   1      29.733  23.251  -2.900  0.00  0.00    -0.010 C 
HETATM   13  C   UNK N   1      25.893  24.930  -5.001  0.00  0.00     0.038 C 
HETATM   14  C   UNK N   1      30.773  22.189  -2.545  0.00  0.00     0.039 C 
HETATM   15  C   UNK N   1      31.835  21.991  -3.591  0.00  0.00    -0.067 C 
HETATM   16  C   UNK N   1      27.225  22.815  -6.594  0.00  0.00     0.018 C 
HETATM   17  C   UNK N   1      32.782  22.390  -5.866  0.00  0.00     0.022 C 
HETATM   18  C   UNK N   1      25.882  25.252  -7.514  0.00  0.00     0.046 C 
HETATM   19  C   UNK N   1      30.875  20.805  -5.540  0.00  0.00     0.020 C 
HETATM   20  C   UNK N   1      28.609  23.137  -1.886  0.00  0.00     0.010 C 
HETATM   21  C   UNK N   1      33.848  21.309  -5.652  0.00  0.00     0.084 C 
HETATM   22  C   UNK N   1      32.938  21.320  -3.221  0.00  0.00     0.053 C 
HETATM   23  C   UNK N   1      33.945  20.887  -4.212  0.00  0.00     0.149 C 
HETATM   24  H   UNK N   1      27.649  27.396  -5.832  0.00  0.00     0.210 HD
ENDROOT
TORSDOF 0
ENDMDL
MODEL 9
REMARK VINA RESULT:      -6.9     10.737     12.747
REMARK  0 active torsions:
REMARK  status: ('A' for Active; 'I' for Inactive)
ROOT
HETATM    1  O   UNK N   1      28.207  19.011   3.848  0.00  0.00    -0.389 OA
HETATM    2  O   UNK N   1      36.367  14.352   7.721  0.00  0.00    -0.293 OA
HETATM    3  C   UNK N   1      29.463  17.644   5.988  0.00  0.00     0.001 C 
HETATM    4  C   UNK N   1      28.863  16.888   4.801  0.00  0.00    -0.009 C 
HETATM    5  C   UNK N   1      30.591  16.840   6.683  0.00  0.00    -0.001 C 
HETATM    6  C   UNK N   1      31.684  16.496   5.619  0.00  0.00     0.003 C 
HETATM    7  C   UNK N   1      27.714  17.829   4.413  0.00  0.00     0.062 C 
HETATM    8  C   UNK N   1      32.768  15.567   6.229  0.00  0.00    -0.016 C 
HETATM    9  C   UNK N   1      29.941  16.672   3.739  0.00  0.00     0.013 C 
HETATM   10  C   UNK N   1      31.086  15.849   4.344  0.00  0.00     0.007 C 
HETATM   11  C   UNK N   1      28.221  18.000   6.807  0.00  0.00     0.009 C 
HETATM   12  C   UNK N   1      31.277  17.643   7.816  0.00  0.00    -0.010 C 
HETATM   13  C   UNK N   1      27.090  18.164   5.771  0.00  0.00     0.038 C 
HETATM   14  C   UNK N   1      32.413  16.867   8.480  0.00  0.00     0.039 C 
HETATM   15  C   UNK N   1      33.325  16.161   7.515  0.00  0.00    -0.067 C 
HETATM   16  C   UNK N   1      28.298  15.513   5.224  0.00  0.00     0.018 C 
HETATM   17  C   UNK N   1      33.916  15.380   5.219  0.00  0.00     0.022 C 
HETATM   18  C   UNK N   1      26.705  17.219   3.451  0.00  0.00     0.046 C 
HETATM   19  C   UNK N   1      32.166  14.196   6.557  0.00  0.00     0.020 C 
HETATM   20  C   UNK N   1      30.315  18.062   8.914  0.00  0.00     0.010 C 
HETATM   21  C   UNK N   1      35.060  14.518   5.768  0.00  0.00     0.084 C 
HETATM   22  C   UNK N   1      34.505  15.733   7.993  0.00  0.00     0.053 C 
HETATM   23  C   UNK N   1      35.384  14.850   7.198  0.00  0.00     0.149 C 
HETATM   24  H   UNK N   1      28.572  19.873   3.593  0.00  0.00     0.210 HD
ENDROOT
TORSDOF 0
ENDMDL
