MODEL 1
REMARK VINA RESULT:      -6.9      0.000      0.000
REMARK  2 active torsions:
REMARK  status: ('A' for Active; 'I' for Inactive)
REMARK    1  A    between atoms: C_12  and  O_2 
REMARK    2  A    between atoms: O_3  and  C_20 
ROOT
HETATM    1  O   UNK N   1      31.891  16.743   7.816  0.00  0.00    -0.339 OA
HETATM    2  N   UNK N   1      29.165  15.093   3.815  0.00  0.00     0.089 N 
HETATM    3  C   UNK N   1      31.152  16.167   5.682  0.00  0.00     0.026 C 
HETATM    4  C   UNK N   1      31.233  16.460   4.182  0.00  0.00     0.035 C 
HETATM    5  C   UNK N   1      32.424  16.359   6.574  0.00  0.00     0.171 C 
HETATM    6  C   UNK N   1      29.754  16.442   3.653  0.00  0.00     0.232 C 
HETATM    7  C   UNK N   1      30.584  14.746   5.859  0.00  0.00     0.048 C 
HETATM    8  C   UNK N   1      30.251  17.093   6.371  0.00  0.00    -0.004 A 
HETATM    9  C   UNK N   1      31.985  17.765   3.932  0.00  0.00     0.010 C 
HETATM   10  C   UNK N   1      33.264  17.555   6.060  0.00  0.00     0.148 C 
HETATM   11  C   UNK N   1      28.820  17.478   4.369  0.00  0.00     0.075 C 
HETATM   12  C   UNK N   1      33.386  17.631   4.539  0.00  0.00     0.035 C 
HETATM   13  C   UNK N   1      29.202  14.595   5.200  0.00  0.00     0.273 C 
HETATM   14  C   UNK N   1      29.110  17.660   5.843  0.00  0.00    -0.046 A 
HETATM   15  C   UNK N   1      30.685  17.305   7.626  0.00  0.00     0.110 A 
HETATM   16  C   UNK N   1      29.798  14.116   2.935  0.00  0.00     0.310 C 
HETATM   17  C   UNK N   1      28.324  18.460   6.693  0.00  0.00     0.011 A 
HETATM   18  C   UNK N   1      29.925  18.073   8.514  0.00  0.00     0.099 A 
HETATM   19  C   UNK N   1      28.721  18.642   8.043  0.00  0.00     0.040 A 
ENDROOT
BRANCH  10  20
HETATM   20  O   UNK N   1      34.528  17.557   6.655  0.00  0.00    -0.393 OA
HETATM   21  H   UNK N   1      34.946  18.388   6.927  0.00  0.00     0.210 HD
ENDBRANCH  10  20
BRANCH  18  22
HETATM   22  O   UNK N   1      30.337  18.280   9.776  0.00  0.00    -0.358 OA
HETATM   23  H   UNK N   1      30.196  19.095  10.216  0.00  0.00     0.217 HD
ENDBRANCH  18  22
TORSDOF 2
ENDMDL
MODEL 2
REMARK VINA RESULT:      -6.8      2.509      5.009
REMARK  2 active torsions:
REMARK  status: ('A' for Active; 'I' for Inactive)
REMARK    1  A    between atoms: C_12  and  O_2 
REMARK    2  A    between atoms: O_3  and  C_20 
ROOT
HETATM    1  O   UNK N   1      29.623  16.287   5.770  0.00  0.00    -0.339 OA
HETATM    2  N   UNK N   1      33.911  15.689   8.494  0.00  0.00     0.089 N 
HETATM    3  C   UNK N   1      31.268  16.359   7.419  0.00  0.00     0.026 C 
HETATM    4  C   UNK N   1      31.876  17.150   8.581  0.00  0.00     0.035 C 
HETATM    5  C   UNK N   1      29.726  16.429   7.164  0.00  0.00     0.171 C 
HETATM    6  C   UNK N   1      33.433  17.087   8.383  0.00  0.00     0.232 C 
HETATM    7  C   UNK N   1      31.722  14.893   7.553  0.00  0.00     0.048 C 
HETATM    8  C   UNK N   1      31.735  16.851   6.122  0.00  0.00    -0.004 A 
HETATM    9  C   UNK N   1      31.295  18.560   8.630  0.00  0.00     0.010 C 
HETATM   10  C   UNK N   1      29.188  17.841   7.509  0.00  0.00     0.148 C 
HETATM   11  C   UNK N   1      33.914  17.667   7.009  0.00  0.00     0.075 C 
HETATM   12  C   UNK N   1      29.774  18.443   8.785  0.00  0.00     0.035 C 
HETATM   13  C   UNK N   1      33.255  14.765   7.554  0.00  0.00     0.273 C 
HETATM   14  C   UNK N   1      32.979  17.383   5.854  0.00  0.00    -0.046 A 
HETATM   15  C   UNK N   1      30.771  16.690   5.198  0.00  0.00     0.110 A 
HETATM   16  C   UNK N   1      33.772  15.174   9.852  0.00  0.00     0.310 C 
HETATM   17  C   UNK N   1      33.273  17.720   4.520  0.00  0.00     0.011 A 
HETATM   18  C   UNK N   1      31.024  16.989   3.856  0.00  0.00     0.099 A 
HETATM   19  C   UNK N   1      32.298  17.494   3.512  0.00  0.00     0.040 A 
ENDROOT
BRANCH  10  20
HETATM   20  O   UNK N   1      27.793  17.834   7.564  0.00  0.00    -0.393 OA
HETATM   21  H   UNK N   1      27.276  17.285   6.956  0.00  0.00     0.210 HD
ENDBRANCH  10  20
BRANCH  18  22
HETATM   22  O   UNK N   1      30.077  16.818   2.919  0.00  0.00    -0.358 OA
HETATM   23  H   UNK N   1      30.166  17.167   2.053  0.00  0.00     0.217 HD
ENDBRANCH  18  22
TORSDOF 2
ENDMDL
MODEL 3
REMARK VINA RESULT:      -6.7      8.204      9.706
REMARK  2 active torsions:
REMARK  status: ('A' for Active; 'I' for Inactive)
REMARK    1  A    between atoms: C_12  and  O_2 
REMARK    2  A    between atoms: O_3  and  C_20 
ROOT
HETATM    1  O   UNK N   1      20.865  12.636   9.750  0.00  0.00    -0.339 OA
HETATM    2  N   UNK N   1      24.009  12.397   5.724  0.00  0.00     0.089 N 
HETATM    3  C   UNK N   1      22.710  12.383   8.351  0.00  0.00     0.026 C 
HETATM    4  C   UNK N   1      24.233  12.472   8.219  0.00  0.00     0.035 C 
HETATM    5  C   UNK N   1      22.080  11.933   9.711  0.00  0.00     0.171 C 
HETATM    6  C   UNK N   1      24.511  13.206   6.859  0.00  0.00     0.232 C 
HETATM    7  C   UNK N   1      22.184  11.504   7.201  0.00  0.00     0.048 C 
HETATM    8  C   UNK N   1      22.076  13.696   8.231  0.00  0.00    -0.004 A 
HETATM    9  C   UNK N   1      24.838  13.149   9.446  0.00  0.00     0.010 C 
HETATM   10  C   UNK N   1      22.934  12.451  10.896  0.00  0.00     0.148 C 
HETATM   11  C   UNK N   1      23.866  14.632   6.773  0.00  0.00     0.075 C 
HETATM   12  C   UNK N   1      24.442  12.335  10.683  0.00  0.00     0.035 C 
HETATM   13  C   UNK N   1      22.579  12.065   5.823  0.00  0.00     0.273 C 
HETATM   14  C   UNK N   1      22.516  14.744   7.447  0.00  0.00    -0.046 A 
HETATM   15  C   UNK N   1      20.966  13.739   8.989  0.00  0.00     0.110 A 
HETATM   16  C   UNK N   1      24.779  11.169   5.551  0.00  0.00     0.310 C 
HETATM   17  C   UNK N   1      21.719  15.902   7.396  0.00  0.00     0.011 A 
HETATM   18  C   UNK N   1      20.130  14.860   8.952  0.00  0.00     0.099 A 
HETATM   19  C   UNK N   1      20.505  15.947   8.131  0.00  0.00     0.040 A 
ENDROOT
BRANCH  10  20
HETATM   20  O   UNK N   1      22.555  11.823  12.084  0.00  0.00    -0.393 OA
HETATM   21  H   UNK N   1      23.124  11.861  12.867  0.00  0.00     0.210 HD
ENDBRANCH  10  20
BRANCH  18  22
HETATM   22  O   UNK N   1      19.009  14.911   9.691  0.00  0.00    -0.358 OA
HETATM   23  H   UNK N   1      18.551  14.136   9.952  0.00  0.00     0.217 HD
ENDBRANCH  18  22
TORSDOF 2
ENDMDL
MODEL 4
REMARK VINA RESULT:      -6.6     13.289     14.587
REMARK  2 active torsions:
REMARK  status: ('A' for Active; 'I' for Inactive)
REMARK    1  A    between atoms: C_12  and  O_2 
REMARK    2  A    between atoms: O_3  and  C_20 
ROOT
HETATM    1  O   UNK N   1      26.111  25.067  -3.370  0.00  0.00    -0.339 OA
HETATM    2  N   UNK N   1      27.071  24.146  -8.308  0.00  0.00     0.089 N 
HETATM    3  C   UNK N   1      27.000  24.299  -5.382  0.00  0.00     0.026 C 
HETATM    4  C   UNK N   1      28.247  23.806  -6.121  0.00  0.00     0.035 C 
HETATM    5  C   UNK N   1      26.817  23.959  -3.866  0.00  0.00     0.171 C 
HETATM    6  C   UNK N   1      28.253  24.543  -7.507  0.00  0.00     0.232 C 
HETATM    7  C   UNK N   1      25.764  23.850  -6.184  0.00  0.00     0.048 C 
HETATM    8  C   UNK N   1      26.961  25.760  -5.292  0.00  0.00    -0.004 A 
HETATM    9  C   UNK N   1      29.495  24.032  -5.272  0.00  0.00     0.010 C 
HETATM   10  C   UNK N   1      28.191  23.947  -3.149  0.00  0.00     0.148 C 
HETATM   11  C   UNK N   1      28.265  26.106  -7.386  0.00  0.00     0.075 C 
HETATM   12  C   UNK N   1      29.312  23.283  -3.948  0.00  0.00     0.035 C 
HETATM   13  C   UNK N   1      25.789  24.385  -7.626  0.00  0.00     0.273 C 
HETATM   14  C   UNK N   1      27.451  26.645  -6.230  0.00  0.00    -0.046 A 
HETATM   15  C   UNK N   1      26.351  26.132  -4.154  0.00  0.00     0.110 A 
HETATM   16  C   UNK N   1      27.143  22.749  -8.724  0.00  0.00     0.310 C 
HETATM   17  C   UNK N   1      27.242  28.018  -6.005  0.00  0.00     0.011 A 
HETATM   18  C   UNK N   1      26.100  27.484  -3.897  0.00  0.00     0.099 A 
HETATM   19  C   UNK N   1      26.537  28.436  -4.846  0.00  0.00     0.040 A 
ENDROOT
BRANCH  10  20
HETATM   20  O   UNK N   1      28.079  23.369  -1.884  0.00  0.00    -0.393 OA
HETATM   21  H   UNK N   1      28.633  22.614  -1.633  0.00  0.00     0.210 HD
ENDBRANCH  10  20
BRANCH  18  22
HETATM   22  O   UNK N   1      25.476  27.870  -2.772  0.00  0.00    -0.358 OA
HETATM   23  H   UNK N   1      24.701  27.443  -2.462  0.00  0.00     0.217 HD
ENDBRANCH  18  22
TORSDOF 2
ENDMDL
MODEL 5
REMARK VINA RESULT:      -6.5     12.008     13.698
REMARK  2 active torsions:
REMARK  status: ('A' for Active; 'I' for Inactive)
REMARK    1  A    between atoms: C_12  and  O_2 
REMARK    2  A    between atoms: O_3  and  C_20 
ROOT
HETATM    1  O   UNK N   1      29.200  24.685  -3.431  0.00  0.00    -0.339 OA
HETATM    2  N   UNK N   1      29.662  23.516  -8.389  0.00  0.00     0.089 N 
HETATM    3  C   UNK N   1      28.804  24.264  -5.689  0.00  0.00     0.026 C 
HETATM    4  C   UNK N   1      27.795  23.799  -6.742  0.00  0.00     0.035 C 
HETATM    5  C   UNK N   1      28.302  25.066  -4.442  0.00  0.00     0.171 C 
HETATM    6  C   UNK N   1      28.570  22.808  -7.681  0.00  0.00     0.232 C 
HETATM    7  C   UNK N   1      29.920  25.043  -6.411  0.00  0.00     0.048 C 
HETATM    8  C   UNK N   1      29.429  23.136  -4.996  0.00  0.00    -0.004 A 
HETATM    9  C   UNK N   1      26.557  23.208  -6.072  0.00  0.00     0.010 C 
HETATM   10  C   UNK N   1      26.903  24.562  -4.008  0.00  0.00     0.148 C 
HETATM   11  C   UNK N   1      29.185  21.580  -6.925  0.00  0.00     0.075 C 
HETATM   12  C   UNK N   1      25.947  24.284  -5.167  0.00  0.00     0.035 C 
HETATM   13  C   UNK N   1      30.612  24.187  -7.487  0.00  0.00     0.273 C 
HETATM   14  C   UNK N   1      29.711  21.901  -5.543  0.00  0.00    -0.046 A 
HETATM   15  C   UNK N   1      29.717  23.481  -3.728  0.00  0.00     0.110 A 
HETATM   16  C   UNK N   1      29.147  24.482  -9.353  0.00  0.00     0.310 C 
HETATM   17  C   UNK N   1      30.396  20.971  -4.740  0.00  0.00     0.011 A 
HETATM   18  C   UNK N   1      30.418  22.599  -2.900  0.00  0.00     0.099 A 
HETATM   19  C   UNK N   1      30.776  21.334  -3.421  0.00  0.00     0.040 A 
ENDROOT
BRANCH  10  20
HETATM   20  O   UNK N   1      26.325  25.447  -3.095  0.00  0.00    -0.393 OA
HETATM   21  H   UNK N   1      25.514  25.209  -2.620  0.00  0.00     0.210 HD
ENDBRANCH  10  20
BRANCH  18  22
HETATM   22  O   UNK N   1      30.728  22.934  -1.637  0.00  0.00    -0.358 OA
HETATM   23  H   UNK N   1      31.005  22.297  -1.008  0.00  0.00     0.217 HD
ENDBRANCH  18  22
TORSDOF 2
ENDMDL
MODEL 6
REMARK VINA RESULT:      -6.5     13.726     15.370
REMARK  2 active torsions:
REMARK  status: ('A' for Active; 'I' for Inactive)
REMARK    1  A    between atoms: C_12  and  O_2 
REMARK    2  A    between atoms: O_3  and  C_20 
ROOT
HETATM    1  O   UNK N   1      26.800  24.708  -4.039  0.00  0.00    -0.339 OA
HETATM    2  N   UNK N   1      27.621  29.750  -3.786  0.00  0.00     0.089 N 
HETATM    3  C   UNK N   1      26.886  26.996  -4.469  0.00  0.00     0.026 C 
HETATM    4  C   UNK N   1      26.935  28.093  -5.537  0.00  0.00     0.035 C 
HETATM    5  C   UNK N   1      26.082  25.684  -4.750  0.00  0.00     0.171 C 
HETATM    6  C   UNK N   1      28.028  29.116  -5.062  0.00  0.00     0.232 C 
HETATM    7  C   UNK N   1      26.418  27.639  -3.150  0.00  0.00     0.048 C 
HETATM    8  C   UNK N   1      28.205  26.408  -4.232  0.00  0.00    -0.004 A 
HETATM    9  C   UNK N   1      27.184  27.486  -6.915  0.00  0.00     0.010 C 
HETATM   10  C   UNK N   1      26.179  25.305  -6.250  0.00  0.00     0.148 C 
HETATM   11  C   UNK N   1      29.444  28.474  -4.865  0.00  0.00     0.075 C 
HETATM   12  C   UNK N   1      26.057  26.489  -7.207  0.00  0.00     0.035 C 
HETATM   13  C   UNK N   1      27.345  28.785  -2.709  0.00  0.00     0.273 C 
HETATM   14  C   UNK N   1      29.415  27.065  -4.313  0.00  0.00    -0.046 A 
HETATM   15  C   UNK N   1      28.074  25.112  -3.895  0.00  0.00     0.110 A 
HETATM   16  C   UNK N   1      26.465  30.623  -3.959  0.00  0.00     0.310 C 
HETATM   17  C   UNK N   1      30.574  26.347  -3.962  0.00  0.00     0.011 A 
HETATM   18  C   UNK N   1      29.193  24.366  -3.516  0.00  0.00     0.099 A 
HETATM   19  C   UNK N   1      30.456  24.999  -3.534  0.00  0.00     0.040 A 
ENDROOT
BRANCH  10  20
HETATM   20  O   UNK N   1      25.244  24.318  -6.567  0.00  0.00    -0.393 OA
HETATM   21  H   UNK N   1      25.211  23.935  -7.457  0.00  0.00     0.210 HD
ENDBRANCH  10  20
BRANCH  18  22
HETATM   22  O   UNK N   1      29.076  23.075  -3.160  0.00  0.00    -0.358 OA
HETATM   23  H   UNK N   1      28.953  22.395  -3.794  0.00  0.00     0.217 HD
ENDBRANCH  18  22
TORSDOF 2
ENDMDL
MODEL 7
REMARK VINA RESULT:      -6.2      2.795      4.448
REMARK  2 active torsions:
REMARK  status: ('A' for Active; 'I' for Inactive)
REMARK    1  A    between atoms: C_12  and  O_2 
REMARK    2  A    between atoms: O_3  and  C_20 
ROOT
HETATM    1  O   UNK N   1      31.623  16.975   4.169  0.00  0.00    -0.339 OA
HETATM    2  N   UNK N   1      33.472  17.190   8.933  0.00  0.00     0.089 N 
HETATM    3  C   UNK N   1      32.632  16.493   6.213  0.00  0.00     0.026 C 
HETATM    4  C   UNK N   1      32.990  15.411   7.236  0.00  0.00     0.035 C 
HETATM    5  C   UNK N   1      32.626  16.140   4.688  0.00  0.00     0.171 C 
HETATM    6  C   UNK N   1      32.631  16.004   8.644  0.00  0.00     0.232 C 
HETATM    7  C   UNK N   1      33.534  17.713   6.477  0.00  0.00     0.048 C 
HETATM    8  C   UNK N   1      31.242  16.932   6.349  0.00  0.00    -0.004 A 
HETATM    9  C   UNK N   1      32.285  14.100   6.896  0.00  0.00     0.010 C 
HETATM   10  C   UNK N   1      32.147  14.682   4.476  0.00  0.00     0.148 C 
HETATM   11  C   UNK N   1      31.126  16.419   8.784  0.00  0.00     0.075 C 
HETATM   12  C   UNK N   1      32.711  13.682   5.484  0.00  0.00     0.035 C 
HETATM   13  C   UNK N   1      33.375  18.245   7.912  0.00  0.00     0.273 C 
HETATM   14  C   UNK N   1      30.524  17.004   7.525  0.00  0.00    -0.046 A 
HETATM   15  C   UNK N   1      30.754  17.286   5.147  0.00  0.00     0.110 A 
HETATM   16  C   UNK N   1      34.873  16.828   9.121  0.00  0.00     0.310 C 
HETATM   17  C   UNK N   1      29.223  17.537   7.465  0.00  0.00     0.011 A 
HETATM   18  C   UNK N   1      29.476  17.842   5.041  0.00  0.00     0.099 A 
HETATM   19  C   UNK N   1      28.709  17.984   6.219  0.00  0.00     0.040 A 
ENDROOT
BRANCH  10  20
HETATM   20  O   UNK N   1      32.411  14.265   3.170  0.00  0.00    -0.393 OA
HETATM   21  H   UNK N   1      32.774  13.384   2.995  0.00  0.00     0.210 HD
ENDBRANCH  10  20
BRANCH  18  22
HETATM   22  O   UNK N   1      28.981  18.216   3.849  0.00  0.00    -0.358 OA
HETATM   23  H   UNK N   1      28.325  17.715   3.405  0.00  0.00     0.217 HD
ENDBRANCH  18  22
TORSDOF 2
ENDMDL
MODEL 8
REMARK VINA RESULT:      -6.2      7.399      9.038
REMARK  2 active torsions:
REMARK  status: ('A' for Active; 'I' for Inactive)
REMARK    1  A    between atoms: C_12  and  O_2 
REMARK    2  A    between atoms: O_3  and  C_20 
ROOT
HETATM    1  O   UNK N   1      23.472  19.651   4.300  0.00  0.00    -0.339 OA
HETATM    2  N   UNK N   1      20.830  15.421   5.431  0.00  0.00     0.089 N 
HETATM    3  C   UNK N   1      22.812  17.454   4.704  0.00  0.00     0.026 C 
HETATM    4  C   UNK N   1      23.037  15.974   4.382  0.00  0.00     0.035 C 
HETATM    5  C   UNK N   1      24.032  18.433   4.720  0.00  0.00     0.171 C 
HETATM    6  C   UNK N   1      21.612  15.350   4.175  0.00  0.00     0.232 C 
HETATM    7  C   UNK N   1      22.040  17.538   6.034  0.00  0.00     0.048 C 
HETATM    8  C   UNK N   1      22.003  18.117   3.680  0.00  0.00    -0.004 A 
HETATM    9  C   UNK N   1      23.980  15.824   3.191  0.00  0.00     0.010 C 
HETATM   10  C   UNK N   1      25.065  18.021   3.641  0.00  0.00     0.148 C 
HETATM   11  C   UNK N   1      20.784  16.041   3.038  0.00  0.00     0.075 C 
HETATM   12  C   UNK N   1      25.302  16.516   3.539  0.00  0.00     0.035 C 
HETATM   13  C   UNK N   1      20.700  16.785   5.969  0.00  0.00     0.273 C 
HETATM   14  C   UNK N   1      20.992  17.537   2.941  0.00  0.00    -0.046 A 
HETATM   15  C   UNK N   1      22.372  19.405   3.568  0.00  0.00     0.110 A 
HETATM   16  C   UNK N   1      21.380  14.547   6.462  0.00  0.00     0.310 C 
HETATM   17  C   UNK N   1      20.267  18.364   2.063  0.00  0.00     0.011 A 
HETATM   18  C   UNK N   1      21.668  20.270   2.726  0.00  0.00     0.099 A 
HETATM   19  C   UNK N   1      20.590  19.744   1.978  0.00  0.00     0.040 A 
ENDROOT
BRANCH  10  20
HETATM   20  O   UNK N   1      26.272  18.697   3.836  0.00  0.00    -0.393 OA
HETATM   21  H   UNK N   1      27.010  18.580   3.219  0.00  0.00     0.210 HD
ENDBRANCH  10  20
BRANCH  18  22
HETATM   22  O   UNK N   1      22.014  21.563   2.615  0.00  0.00    -0.358 OA
HETATM   23  H   UNK N   1      21.909  22.039   1.814  0.00  0.00     0.217 HD
ENDBRANCH  18  22
TORSDOF 2
ENDMDL
MODEL 9
REMARK VINA RESULT:      -6.0      8.534     10.412
REMARK  2 active torsions:
REMARK  status: ('A' for Active; 'I' for Inactive)
REMARK    1  A    between atoms: C_12  and  O_2 
REMARK    2  A    between atoms: O_3  and  C_20 
ROOT
HETATM    1  O   UNK N   1      19.950  18.285   2.887  0.00  0.00    -0.339 OA
HETATM    2  N   UNK N   1      22.232  14.770   5.819  0.00  0.00     0.089 N 
HETATM    3  C   UNK N   1      21.402  17.135   4.301  0.00  0.00     0.026 C 
HETATM    4  C   UNK N   1      22.844  16.971   4.790  0.00  0.00     0.035 C 
HETATM    5  C   UNK N   1      20.881  18.556   3.904  0.00  0.00     0.171 C 
HETATM    6  C   UNK N   1      23.118  15.426   4.829  0.00  0.00     0.232 C 
HETATM    7  C   UNK N   1      20.471  16.497   5.349  0.00  0.00     0.048 C 
HETATM    8  C   UNK N   1      21.176  16.447   3.030  0.00  0.00    -0.004 A 
HETATM    9  C   UNK N   1      23.802  17.768   3.907  0.00  0.00     0.010 C 
HETATM   10  C   UNK N   1      22.020  19.384   3.257  0.00  0.00     0.148 C 
HETATM   11  C   UNK N   1      22.921  14.718   3.444  0.00  0.00     0.075 C 
HETATM   12  C   UNK N   1      23.375  19.239   3.948  0.00  0.00     0.035 C 
HETATM   13  C   UNK N   1      20.800  15.012   5.581  0.00  0.00     0.273 C 
HETATM   14  C   UNK N   1      21.783  15.279   2.618  0.00  0.00    -0.046 A 
HETATM   15  C   UNK N   1      20.258  17.112   2.307  0.00  0.00     0.110 A 
HETATM   16  C   UNK N   1      22.566  15.156   7.186  0.00  0.00     0.310 C 
HETATM   17  C   UNK N   1      21.369  14.722   1.394  0.00  0.00     0.011 A 
HETATM   18  C   UNK N   1      19.798  16.586   1.096  0.00  0.00     0.099 A 
HETATM   19  C   UNK N   1      20.349  15.366   0.645  0.00  0.00     0.040 A 
ENDROOT
BRANCH  10  20
HETATM   20  O   UNK N   1      21.656  20.730   3.165  0.00  0.00    -0.393 OA
HETATM   21  H   UNK N   1      20.724  20.993   3.188  0.00  0.00     0.210 HD
ENDBRANCH  10  20
BRANCH  18  22
HETATM   22  O   UNK N   1      18.868  17.230   0.370  0.00  0.00    -0.358 OA
HETATM   23  H   UNK N   1      19.099  17.864  -0.282  0.00  0.00     0.217 HD
ENDBRANCH  18  22
TORSDOF 2
ENDMDL
