MODEL 1
REMARK VINA RESULT:      -5.3      0.000      0.000
REMARK  4 active torsions:
REMARK  status: ('A' for Active; 'I' for Inactive)
REMARK    1  A    between atoms: N_3  and  C_4 
REMARK    2  A    between atoms: N_3  and  C_9 
REMARK    3  A    between atoms: C_4  and  C_5 
REMARK    4  A    between atoms: C_5  and  C_6 
ROOT
HETATM    1  O   UNK N   1      33.160  17.485   8.439  0.00  0.00    -0.323 OA
HETATM    2  O   UNK N   1      34.634  17.726   6.803  0.00  0.00    -0.323 OA
HETATM    3  C   UNK N   1      30.736  17.222   5.686  0.00  0.00    -0.053 A 
HETATM    4  C   UNK N   1      31.172  17.243   7.025  0.00  0.00     0.047 A 
HETATM    5  C   UNK N   1      31.683  17.389   4.641  0.00  0.00     0.010 A 
HETATM    6  C   UNK N   1      32.529  17.428   7.267  0.00  0.00     0.105 A 
HETATM    7  C   UNK N   1      33.419  17.575   6.281  0.00  0.00     0.105 A 
HETATM    8  C   UNK N   1      33.048  17.565   4.938  0.00  0.00     0.040 A 
HETATM    9  C   UNK N   1      34.524  17.676   8.198  0.00  0.00     0.352 A 
ENDROOT
BRANCH   3  10
HETATM   10  C   UNK N   1      29.270  16.994   5.425  0.00  0.00     0.063 C 
BRANCH  10  11
HETATM   11  C   UNK N   1      28.328  18.201   5.430  0.00  0.00     0.076 C 
HETATM   12  C   UNK N   1      27.406  18.197   4.216  0.00  0.00     0.032 C 
BRANCH  11  13
HETATM   13  N   UNK N   1      27.526  18.119   6.644  0.00  0.00    -0.417 N 
HETATM   14  H   UNK N   1      26.721  17.506   6.777  0.00  0.00     0.153 HD
BRANCH  13  15
HETATM   15  C   UNK N   1      28.049  19.045   7.634  0.00  0.00     0.110 C 
HETATM   16  C   UNK N   1      28.213  18.318   8.954  0.00  0.00     0.026 C 
ENDBRANCH  13  15
ENDBRANCH  11  13
ENDBRANCH  10  11
ENDBRANCH   3  10
TORSDOF 4
ENDMDL
MODEL 2
REMARK VINA RESULT:      -5.2      9.716     11.145
REMARK  4 active torsions:
REMARK  status: ('A' for Active; 'I' for Inactive)
REMARK    1  A    between atoms: N_3  and  C_4 
REMARK    2  A    between atoms: N_3  and  C_9 
REMARK    3  A    between atoms: C_4  and  C_5 
REMARK    4  A    between atoms: C_5  and  C_6 
ROOT
HETATM    1  O   UNK N   1      24.262  12.954  10.107  0.00  0.00    -0.323 OA
HETATM    2  O   UNK N   1      23.337  11.619  11.613  0.00  0.00    -0.323 OA
HETATM    3  C   UNK N   1      20.797  14.041   9.520  0.00  0.00    -0.053 A 
HETATM    4  C   UNK N   1      22.194  14.022   9.336  0.00  0.00     0.047 A 
HETATM    5  C   UNK N   1      20.208  13.174  10.479  0.00  0.00     0.010 A 
HETATM    6  C   UNK N   1      22.942  13.144  10.112  0.00  0.00     0.105 A 
HETATM    7  C   UNK N   1      22.386  12.336  11.020  0.00  0.00     0.105 A 
HETATM    8  C   UNK N   1      21.012  12.309  11.246  0.00  0.00     0.040 A 
HETATM    9  C   UNK N   1      24.571  11.978  11.059  0.00  0.00     0.352 A 
ENDROOT
BRANCH   3  10
HETATM   10  C   UNK N   1      19.991  15.012   8.699  0.00  0.00     0.063 C 
BRANCH  10  11
HETATM   11  C   UNK N   1      20.515  16.441   8.531  0.00  0.00     0.076 C 
HETATM   12  C   UNK N   1      21.188  16.635   7.177  0.00  0.00     0.032 C 
BRANCH  11  13
HETATM   13  N   UNK N   1      19.369  17.338   8.631  0.00  0.00    -0.417 N 
HETATM   14  H   UNK N   1      19.335  18.291   8.270  0.00  0.00     0.153 HD
BRANCH  13  15
HETATM   15  C   UNK N   1      18.286  16.663   9.325  0.00  0.00     0.110 C 
HETATM   16  C   UNK N   1      16.962  17.206   8.824  0.00  0.00     0.026 C 
ENDBRANCH  13  15
ENDBRANCH  11  13
ENDBRANCH  10  11
ENDBRANCH   3  10
TORSDOF 4
ENDMDL
MODEL 3
REMARK VINA RESULT:      -5.0     13.815     15.475
REMARK  4 active torsions:
REMARK  status: ('A' for Active; 'I' for Inactive)
REMARK    1  A    between atoms: N_3  and  C_4 
REMARK    2  A    between atoms: N_3  and  C_9 
REMARK    3  A    between atoms: C_4  and  C_5 
REMARK    4  A    between atoms: C_5  and  C_6 
ROOT
HETATM    1  O   UNK N   1      25.376  24.630  -7.276  0.00  0.00    -0.323 OA
HETATM    2  O   UNK N   1      26.358  23.082  -6.032  0.00  0.00    -0.323 OA
HETATM    3  C   UNK N   1      25.912  26.772  -4.334  0.00  0.00    -0.053 A 
HETATM    4  C   UNK N   1      25.487  26.452  -5.639  0.00  0.00     0.047 A 
HETATM    5  C   UNK N   1      26.530  25.773  -3.537  0.00  0.00     0.010 A 
HETATM    6  C   UNK N   1      25.696  25.154  -6.093  0.00  0.00     0.105 A 
HETATM    7  C   UNK N   1      26.286  24.218  -5.343  0.00  0.00     0.105 A 
HETATM    8  C   UNK N   1      26.725  24.475  -4.046  0.00  0.00     0.040 A 
HETATM    9  C   UNK N   1      25.782  23.292  -7.291  0.00  0.00     0.352 A 
ENDROOT
BRANCH   3  10
HETATM   10  C   UNK N   1      25.711  28.185  -3.855  0.00  0.00     0.063 C 
BRANCH  10  11
HETATM   11  C   UNK N   1      26.941  29.078  -3.669  0.00  0.00     0.076 C 
HETATM   12  C   UNK N   1      26.706  30.479  -4.222  0.00  0.00     0.032 C 
BRANCH  11  13
HETATM   13  N   UNK N   1      27.203  29.164  -2.237  0.00  0.00    -0.417 N 
HETATM   14  H   UNK N   1      26.543  28.905  -1.502  0.00  0.00     0.153 HD
BRANCH  13  15
HETATM   15  C   UNK N   1      28.545  29.674  -2.019  0.00  0.00     0.110 C 
HETATM   16  C   UNK N   1      28.718  30.004  -0.550  0.00  0.00     0.026 C 
ENDBRANCH  13  15
ENDBRANCH  11  13
ENDBRANCH  10  11
ENDBRANCH   3  10
TORSDOF 4
ENDMDL
MODEL 4
REMARK VINA RESULT:      -4.9      3.501      4.959
REMARK  4 active torsions:
REMARK  status: ('A' for Active; 'I' for Inactive)
REMARK    1  A    between atoms: N_3  and  C_4 
REMARK    2  A    between atoms: N_3  and  C_9 
REMARK    3  A    between atoms: C_4  and  C_5 
REMARK    4  A    between atoms: C_5  and  C_6 
ROOT
HETATM    1  O   UNK N   1      34.546  13.773  12.102  0.00  0.00    -0.323 OA
HETATM    2  O   UNK N   1      36.080  15.322  12.496  0.00  0.00    -0.323 OA
HETATM    3  C   UNK N   1      33.684  15.915   9.239  0.00  0.00    -0.053 A 
HETATM    4  C   UNK N   1      33.584  14.799  10.094  0.00  0.00     0.047 A 
HETATM    5  C   UNK N   1      34.661  16.911   9.503  0.00  0.00     0.010 A 
HETATM    6  C   UNK N   1      34.461  14.723  11.171  0.00  0.00     0.105 A 
HETATM    7  C   UNK N   1      35.385  15.657  11.412  0.00  0.00     0.105 A 
HETATM    8  C   UNK N   1      35.530  16.783  10.603  0.00  0.00     0.040 A 
HETATM    9  C   UNK N   1      35.578  14.109  12.984  0.00  0.00     0.352 A 
ENDROOT
BRANCH   3  10
HETATM   10  C   UNK N   1      32.754  15.982   8.057  0.00  0.00     0.063 C 
BRANCH  10  11
HETATM   11  C   UNK N   1      31.852  17.210   7.902  0.00  0.00     0.076 C 
HETATM   12  C   UNK N   1      30.952  17.094   6.678  0.00  0.00     0.032 C 
BRANCH  11  13
HETATM   13  N   UNK N   1      31.026  17.295   9.101  0.00  0.00    -0.417 N 
HETATM   14  H   UNK N   1      30.947  16.569   9.813  0.00  0.00     0.153 HD
BRANCH  13  15
HETATM   15  C   UNK N   1      30.334  18.572   9.123  0.00  0.00     0.110 C 
HETATM   16  C   UNK N   1      28.865  18.334   9.408  0.00  0.00     0.026 C 
ENDBRANCH  13  15
ENDBRANCH  11  13
ENDBRANCH  10  11
ENDBRANCH   3  10
TORSDOF 4
ENDMDL
MODEL 5
REMARK VINA RESULT:      -4.9     14.295     16.465
REMARK  4 active torsions:
REMARK  status: ('A' for Active; 'I' for Inactive)
REMARK    1  A    between atoms: N_3  and  C_4 
REMARK    2  A    between atoms: N_3  and  C_9 
REMARK    3  A    between atoms: C_4  and  C_5 
REMARK    4  A    between atoms: C_5  and  C_6 
ROOT
HETATM    1  O   UNK N   1      28.376  29.664  -6.563  0.00  0.00    -0.323 OA
HETATM    2  O   UNK N   1      27.861  30.829  -4.750  0.00  0.00    -0.323 OA
HETATM    3  C   UNK N   1      25.875  27.295  -5.272  0.00  0.00    -0.053 A 
HETATM    4  C   UNK N   1      26.840  27.793  -6.170  0.00  0.00     0.047 A 
HETATM    5  C   UNK N   1      25.557  28.041  -4.106  0.00  0.00     0.010 A 
HETATM    6  C   UNK N   1      27.445  29.009  -5.869  0.00  0.00     0.105 A 
HETATM    7  C   UNK N   1      27.137  29.712  -4.776  0.00  0.00     0.105 A 
HETATM    8  C   UNK N   1      26.192  29.271  -3.851  0.00  0.00     0.040 A 
HETATM    9  C   UNK N   1      28.682  30.847  -5.885  0.00  0.00     0.352 A 
ENDROOT
BRANCH   3  10
HETATM   10  C   UNK N   1      25.201  25.993  -5.614  0.00  0.00     0.063 C 
BRANCH  10  11
HETATM   11  C   UNK N   1      26.013  24.698  -5.511  0.00  0.00     0.076 C 
HETATM   12  C   UNK N   1      26.373  24.375  -4.066  0.00  0.00     0.032 C 
BRANCH  11  13
HETATM   13  N   UNK N   1      25.187  23.625  -6.053  0.00  0.00    -0.417 N 
HETATM   14  H   UNK N   1      24.180  23.532  -5.917  0.00  0.00     0.153 HD
BRANCH  13  15
HETATM   15  C   UNK N   1      26.020  22.710  -6.814  0.00  0.00     0.110 C 
HETATM   16  C   UNK N   1      25.317  22.363  -8.111  0.00  0.00     0.026 C 
ENDBRANCH  13  15
ENDBRANCH  11  13
ENDBRANCH  10  11
ENDBRANCH   3  10
TORSDOF 4
ENDMDL
MODEL 6
REMARK VINA RESULT:      -4.9      2.323      3.755
REMARK  4 active torsions:
REMARK  status: ('A' for Active; 'I' for Inactive)
REMARK    1  A    between atoms: N_3  and  C_4 
REMARK    2  A    between atoms: N_3  and  C_9 
REMARK    3  A    between atoms: C_4  and  C_5 
REMARK    4  A    between atoms: C_5  and  C_6 
ROOT
HETATM    1  O   UNK N   1      34.450  15.645  10.470  0.00  0.00    -0.323 OA
HETATM    2  O   UNK N   1      35.484  17.564  10.075  0.00  0.00    -0.323 OA
HETATM    3  C   UNK N   1      32.748  16.360   7.289  0.00  0.00    -0.053 A 
HETATM    4  C   UNK N   1      33.058  15.627   8.452  0.00  0.00     0.047 A 
HETATM    5  C   UNK N   1      33.405  17.595   7.046  0.00  0.00     0.010 A 
HETATM    6  C   UNK N   1      34.007  16.155   9.321  0.00  0.00     0.105 A 
HETATM    7  C   UNK N   1      34.630  17.313   9.085  0.00  0.00     0.105 A 
HETATM    8  C   UNK N   1      34.365  18.082   7.954  0.00  0.00     0.040 A 
HETATM    9  C   UNK N   1      35.407  16.515  10.999  0.00  0.00     0.352 A 
ENDROOT
BRANCH   3  10
HETATM   10  C   UNK N   1      31.741  15.774   6.334  0.00  0.00     0.063 C 
BRANCH  10  11
HETATM   11  C   UNK N   1      30.444  16.544   6.073  0.00  0.00     0.076 C 
HETATM   12  C   UNK N   1      30.050  17.402   7.270  0.00  0.00     0.032 C 
BRANCH  11  13
HETATM   13  N   UNK N   1      30.676  17.405   4.920  0.00  0.00    -0.417 N 
HETATM   14  H   UNK N   1      30.621  18.425   4.926  0.00  0.00     0.153 HD
BRANCH  13  15
HETATM   15  C   UNK N   1      30.996  16.589   3.762  0.00  0.00     0.110 C 
HETATM   16  C   UNK N   1      32.262  17.117   3.117  0.00  0.00     0.026 C 
ENDBRANCH  13  15
ENDBRANCH  11  13
ENDBRANCH  10  11
ENDBRANCH   3  10
TORSDOF 4
ENDMDL
MODEL 7
REMARK VINA RESULT:      -4.9     10.715     12.512
REMARK  4 active torsions:
REMARK  status: ('A' for Active; 'I' for Inactive)
REMARK    1  A    between atoms: N_3  and  C_4 
REMARK    2  A    between atoms: N_3  and  C_9 
REMARK    3  A    between atoms: C_4  and  C_5 
REMARK    4  A    between atoms: C_5  and  C_6 
ROOT
HETATM    1  O   UNK N   1      32.045  21.603  -4.326  0.00  0.00    -0.323 OA
HETATM    2  O   UNK N   1      31.916  21.905  -2.135  0.00  0.00    -0.323 OA
HETATM    3  C   UNK N   1      28.809  23.351  -4.360  0.00  0.00    -0.053 A 
HETATM    4  C   UNK N   1      29.927  22.694  -4.909  0.00  0.00     0.047 A 
HETATM    5  C   UNK N   1      28.726  23.532  -2.954  0.00  0.00     0.010 A 
HETATM    6  C   UNK N   1      30.913  22.246  -4.037  0.00  0.00     0.105 A 
HETATM    7  C   UNK N   1      30.837  22.425  -2.714  0.00  0.00     0.105 A 
HETATM    8  C   UNK N   1      29.755  23.066  -2.114  0.00  0.00     0.040 A 
HETATM    9  C   UNK N   1      32.732  21.358  -3.134  0.00  0.00     0.352 A 
ENDROOT
BRANCH   3  10
HETATM   10  C   UNK N   1      27.755  23.861  -5.308  0.00  0.00     0.063 C 
BRANCH  10  11
HETATM   11  C   UNK N   1      26.352  24.142  -4.762  0.00  0.00     0.076 C 
HETATM   12  C   UNK N   1      26.134  25.630  -4.516  0.00  0.00     0.032 C 
BRANCH  11  13
HETATM   13  N   UNK N   1      25.398  23.675  -5.761  0.00  0.00    -0.417 N 
HETATM   14  H   UNK N   1      24.400  23.891  -5.768  0.00  0.00     0.153 HD
BRANCH  13  15
HETATM   15  C   UNK N   1      26.086  22.853  -6.742  0.00  0.00     0.110 C 
HETATM   16  C   UNK N   1      25.112  21.841  -7.312  0.00  0.00     0.026 C 
ENDBRANCH  13  15
ENDBRANCH  11  13
ENDBRANCH  10  11
ENDBRANCH   3  10
TORSDOF 4
ENDMDL
MODEL 8
REMARK VINA RESULT:      -4.9      9.259     11.716
REMARK  4 active torsions:
REMARK  status: ('A' for Active; 'I' for Inactive)
REMARK    1  A    between atoms: N_3  and  C_4 
REMARK    2  A    between atoms: N_3  and  C_9 
REMARK    3  A    between atoms: C_4  and  C_5 
REMARK    4  A    between atoms: C_5  and  C_6 
ROOT
HETATM    1  O   UNK N   1      18.261  15.996   9.537  0.00  0.00    -0.323 OA
HETATM    2  O   UNK N   1      19.285  17.178   7.969  0.00  0.00    -0.323 OA
HETATM    3  C   UNK N   1      21.200  13.804   9.249  0.00  0.00    -0.053 A 
HETATM    4  C   UNK N   1      19.957  14.238   9.751  0.00  0.00     0.047 A 
HETATM    5  C   UNK N   1      21.847  14.559   8.235  0.00  0.00     0.010 A 
HETATM    6  C   UNK N   1      19.413  15.404   9.223  0.00  0.00     0.105 A 
HETATM    7  C   UNK N   1      20.028  16.118   8.275  0.00  0.00     0.105 A 
HETATM    8  C   UNK N   1      21.257  15.737   7.740  0.00  0.00     0.040 A 
HETATM    9  C   UNK N   1      18.128  17.148   8.757  0.00  0.00     0.352 A 
ENDROOT
BRANCH   3  10
HETATM   10  C   UNK N   1      21.801  12.557   9.842  0.00  0.00     0.063 C 
BRANCH  10  11
HETATM   11  C   UNK N   1      23.075  12.686  10.683  0.00  0.00     0.076 C 
HETATM   12  C   UNK N   1      22.982  11.872  11.969  0.00  0.00     0.032 C 
BRANCH  11  13
HETATM   13  N   UNK N   1      24.180  12.184   9.875  0.00  0.00    -0.417 N 
HETATM   14  H   UNK N   1      24.281  11.223   9.548  0.00  0.00     0.153 HD
BRANCH  13  15
HETATM   15  C   UNK N   1      25.114  13.265   9.609  0.00  0.00     0.110 C 
HETATM   16  C   UNK N   1      25.156  13.527   8.117  0.00  0.00     0.026 C 
ENDBRANCH  13  15
ENDBRANCH  11  13
ENDBRANCH  10  11
ENDBRANCH   3  10
TORSDOF 4
ENDMDL
MODEL 9
REMARK VINA RESULT:      -4.8     12.743     14.737
REMARK  4 active torsions:
REMARK  status: ('A' for Active; 'I' for Inactive)
REMARK    1  A    between atoms: N_3  and  C_4 
REMARK    2  A    between atoms: N_3  and  C_9 
REMARK    3  A    between atoms: C_4  and  C_5 
REMARK    4  A    between atoms: C_5  and  C_6 
ROOT
HETATM    1  O   UNK N   1      35.108  11.118  15.060  0.00  0.00    -0.323 OA
HETATM    2  O   UNK N   1      34.752  13.303  15.001  0.00  0.00    -0.323 OA
HETATM    3  C   UNK N   1      35.351  11.652  18.691  0.00  0.00    -0.053 A 
HETATM    4  C   UNK N   1      35.355  10.914  17.490  0.00  0.00     0.047 A 
HETATM    5  C   UNK N   1      35.133  13.055  18.647  0.00  0.00     0.010 A 
HETATM    6  C   UNK N   1      35.142  11.602  16.301  0.00  0.00     0.105 A 
HETATM    7  C   UNK N   1      34.929  12.921  16.263  0.00  0.00     0.105 A 
HETATM    8  C   UNK N   1      34.915  13.703  17.416  0.00  0.00     0.040 A 
HETATM    9  C   UNK N   1      34.858  12.175  14.179  0.00  0.00     0.352 A 
ENDROOT
BRANCH   3  10
HETATM   10  C   UNK N   1      35.552  10.901  19.980  0.00  0.00     0.063 C 
BRANCH  10  11
HETATM   11  C   UNK N   1      34.363  10.149  20.584  0.00  0.00     0.076 C 
HETATM   12  C   UNK N   1      34.752   8.740  21.018  0.00  0.00     0.032 C 
BRANCH  11  13
HETATM   13  N   UNK N   1      33.917  10.905  21.748  0.00  0.00    -0.417 N 
HETATM   14  H   UNK N   1      34.384  11.729  22.128  0.00  0.00     0.153 HD
BRANCH  13  15
HETATM   15  C   UNK N   1      32.708  10.303  22.283  0.00  0.00     0.110 C 
HETATM   16  C   UNK N   1      32.711  10.442  23.792  0.00  0.00     0.026 C 
ENDBRANCH  13  15
ENDBRANCH  11  13
ENDBRANCH  10  11
ENDBRANCH   3  10
TORSDOF 4
ENDMDL
