MODEL 1
REMARK VINA RESULT:      -7.3      0.000      0.000
REMARK  1 active torsions:
REMARK  status: ('A' for Active; 'I' for Inactive)
REMARK    1  A    between atoms: C_9  and  C_11 
ROOT
HETATM    1 Cl   UNK N   1      28.298  17.555   9.462  0.00  0.00    -0.084 Cl
HETATM    2  O   UNK N   1      32.494  16.567   2.600  0.00  0.00    -0.271 OA
HETATM    3  N   UNK N   1      31.937  17.116   4.702  0.00  0.00    -0.320 N 
HETATM    4  N   UNK N   1      29.275  16.922   3.235  0.00  0.00    -0.380 N 
ATOM      5  HN  UNK N   1      28.805  17.121   2.351  1.00  0.00     0.160 HD
HETATM    6  C   UNK N   1      29.563  17.384   5.618  0.00  0.00     0.020 A 
HETATM    7  C   UNK N   1      30.986  17.185   5.785  0.00  0.00     0.049 A 
HETATM    8  C   UNK N   1      28.858  17.555   4.281  0.00  0.00     0.054 C 
HETATM    9  C   UNK N   1      30.338  15.967   3.210  0.00  0.00     0.223 C 
HETATM   10  C   UNK N   1      31.640  16.602   3.478  0.00  0.00     0.241 C 
HETATM   11  C   UNK N   1      28.779  17.468   6.779  0.00  0.00     0.040 A 
HETATM   12  C   UNK N   1      31.507  17.138   7.095  0.00  0.00     0.032 A 
HETATM   13  C   UNK N   1      33.306  17.516   4.958  0.00  0.00     0.159 C 
HETATM   14  C   UNK N   1      29.327  17.396   8.056  0.00  0.00     0.035 A 
HETATM   15  C   UNK N   1      30.693  17.238   8.214  0.00  0.00     0.026 A 
ENDROOT
BRANCH   8  16
HETATM   16  C   UNK N   1      27.583  18.367   4.076  0.00  0.00     0.030 A 
HETATM   17  C   UNK N   1      27.429  19.777   4.244  0.00  0.00     0.128 A 
HETATM   18  F   UNK N   1      28.446  20.600   4.572  0.00  0.00    -0.205 F 
HETATM   19  C   UNK N   1      26.183  20.380   4.024  0.00  0.00     0.043 A 
HETATM   20  C   UNK N   1      25.082  19.627   3.626  0.00  0.00     0.003 A 
HETATM   21  C   UNK N   1      25.217  18.259   3.430  0.00  0.00     0.001 A 
HETATM   22  C   UNK N   1      26.446  17.643   3.652  0.00  0.00     0.017 A 
ENDBRANCH   8  16
TORSDOF 1
ENDMDL
MODEL 2
REMARK VINA RESULT:      -7.0      8.823     10.757
REMARK  1 active torsions:
REMARK  status: ('A' for Active; 'I' for Inactive)
REMARK    1  A    between atoms: C_9  and  C_11 
ROOT
HETATM    1 Cl   UNK N   1      20.582  11.076   4.760  0.00  0.00    -0.084 Cl
HETATM    2  O   UNK N   1      20.686  18.677   7.568  0.00  0.00    -0.271 OA
HETATM    3  N   UNK N   1      20.974  16.881   6.255  0.00  0.00    -0.320 N 
HETATM    4  N   UNK N   1      20.641  15.732   9.055  0.00  0.00    -0.380 N 
ATOM      5  HN  UNK N   1      20.873  15.879  10.038  1.00  0.00     0.160 HD
HETATM    6  C   UNK N   1      20.905  14.435   7.000  0.00  0.00     0.020 A 
HETATM    7  C   UNK N   1      20.841  15.470   5.991  0.00  0.00     0.049 A 
HETATM    8  C   UNK N   1      21.127  14.679   8.486  0.00  0.00     0.054 C 
HETATM    9  C   UNK N   1      19.810  16.709   8.427  0.00  0.00     0.223 C 
HETATM   10  C   UNK N   1      20.549  17.471   7.405  0.00  0.00     0.241 C 
HETATM   11  C   UNK N   1      20.797  13.103   6.572  0.00  0.00     0.040 A 
HETATM   12  C   UNK N   1      20.726  15.081   4.640  0.00  0.00     0.032 A 
HETATM   13  C   UNK N   1      21.489  17.736   5.203  0.00  0.00     0.159 C 
HETATM   14  C   UNK N   1      20.664  12.760   5.230  0.00  0.00     0.035 A 
HETATM   15  C   UNK N   1      20.635  13.749   4.263  0.00  0.00     0.026 A 
ENDROOT
BRANCH   8  16
HETATM   16  C   UNK N   1      21.817  13.697   9.427  0.00  0.00     0.030 A 
HETATM   17  C   UNK N   1      21.215  12.976  10.503  0.00  0.00     0.128 A 
HETATM   18  F   UNK N   1      19.901  13.044  10.799  0.00  0.00    -0.205 F 
HETATM   19  C   UNK N   1      21.989  12.110  11.289  0.00  0.00     0.043 A 
HETATM   20  C   UNK N   1      23.344  11.925  11.030  0.00  0.00     0.003 A 
HETATM   21  C   UNK N   1      23.942  12.595   9.972  0.00  0.00     0.001 A 
HETATM   22  C   UNK N   1      23.189  13.465   9.186  0.00  0.00     0.017 A 
ENDBRANCH   8  16
TORSDOF 1
ENDMDL
MODEL 3
REMARK VINA RESULT:      -6.7     11.970     13.141
REMARK  1 active torsions:
REMARK  status: ('A' for Active; 'I' for Inactive)
REMARK    1  A    between atoms: C_9  and  C_11 
ROOT
HETATM    1 Cl   UNK N   1      31.088  23.319  -3.755  0.00  0.00    -0.084 Cl
HETATM    2  O   UNK N   1      25.141  21.686  -9.012  0.00  0.00    -0.271 OA
HETATM    3  N   UNK N   1      27.172  22.042  -8.128  0.00  0.00    -0.320 N 
HETATM    4  N   UNK N   1      25.253  23.440  -6.219  0.00  0.00    -0.380 N 
ATOM      5  HN  UNK N   1      24.402  23.999  -6.171  1.00  0.00     0.160 HD
HETATM    6  C   UNK N   1      27.674  23.259  -5.935  0.00  0.00     0.020 A 
HETATM    7  C   UNK N   1      28.031  22.366  -7.015  0.00  0.00     0.049 A 
HETATM    8  C   UNK N   1      26.347  23.992  -5.812  0.00  0.00     0.054 C 
HETATM    9  C   UNK N   1      25.134  22.111  -6.733  0.00  0.00     0.223 C 
HETATM   10  C   UNK N   1      25.816  21.970  -8.031  0.00  0.00     0.241 C 
HETATM   11  C   UNK N   1      28.641  23.500  -4.946  0.00  0.00     0.040 A 
HETATM   12  C   UNK N   1      29.336  21.833  -7.042  0.00  0.00     0.032 A 
HETATM   13  C   UNK N   1      27.783  21.671  -9.388  0.00  0.00     0.159 C 
HETATM   14  C   UNK N   1      29.914  22.939  -4.996  0.00  0.00     0.035 A 
HETATM   15  C   UNK N   1      30.264  22.110  -6.047  0.00  0.00     0.026 A 
ENDROOT
BRANCH   8  16
HETATM   16  C   UNK N   1      26.169  25.344  -5.127  0.00  0.00     0.030 A 
HETATM   17  C   UNK N   1      26.383  25.639  -3.746  0.00  0.00     0.128 A 
HETATM   18  F   UNK N   1      26.831  24.732  -2.855  0.00  0.00    -0.205 F 
HETATM   19  C   UNK N   1      26.168  26.938  -3.263  0.00  0.00     0.043 A 
HETATM   20  C   UNK N   1      25.760  27.961  -4.114  0.00  0.00     0.003 A 
HETATM   21  C   UNK N   1      25.574  27.702  -5.465  0.00  0.00     0.001 A 
HETATM   22  C   UNK N   1      25.776  26.415  -5.960  0.00  0.00     0.017 A 
ENDBRANCH   8  16
TORSDOF 1
ENDMDL
MODEL 4
REMARK VINA RESULT:      -6.5     14.140     15.706
REMARK  1 active torsions:
REMARK  status: ('A' for Active; 'I' for Inactive)
REMARK    1  A    between atoms: C_9  and  C_11 
ROOT
HETATM    1 Cl   UNK N   1      29.300  27.910 -10.331  0.00  0.00    -0.084 Cl
HETATM    2  O   UNK N   1      25.287  27.888  -3.291  0.00  0.00    -0.271 OA
HETATM    3  N   UNK N   1      26.875  28.205  -4.843  0.00  0.00    -0.320 N 
HETATM    4  N   UNK N   1      25.169  25.939  -5.952  0.00  0.00    -0.380 N 
ATOM      5  HN  UNK N   1      24.650  25.098  -5.696  1.00  0.00     0.160 HD
HETATM    6  C   UNK N   1      27.073  26.978  -7.079  0.00  0.00     0.020 A 
HETATM    7  C   UNK N   1      27.374  28.079  -6.190  0.00  0.00     0.049 A 
HETATM    8  C   UNK N   1      26.193  25.789  -6.725  0.00  0.00     0.054 C 
HETATM    9  C   UNK N   1      24.703  27.181  -5.421  0.00  0.00     0.223 C 
HETATM   10  C   UNK N   1      25.656  27.746  -4.450  0.00  0.00     0.241 C 
HETATM   11  C   UNK N   1      27.672  26.986  -8.348  0.00  0.00     0.040 A 
HETATM   12  C   UNK N   1      28.285  29.064  -6.627  0.00  0.00     0.032 A 
HETATM   13  C   UNK N   1      27.663  28.950  -3.880  0.00  0.00     0.159 C 
HETATM   14  C   UNK N   1      28.551  27.986  -8.751  0.00  0.00     0.035 A 
HETATM   15  C   UNK N   1      28.863  29.022  -7.889  0.00  0.00     0.026 A 
ENDROOT
BRANCH   8  16
HETATM   16  C   UNK N   1      26.358  24.389  -7.310  0.00  0.00     0.030 A 
HETATM   17  C   UNK N   1      25.671  23.845  -8.438  0.00  0.00     0.128 A 
HETATM   18  F   UNK N   1      24.792  24.549  -9.180  0.00  0.00    -0.205 F 
HETATM   19  C   UNK N   1      25.930  22.531  -8.852  0.00  0.00     0.043 A 
HETATM   20  C   UNK N   1      26.862  21.740  -8.188  0.00  0.00     0.003 A 
HETATM   21  C   UNK N   1      27.561  22.259  -7.106  0.00  0.00     0.001 A 
HETATM   22  C   UNK N   1      27.311  23.561  -6.677  0.00  0.00     0.017 A 
ENDBRANCH   8  16
TORSDOF 1
ENDMDL
MODEL 5
REMARK VINA RESULT:      -6.4      4.136      5.913
REMARK  1 active torsions:
REMARK  status: ('A' for Active; 'I' for Inactive)
REMARK    1  A    between atoms: C_9  and  C_11 
ROOT
HETATM    1 Cl   UNK N   1      34.722  13.786   3.090  0.00  0.00    -0.084 Cl
HETATM    2  O   UNK N   1      34.989  17.403  10.337  0.00  0.00    -0.271 OA
HETATM    3  N   UNK N   1      35.137  15.865   8.711  0.00  0.00    -0.320 N 
HETATM    4  N   UNK N   1      33.189  17.938   7.622  0.00  0.00    -0.380 N 
ATOM      5  HN  UNK N   1      32.422  18.561   7.878  1.00  0.00     0.160 HD
HETATM    6  C   UNK N   1      33.988  15.961   6.427  0.00  0.00     0.020 A 
HETATM    7  C   UNK N   1      34.996  15.458   7.334  0.00  0.00     0.049 A 
HETATM    8  C   UNK N   1      32.925  16.987   6.789  0.00  0.00     0.054 C 
HETATM    9  C   UNK N   1      34.463  18.190   8.219  0.00  0.00     0.223 C 
HETATM   10  C   UNK N   1      34.843  17.117   9.154  0.00  0.00     0.241 C 
HETATM   11  C   UNK N   1      33.961  15.431   5.128  0.00  0.00     0.040 A 
HETATM   12  C   UNK N   1      35.856  14.435   6.881  0.00  0.00     0.032 A 
HETATM   13  C   UNK N   1      35.719  14.930   9.653  0.00  0.00     0.159 C 
HETATM   14  C   UNK N   1      34.840  14.436   4.710  0.00  0.00     0.035 A 
HETATM   15  C   UNK N   1      35.784  13.933   5.589  0.00  0.00     0.026 A 
ENDROOT
BRANCH   8  16
HETATM   16  C   UNK N   1      31.542  17.058   6.149  0.00  0.00     0.030 A 
HETATM   17  C   UNK N   1      31.220  17.583   4.860  0.00  0.00     0.128 A 
HETATM   18  F   UNK N   1      32.145  18.055   4.000  0.00  0.00    -0.205 F 
HETATM   19  C   UNK N   1      29.891  17.584   4.413  0.00  0.00     0.043 A 
HETATM   20  C   UNK N   1      28.868  17.065   5.202  0.00  0.00     0.003 A 
HETATM   21  C   UNK N   1      29.163  16.525   6.447  0.00  0.00     0.001 A 
HETATM   22  C   UNK N   1      30.478  16.523   6.909  0.00  0.00     0.017 A 
ENDBRANCH   8  16
TORSDOF 1
ENDMDL
MODEL 6
REMARK VINA RESULT:      -6.3      4.362      6.987
REMARK  1 active torsions:
REMARK  status: ('A' for Active; 'I' for Inactive)
REMARK    1  A    between atoms: C_9  and  C_11 
ROOT
HETATM    1 Cl   UNK N   1      23.640  14.361   7.121  0.00  0.00    -0.084 Cl
HETATM    2  O   UNK N   1      23.310  21.137   2.687  0.00  0.00    -0.271 OA
HETATM    3  N   UNK N   1      22.731  19.239   3.734  0.00  0.00    -0.320 N 
HETATM    4  N   UNK N   1      25.751  19.035   3.402  0.00  0.00    -0.380 N 
ATOM      5  HN  UNK N   1      26.525  19.232   2.767  1.00  0.00     0.160 HD
HETATM    6  C   UNK N   1      24.326  17.411   4.545  0.00  0.00     0.020 A 
HETATM    7  C   UNK N   1      23.050  18.093   4.549  0.00  0.00     0.049 A 
HETATM    8  C   UNK N   1      25.517  17.796   3.680  0.00  0.00     0.054 C 
HETATM    9  C   UNK N   1      25.019  20.153   3.908  0.00  0.00     0.223 C 
HETATM   10  C   UNK N   1      23.644  20.183   3.379  0.00  0.00     0.241 C 
HETATM   11  C   UNK N   1      24.463  16.284   5.370  0.00  0.00     0.040 A 
HETATM   12  C   UNK N   1      22.008  17.561   5.337  0.00  0.00     0.032 A 
HETATM   13  C   UNK N   1      21.348  19.457   3.359  0.00  0.00     0.159 C 
HETATM   14  C   UNK N   1      23.416  15.800   6.150  0.00  0.00     0.035 A 
HETATM   15  C   UNK N   1      22.187  16.435   6.129  0.00  0.00     0.026 A 
ENDROOT
BRANCH   8  16
HETATM   16  C   UNK N   1      26.565  16.812   3.169  0.00  0.00     0.030 A 
HETATM   17  C   UNK N   1      26.342  15.688   2.316  0.00  0.00     0.128 A 
HETATM   18  F   UNK N   1      25.135  15.377   1.800  0.00  0.00    -0.205 F 
HETATM   19  C   UNK N   1      27.414  14.869   1.938  0.00  0.00     0.043 A 
HETATM   20  C   UNK N   1      28.710  15.137   2.370  0.00  0.00     0.003 A 
HETATM   21  C   UNK N   1      28.953  16.240   3.177  0.00  0.00     0.001 A 
HETATM   22  C   UNK N   1      27.897  17.061   3.568  0.00  0.00     0.017 A 
ENDBRANCH   8  16
TORSDOF 1
ENDMDL
MODEL 7
REMARK VINA RESULT:      -6.3     11.323     12.790
REMARK  1 active torsions:
REMARK  status: ('A' for Active; 'I' for Inactive)
REMARK    1  A    between atoms: C_9  and  C_11 
ROOT
HETATM    1 Cl   UNK N   1      28.974  23.250  -9.730  0.00  0.00    -0.084 Cl
HETATM    2  O   UNK N   1      30.817  22.990  -1.843  0.00  0.00    -0.271 OA
HETATM    3  N   UNK N   1      30.312  22.373  -3.940  0.00  0.00    -0.320 N 
HETATM    4  N   UNK N   1      29.298  25.236  -3.724  0.00  0.00    -0.380 N 
ATOM      5  HN  UNK N   1      28.841  25.903  -3.101  1.00  0.00     0.160 HD
HETATM    6  C   UNK N   1      29.232  23.845  -5.732  0.00  0.00     0.020 A 
HETATM    7  C   UNK N   1      29.988  22.686  -5.310  0.00  0.00     0.049 A 
HETATM    8  C   UNK N   1      28.663  24.901  -4.797  0.00  0.00     0.054 C 
HETATM    9  C   UNK N   1      30.584  24.752  -3.333  0.00  0.00     0.223 C 
HETATM   10  C   UNK N   1      30.541  23.320  -2.990  0.00  0.00     0.241 C 
HETATM   11  C   UNK N   1      28.967  23.983  -7.103  0.00  0.00     0.040 A 
HETATM   12  C   UNK N   1      30.369  21.742  -6.287  0.00  0.00     0.032 A 
HETATM   13  C   UNK N   1      30.509  20.984  -3.575  0.00  0.00     0.159 C 
HETATM   14  C   UNK N   1      29.378  23.040  -8.040  0.00  0.00     0.035 A 
HETATM   15  C   UNK N   1      30.074  21.915  -7.632  0.00  0.00     0.026 A 
ENDROOT
BRANCH   8  16
HETATM   16  C   UNK N   1      27.400  25.710  -5.077  0.00  0.00     0.030 A 
HETATM   17  C   UNK N   1      26.078  25.200  -5.255  0.00  0.00     0.128 A 
HETATM   18  F   UNK N   1      25.767  23.892  -5.145  0.00  0.00    -0.205 F 
HETATM   19  C   UNK N   1      25.015  26.076  -5.515  0.00  0.00     0.043 A 
HETATM   20  C   UNK N   1      25.220  27.450  -5.591  0.00  0.00     0.003 A 
HETATM   21  C   UNK N   1      26.493  27.969  -5.394  0.00  0.00     0.001 A 
HETATM   22  C   UNK N   1      27.561  27.112  -5.142  0.00  0.00     0.017 A 
ENDBRANCH   8  16
TORSDOF 1
ENDMDL
MODEL 8
REMARK VINA RESULT:      -6.1      6.654      9.793
REMARK  1 active torsions:
REMARK  status: ('A' for Active; 'I' for Inactive)
REMARK    1  A    between atoms: C_9  and  C_11 
ROOT
HETATM    1 Cl   UNK N   1      37.768  12.312   7.091  0.00  0.00    -0.084 Cl
HETATM    2  O   UNK N   1      31.685  17.421   8.689  0.00  0.00    -0.271 OA
HETATM    3  N   UNK N   1      33.573  16.543   7.856  0.00  0.00    -0.320 N 
HETATM    4  N   UNK N   1      33.041  14.939  10.389  0.00  0.00    -0.380 N 
ATOM      5  HN  UNK N   1      32.709  15.006  11.352  1.00  0.00     0.160 HD
HETATM    6  C   UNK N   1      34.869  14.556   8.813  0.00  0.00     0.020 A 
HETATM    7  C   UNK N   1      34.531  15.471   7.744  0.00  0.00     0.049 A 
HETATM    8  C   UNK N   1      34.272  14.591  10.212  0.00  0.00     0.054 C 
HETATM    9  C   UNK N   1      32.104  15.239   9.353  0.00  0.00     0.223 C 
HETATM   10  C   UNK N   1      32.464  16.477   8.641  0.00  0.00     0.241 C 
HETATM   11  C   UNK N   1      35.853  13.590   8.553  0.00  0.00     0.040 A 
HETATM   12  C   UNK N   1      35.240  15.372   6.529  0.00  0.00     0.032 A 
HETATM   13  C   UNK N   1      33.740  17.710   7.012  0.00  0.00     0.159 C 
HETATM   14  C   UNK N   1      36.517  13.511   7.333  0.00  0.00     0.035 A 
HETATM   15  C   UNK N   1      36.215  14.407   6.322  0.00  0.00     0.026 A 
ENDROOT
BRANCH   8  16
HETATM   16  C   UNK N   1      35.000  14.135  11.472  0.00  0.00     0.030 A 
HETATM   17  C   UNK N   1      35.067  12.805  11.989  0.00  0.00     0.128 A 
HETATM   18  F   UNK N   1      34.509  11.742  11.375  0.00  0.00    -0.205 F 
HETATM   19  C   UNK N   1      35.775  12.545  13.171  0.00  0.00     0.043 A 
HETATM   20  C   UNK N   1      36.435  13.564  13.851  0.00  0.00     0.003 A 
HETATM   21  C   UNK N   1      36.406  14.859  13.351  0.00  0.00     0.001 A 
HETATM   22  C   UNK N   1      35.701  15.136  12.182  0.00  0.00     0.017 A 
ENDBRANCH   8  16
TORSDOF 1
ENDMDL
MODEL 9
REMARK VINA RESULT:      -6.1      7.890      9.836
REMARK  1 active torsions:
REMARK  status: ('A' for Active; 'I' for Inactive)
REMARK    1  A    between atoms: C_9  and  C_11 
ROOT
HETATM    1 Cl   UNK N   1      23.061   9.377   5.533  0.00  0.00    -0.084 Cl
HETATM    2  O   UNK N   1      21.919  17.358   6.358  0.00  0.00    -0.271 OA
HETATM    3  N   UNK N   1      22.675  15.371   5.640  0.00  0.00    -0.320 N 
HETATM    4  N   UNK N   1      21.618  14.816   8.442  0.00  0.00    -0.380 N 
ATOM      5  HN  UNK N   1      21.549  15.198   9.386  1.00  0.00     0.160 HD
HETATM    6  C   UNK N   1      22.534  13.152   6.904  0.00  0.00     0.020 A 
HETATM    7  C   UNK N   1      22.704  13.931   5.697  0.00  0.00     0.049 A 
HETATM    8  C   UNK N   1      22.306  13.734   8.292  0.00  0.00     0.054 C 
HETATM    9  C   UNK N   1      20.948  15.527   7.399  0.00  0.00     0.223 C 
HETATM   10  C   UNK N   1      21.904  16.137   6.459  0.00  0.00     0.241 C 
HETATM   11  C   UNK N   1      22.631  11.756   6.796  0.00  0.00     0.040 A 
HETATM   12  C   UNK N   1      23.004  13.251   4.498  0.00  0.00     0.032 A 
HETATM   13  C   UNK N   1      23.420  16.037   4.590  0.00  0.00     0.159 C 
HETATM   14  C   UNK N   1      22.908  11.120   5.590  0.00  0.00     0.035 A 
HETATM   15  C   UNK N   1      23.101  11.867   4.441  0.00  0.00     0.026 A 
ENDROOT
BRANCH   8  16
HETATM   16  C   UNK N   1      22.752  13.069   9.590  0.00  0.00     0.030 A 
HETATM   17  C   UNK N   1      24.093  12.782   9.989  0.00  0.00     0.128 A 
HETATM   18  F   UNK N   1      25.173  13.122   9.256  0.00  0.00    -0.205 F 
HETATM   19  C   UNK N   1      24.343  12.156  11.218  0.00  0.00     0.043 A 
HETATM   20  C   UNK N   1      23.300  11.815  12.075  0.00  0.00     0.003 A 
HETATM   21  C   UNK N   1      21.991  12.110  11.718  0.00  0.00     0.001 A 
HETATM   22  C   UNK N   1      21.725  12.726  10.497  0.00  0.00     0.017 A 
ENDBRANCH   8  16
TORSDOF 1
ENDMDL
