REMARK  1 active torsions:
REMARK  status: ('A' for Active; 'I' for Inactive)
REMARK    1  A    between atoms: C_9  and  C_11 
ROOT
HETATM    1 Cl   UNK N   1       1.682  -4.112   0.558  0.00  0.00    -0.084 Cl
HETATM    2  O   UNK N   1       2.576   3.937   0.264  0.00  0.00    -0.271 OA
HETATM    3  N   UNK N   1       1.847   1.853  -0.134  0.00  0.00    -0.320 N 
HETATM    4  N   UNK N   1       4.629   1.474   1.046  0.00  0.00    -0.380 N 
ATOM      5  HN  UNK N   1       5.576   1.854   1.060  1.00  0.00     0.160 HD
HETATM    6  C   UNK N   1       3.086  -0.315   0.420  0.00  0.00     0.020 A 
HETATM    7  C   UNK N   1       1.889   0.430   0.096  0.00  0.00     0.049 A 
HETATM    8  C   UNK N   1       4.476   0.287   0.561  0.00  0.00     0.054 C 
HETATM    9  C   UNK N   1       3.585   2.302   1.563  0.00  0.00     0.223 C 
HETATM   10  C   UNK N   1       2.664   2.738   0.499  0.00  0.00     0.241 C 
HETATM   11  C   UNK N   1       2.964  -1.705   0.574  0.00  0.00     0.040 A 
HETATM   12  C   UNK N   1       0.687  -0.283  -0.095  0.00  0.00     0.032 A 
HETATM   13  C   UNK N   1       0.814   2.383  -1.002  0.00  0.00     0.159 C 
HETATM   14  C   UNK N   1       1.755  -2.371   0.397  0.00  0.00     0.035 A 
HETATM   15  C   UNK N   1       0.617  -1.661   0.056  0.00  0.00     0.026 A 
ENDROOT
BRANCH   8  16
HETATM   16  C   UNK N   1       5.773  -0.458   0.261  0.00  0.00     0.030 A 
HETATM   17  C   UNK N   1       5.905  -1.712  -0.410  0.00  0.00     0.128 A 
HETATM   18  F   UNK N   1       4.859  -2.393  -0.921  0.00  0.00    -0.205 F 
HETATM   19  C   UNK N   1       7.174  -2.275  -0.605  0.00  0.00     0.043 A 
HETATM   20  C   UNK N   1       8.323  -1.624  -0.166  0.00  0.00     0.003 A 
HETATM   21  C   UNK N   1       8.219  -0.391   0.464  0.00  0.00     0.001 A 
HETATM   22  C   UNK N   1       6.965   0.179   0.672  0.00  0.00     0.017 A 
ENDBRANCH   8  16
TORSDOF 1
