MODEL 1
REMARK VINA RESULT:      -6.8      0.000      0.000
REMARK  2 active torsions:
REMARK  status: ('A' for Active; 'I' for Inactive)
REMARK    1  A    between atoms: C_15  and  O_3 
REMARK    2  A    between atoms: O_4  and  C_21 
ROOT
HETATM    1  O   UNK N   1      31.596  16.323   8.744  0.00  0.00    -0.338 OA
HETATM    2  O   UNK N   1      34.111  13.832   4.175  0.00  0.00    -0.064 OA
HETATM    3  N   UNK N   1      32.921  14.473   4.054  0.00  0.00     0.015 N 
HETATM    4  C   UNK N   1      32.589  15.565   6.739  0.00  0.00     0.031 C 
HETATM    5  C   UNK N   1      33.661  16.122   5.788  0.00  0.00     0.063 C 
HETATM    6  C   UNK N   1      33.098  15.925   4.329  0.00  0.00     0.267 C 
HETATM    7  C   UNK N   1      32.805  15.785   8.283  0.00  0.00     0.175 C 
HETATM    8  C   UNK N   1      32.313  14.081   6.434  0.00  0.00     0.054 C 
HETATM    9  C   UNK N   1      31.363  16.361   6.545  0.00  0.00    -0.003 A 
HETATM   10  C   UNK N   1      31.955  13.844   4.963  0.00  0.00     0.313 C 
HETATM   11  C   UNK N   1      31.732  16.677   4.097  0.00  0.00     0.082 C 
HETATM   12  C   UNK N   1      30.873  16.816   5.333  0.00  0.00    -0.045 A 
HETATM   13  C   UNK N   1      33.994  16.755   8.509  0.00  0.00     0.171 C 
HETATM   14  C   UNK N   1      33.941  17.562   6.176  0.00  0.00    -0.020 C 
HETATM   15  C   UNK N   1      30.815  16.693   7.726  0.00  0.00     0.110 A 
HETATM   16  C   UNK N   1      34.084  17.864   7.482  0.00  0.00     0.004 C 
HETATM   17  C   UNK N   1      32.462  14.251   2.688  0.00  0.00     0.357 C 
HETATM   18  C   UNK N   1      29.677  17.553   5.337  0.00  0.00     0.011 A 
HETATM   19  C   UNK N   1      29.611  17.402   7.789  0.00  0.00     0.102 A 
HETATM   20  C   UNK N   1      29.021  17.810   6.564  0.00  0.00     0.040 A 
ENDROOT
BRANCH  13  21
HETATM   21  O   UNK N   1      34.024  17.253   9.813  0.00  0.00    -0.389 OA
HETATM   22  H   UNK N   1      33.691  16.715  10.547  0.00  0.00     0.210 HD
ENDBRANCH  13  21
BRANCH  19  23
HETATM   23  O   UNK N   1      29.054  17.687   8.989  0.00  0.00    -0.353 OA
HETATM   24  C   UNK N   1      29.522  18.687   9.813  0.00  0.00     0.210 C 
ENDBRANCH  19  23
TORSDOF 2
ENDMDL
MODEL 2
REMARK VINA RESULT:      -6.7      2.163      4.617
REMARK  2 active torsions:
REMARK  status: ('A' for Active; 'I' for Inactive)
REMARK    1  A    between atoms: C_15  and  O_3 
REMARK    2  A    between atoms: O_4  and  C_21 
ROOT
HETATM    1  O   UNK N   1      34.855  16.818   6.363  0.00  0.00    -0.338 OA
HETATM    2  O   UNK N   1      29.466  17.962   4.615  0.00  0.00    -0.064 OA
HETATM    3  N   UNK N   1      29.973  16.705   4.538  0.00  0.00     0.015 N 
HETATM    4  C   UNK N   1      32.567  17.061   5.824  0.00  0.00     0.031 C 
HETATM    5  C   UNK N   1      31.267  17.126   6.641  0.00  0.00     0.063 C 
HETATM    6  C   UNK N   1      30.240  16.183   5.906  0.00  0.00     0.267 C 
HETATM    7  C   UNK N   1      33.836  17.778   6.421  0.00  0.00     0.175 C 
HETATM    8  C   UNK N   1      32.319  17.515   4.373  0.00  0.00     0.054 C 
HETATM    9  C   UNK N   1      33.040  15.664   5.846  0.00  0.00    -0.003 A 
HETATM   10  C   UNK N   1      31.181  16.737   3.704  0.00  0.00     0.313 C 
HETATM   11  C   UNK N   1      30.742  14.692   5.815  0.00  0.00     0.082 C 
HETATM   12  C   UNK N   1      32.244  14.536   5.746  0.00  0.00    -0.045 A 
HETATM   13  C   UNK N   1      33.544  18.225   7.877  0.00  0.00     0.171 C 
HETATM   14  C   UNK N   1      31.584  16.735   8.073  0.00  0.00    -0.020 C 
HETATM   15  C   UNK N   1      34.361  15.608   6.084  0.00  0.00     0.110 A 
HETATM   16  C   UNK N   1      32.684  17.251   8.655  0.00  0.00     0.004 C 
HETATM   17  C   UNK N   1      28.975  15.891   3.853  0.00  0.00     0.357 C 
HETATM   18  C   UNK N   1      32.871  13.280   5.772  0.00  0.00     0.011 A 
HETATM   19  C   UNK N   1      35.041  14.386   6.095  0.00  0.00     0.102 A 
HETATM   20  C   UNK N   1      34.277  13.205   5.903  0.00  0.00     0.040 A 
ENDROOT
BRANCH  13  21
HETATM   21  O   UNK N   1      34.711  18.553   8.569  0.00  0.00    -0.389 OA
HETATM   22  H   UNK N   1      34.876  19.470   8.837  0.00  0.00     0.210 HD
ENDBRANCH  13  21
BRANCH  19  23
HETATM   23  O   UNK N   1      36.380  14.357   6.293  0.00  0.00    -0.353 OA
HETATM   24  C   UNK N   1      37.281  14.119   5.279  0.00  0.00     0.210 C 
ENDBRANCH  19  23
TORSDOF 2
ENDMDL
MODEL 3
REMARK VINA RESULT:      -6.7      1.972      2.530
REMARK  2 active torsions:
REMARK  status: ('A' for Active; 'I' for Inactive)
REMARK    1  A    between atoms: C_15  and  O_3 
REMARK    2  A    between atoms: O_4  and  C_21 
ROOT
HETATM    1  O   UNK N   1      32.028  16.335   7.198  0.00  0.00    -0.338 OA
HETATM    2  O   UNK N   1      30.549  13.631   2.308  0.00  0.00    -0.064 OA
HETATM    3  N   UNK N   1      29.654  14.400   2.979  0.00  0.00     0.015 N 
HETATM    4  C   UNK N   1      31.327  15.494   5.104  0.00  0.00     0.031 C 
HETATM    5  C   UNK N   1      31.514  15.939   3.645  0.00  0.00     0.063 C 
HETATM    6  C   UNK N   1      30.097  15.821   2.965  0.00  0.00     0.267 C 
HETATM    7  C   UNK N   1      32.551  15.671   6.079  0.00  0.00     0.175 C 
HETATM    8  C   UNK N   1      30.788  14.052   5.165  0.00  0.00     0.054 C 
HETATM    9  C   UNK N   1      30.371  16.422   5.735  0.00  0.00    -0.003 A 
HETATM   10  C   UNK N   1      29.509  13.871   4.341  0.00  0.00     0.313 C 
HETATM   11  C   UNK N   1      29.010  16.722   3.665  0.00  0.00     0.082 C 
HETATM   12  C   UNK N   1      29.232  16.941   5.144  0.00  0.00    -0.045 A 
HETATM   13  C   UNK N   1      33.658  16.503   5.379  0.00  0.00     0.171 C 
HETATM   14  C   UNK N   1      32.109  17.336   3.645  0.00  0.00    -0.020 C 
HETATM   15  C   UNK N   1      30.800  16.799   6.951  0.00  0.00     0.110 A 
HETATM   16  C   UNK N   1      33.125  17.606   4.489  0.00  0.00     0.004 C 
HETATM   17  C   UNK N   1      28.373  14.245   2.298  0.00  0.00     0.357 C 
HETATM   18  C   UNK N   1      28.426  17.804   5.904  0.00  0.00     0.011 A 
HETATM   19  C   UNK N   1      30.026  17.635   7.762  0.00  0.00     0.102 A 
HETATM   20  C   UNK N   1      28.802  18.119   7.232  0.00  0.00     0.040 A 
ENDROOT
BRANCH  13  21
HETATM   21  O   UNK N   1      34.606  16.980   6.284  0.00  0.00    -0.389 OA
HETATM   22  H   UNK N   1      35.467  17.293   5.967  0.00  0.00     0.210 HD
ENDBRANCH  13  21
BRANCH  19  23
HETATM   23  O   UNK N   1      30.458  17.967   9.002  0.00  0.00    -0.353 OA
HETATM   24  C   UNK N   1      29.690  18.684   9.894  0.00  0.00     0.210 C 
ENDBRANCH  19  23
TORSDOF 2
ENDMDL
MODEL 4
REMARK VINA RESULT:      -6.6      2.138      4.177
REMARK  2 active torsions:
REMARK  status: ('A' for Active; 'I' for Inactive)
REMARK    1  A    between atoms: C_15  and  O_3 
REMARK    2  A    between atoms: O_4  and  C_21 
ROOT
HETATM    1  O   UNK N   1      29.953  17.509   4.529  0.00  0.00    -0.338 OA
HETATM    2  O   UNK N   1      35.156  15.777   6.355  0.00  0.00    -0.064 OA
HETATM    3  N   UNK N   1      34.235  16.260   7.228  0.00  0.00     0.015 N 
HETATM    4  C   UNK N   1      31.934  16.634   5.473  0.00  0.00     0.031 C 
HETATM    5  C   UNK N   1      32.421  15.224   5.845  0.00  0.00     0.063 C 
HETATM    6  C   UNK N   1      33.061  15.346   7.280  0.00  0.00     0.267 C 
HETATM    7  C   UNK N   1      31.092  16.785   4.151  0.00  0.00     0.175 C 
HETATM    8  C   UNK N   1      33.106  17.633   5.487  0.00  0.00     0.054 C 
HETATM    9  C   UNK N   1      30.915  17.030   6.462  0.00  0.00    -0.003 A 
HETATM   10  C   UNK N   1      33.868  17.621   6.817  0.00  0.00     0.313 C 
HETATM   11  C   UNK N   1      32.037  15.862   8.361  0.00  0.00     0.082 C 
HETATM   12  C   UNK N   1      30.965  16.782   7.823  0.00  0.00    -0.045 A 
HETATM   13  C   UNK N   1      30.728  15.381   3.603  0.00  0.00     0.171 C 
HETATM   14  C   UNK N   1      31.243  14.272   5.749  0.00  0.00    -0.020 C 
HETATM   15  C   UNK N   1      29.851  17.586   5.859  0.00  0.00     0.110 A 
HETATM   16  C   UNK N   1      30.425  14.361   4.681  0.00  0.00     0.004 C 
HETATM   17  C   UNK N   1      34.891  16.344   8.527  0.00  0.00     0.357 C 
HETATM   18  C   UNK N   1      29.906  17.248   8.620  0.00  0.00     0.011 A 
HETATM   19  C   UNK N   1      28.781  18.091   6.604  0.00  0.00     0.102 A 
HETATM   20  C   UNK N   1      28.832  17.942   8.015  0.00  0.00     0.040 A 
ENDROOT
BRANCH  13  21
HETATM   21  O   UNK N   1      29.715  15.438   2.645  0.00  0.00    -0.389 OA
HETATM   22  H   UNK N   1      28.803  15.214   2.886  0.00  0.00     0.210 HD
ENDBRANCH  13  21
BRANCH  19  23
HETATM   23  O   UNK N   1      27.740  18.687   5.978  0.00  0.00    -0.353 OA
HETATM   24  C   UNK N   1      27.350  19.982   6.242  0.00  0.00     0.210 C 
ENDBRANCH  19  23
TORSDOF 2
ENDMDL
MODEL 5
REMARK VINA RESULT:      -6.6     14.564     16.665
REMARK  2 active torsions:
REMARK  status: ('A' for Active; 'I' for Inactive)
REMARK    1  A    between atoms: C_15  and  O_3 
REMARK    2  A    between atoms: O_4  and  C_21 
ROOT
HETATM    1  O   UNK N   1      26.803  24.900  -4.329  0.00  0.00    -0.338 OA
HETATM    2  O   UNK N   1      26.337  30.655  -4.052  0.00  0.00    -0.064 OA
HETATM    3  N   UNK N   1      27.501  30.032  -3.736  0.00  0.00     0.015 N 
HETATM    4  C   UNK N   1      26.856  27.262  -4.384  0.00  0.00     0.031 C 
HETATM    5  C   UNK N   1      27.028  28.311  -5.494  0.00  0.00     0.063 C 
HETATM    6  C   UNK N   1      28.062  29.366  -4.943  0.00  0.00     0.267 C 
HETATM    7  C   UNK N   1      26.003  25.982  -4.722  0.00  0.00     0.175 C 
HETATM    8  C   UNK N   1      26.355  27.922  -3.086  0.00  0.00     0.054 C 
HETATM    9  C   UNK N   1      28.170  26.630  -4.159  0.00  0.00    -0.003 A 
HETATM   10  C   UNK N   1      27.246  29.087  -2.642  0.00  0.00     0.313 C 
HETATM   11  C   UNK N   1      29.458  28.724  -4.593  0.00  0.00     0.082 C 
HETATM   12  C   UNK N   1      29.392  27.280  -4.149  0.00  0.00    -0.045 A 
HETATM   13  C   UNK N   1      25.693  25.950  -6.241  0.00  0.00     0.171 C 
HETATM   14  C   UNK N   1      27.457  27.598  -6.763  0.00  0.00    -0.020 C 
HETATM   15  C   UNK N   1      28.051  25.296  -4.065  0.00  0.00     0.110 A 
HETATM   16  C   UNK N   1      26.825  26.458  -7.109  0.00  0.00     0.004 C 
HETATM   17  C   UNK N   1      28.406  31.062  -3.239  0.00  0.00     0.357 C 
HETATM   18  C   UNK N   1      30.545  26.517  -3.903  0.00  0.00     0.011 A 
HETATM   19  C   UNK N   1      29.161  24.490  -3.795  0.00  0.00     0.102 A 
HETATM   20  C   UNK N   1      30.426  25.125  -3.683  0.00  0.00     0.040 A 
ENDROOT
BRANCH  13  21
HETATM   21  O   UNK N   1      25.243  24.696  -6.658  0.00  0.00    -0.389 OA
HETATM   22  H   UNK N   1      24.302  24.553  -6.844  0.00  0.00     0.210 HD
ENDBRANCH  13  21
BRANCH  19  23
HETATM   23  O   UNK N   1      29.011  23.151  -3.661  0.00  0.00    -0.353 OA
HETATM   24  C   UNK N   1      30.031  22.322  -3.247  0.00  0.00     0.210 C 
ENDBRANCH  19  23
TORSDOF 2
ENDMDL
MODEL 6
REMARK VINA RESULT:      -6.5     12.819     15.008
REMARK  2 active torsions:
REMARK  status: ('A' for Active; 'I' for Inactive)
REMARK    1  A    between atoms: C_15  and  O_3 
REMARK    2  A    between atoms: O_4  and  C_21 
ROOT
HETATM    1  O   UNK N   1      30.474  23.227  -4.909  0.00  0.00    -0.338 OA
HETATM    2  O   UNK N   1      26.929  27.636  -3.725  0.00  0.00    -0.064 OA
HETATM    3  N   UNK N   1      26.640  26.755  -4.717  0.00  0.00     0.015 N 
HETATM    4  C   UNK N   1      28.808  24.827  -4.410  0.00  0.00     0.031 C 
HETATM    5  C   UNK N   1      27.688  24.926  -3.363  0.00  0.00     0.063 C 
HETATM    6  C   UNK N   1      26.403  25.404  -4.140  0.00  0.00     0.267 C 
HETATM    7  C   UNK N   1      30.179  24.204  -3.948  0.00  0.00     0.175 C 
HETATM    8  C   UNK N   1      29.033  26.188  -5.094  0.00  0.00     0.054 C 
HETATM    9  C   UNK N   1      28.401  23.818  -5.405  0.00  0.00    -0.003 A 
HETATM   10  C   UNK N   1      27.743  26.764  -5.687  0.00  0.00     0.313 C 
HETATM   11  C   UNK N   1      25.979  24.407  -5.285  0.00  0.00     0.082 C 
HETATM   12  C   UNK N   1      27.125  23.648  -5.914  0.00  0.00    -0.045 A 
HETATM   13  C   UNK N   1      30.022  23.592  -2.532  0.00  0.00     0.171 C 
HETATM   14  C   UNK N   1      27.556  23.580  -2.675  0.00  0.00    -0.020 C 
HETATM   15  C   UNK N   1      29.419  22.990  -5.694  0.00  0.00     0.110 A 
HETATM   16  C   UNK N   1      28.678  22.937  -2.293  0.00  0.00     0.004 C 
HETATM   17  C   UNK N   1      25.447  27.255  -5.389  0.00  0.00     0.357 C 
HETATM   18  C   UNK N   1      26.922  22.639  -6.870  0.00  0.00     0.011 A 
HETATM   19  C   UNK N   1      29.282  21.986  -6.657  0.00  0.00     0.102 A 
HETATM   20  C   UNK N   1      28.013  21.834  -7.275  0.00  0.00     0.040 A 
ENDROOT
BRANCH  13  21
HETATM   21  O   UNK N   1      31.078  22.740  -2.208  0.00  0.00    -0.389 OA
HETATM   22  H   UNK N   1      31.409  22.698  -1.298  0.00  0.00     0.210 HD
ENDBRANCH  13  21
BRANCH  19  23
HETATM   23  O   UNK N   1      30.334  21.192  -6.964  0.00  0.00    -0.353 OA
HETATM   24  C   UNK N   1      30.232  19.822  -7.068  0.00  0.00     0.210 C 
ENDBRANCH  19  23
TORSDOF 2
ENDMDL
MODEL 7
REMARK VINA RESULT:      -6.3      9.563     11.609
REMARK  2 active torsions:
REMARK  status: ('A' for Active; 'I' for Inactive)
REMARK    1  A    between atoms: C_15  and  O_3 
REMARK    2  A    between atoms: O_4  and  C_21 
ROOT
HETATM    1  O   UNK N   1      35.819  12.983  14.859  0.00  0.00    -0.338 OA
HETATM    2  O   UNK N   1      38.710   8.324  13.033  0.00  0.00    -0.064 OA
HETATM    3  N   UNK N   1      38.318   8.439  14.327  0.00  0.00     0.015 N 
HETATM    4  C   UNK N   1      36.783  10.918  14.235  0.00  0.00     0.031 C 
HETATM    5  C   UNK N   1      36.254   9.639  13.568  0.00  0.00     0.063 C 
HETATM    6  C   UNK N   1      36.832   8.436  14.407  0.00  0.00     0.267 C 
HETATM    7  C   UNK N   1      36.226  12.294  13.709  0.00  0.00     0.175 C 
HETATM    8  C   UNK N   1      38.323  10.925  14.250  0.00  0.00     0.054 C 
HETATM    9  C   UNK N   1      36.261  10.952  15.614  0.00  0.00    -0.003 A 
HETATM   10  C   UNK N   1      38.907   9.661  14.889  0.00  0.00     0.313 C 
HETATM   11  C   UNK N   1      36.383   8.477  15.917  0.00  0.00     0.082 C 
HETATM   12  C   UNK N   1      36.147   9.866  16.466  0.00  0.00    -0.045 A 
HETATM   13  C   UNK N   1      35.043  12.040  12.739  0.00  0.00     0.171 C 
HETATM   14  C   UNK N   1      34.739   9.717  13.520  0.00  0.00    -0.020 C 
HETATM   15  C   UNK N   1      35.798  12.174  15.923  0.00  0.00     0.110 A 
HETATM   16  C   UNK N   1      34.163  10.874  13.138  0.00  0.00     0.004 C 
HETATM   17  C   UNK N   1      38.883   7.299  15.040  0.00  0.00     0.357 C 
HETATM   18  C   UNK N   1      35.638  10.088  17.755  0.00  0.00     0.011 A 
HETATM   19  C   UNK N   1      35.305  12.458  17.200  0.00  0.00     0.102 A 
HETATM   20  C   UNK N   1      35.256  11.395  18.139  0.00  0.00     0.040 A 
ENDROOT
BRANCH  13  21
HETATM   21  O   UNK N   1      34.297  13.196  12.506  0.00  0.00    -0.389 OA
HETATM   22  H   UNK N   1      33.436  13.314  12.935  0.00  0.00     0.210 HD
ENDBRANCH  13  21
BRANCH  19  23
HETATM   23  O   UNK N   1      34.885  13.709  17.502  0.00  0.00    -0.353 OA
HETATM   24  C   UNK N   1      35.696  14.645  18.106  0.00  0.00     0.210 C 
ENDBRANCH  19  23
TORSDOF 2
ENDMDL
MODEL 8
REMARK VINA RESULT:      -6.3      3.972      6.440
REMARK  2 active torsions:
REMARK  status: ('A' for Active; 'I' for Inactive)
REMARK    1  A    between atoms: C_15  and  O_3 
REMARK    2  A    between atoms: O_4  and  C_21 
ROOT
HETATM    1  O   UNK N   1      26.343  17.757   3.092  0.00  0.00    -0.338 OA
HETATM    2  O   UNK N   1      30.609  15.283   6.107  0.00  0.00    -0.064 OA
HETATM    3  N   UNK N   1      30.326  16.603   6.252  0.00  0.00     0.015 N 
HETATM    4  C   UNK N   1      27.959  16.863   4.566  0.00  0.00     0.031 C 
HETATM    5  C   UNK N   1      27.899  16.096   5.896  0.00  0.00     0.063 C 
HETATM    6  C   UNK N   1      28.968  16.768   6.838  0.00  0.00     0.267 C 
HETATM    7  C   UNK N   1      26.872  16.519   3.479  0.00  0.00     0.175 C 
HETATM    8  C   UNK N   1      29.374  16.789   3.961  0.00  0.00     0.054 C 
HETATM    9  C   UNK N   1      27.596  18.265   4.842  0.00  0.00    -0.003 A 
HETATM   10  C   UNK N   1      30.454  17.256   4.943  0.00  0.00     0.313 C 
HETATM   11  C   UNK N   1      28.682  18.297   7.089  0.00  0.00     0.082 C 
HETATM   12  C   UNK N   1      27.987  19.003   5.947  0.00  0.00    -0.045 A 
HETATM   13  C   UNK N   1      25.790  15.597   4.100  0.00  0.00     0.171 C 
HETATM   14  C   UNK N   1      26.472  16.144   6.410  0.00  0.00    -0.020 C 
HETATM   15  C   UNK N   1      26.733  18.728   3.923  0.00  0.00     0.110 A 
HETATM   16  C   UNK N   1      25.464  15.920   5.543  0.00  0.00     0.004 C 
HETATM   17  C   UNK N   1      31.348  17.157   7.132  0.00  0.00     0.357 C 
HETATM   18  C   UNK N   1      27.556  20.336   6.039  0.00  0.00     0.011 A 
HETATM   19  C   UNK N   1      26.292  20.055   3.951  0.00  0.00     0.102 A 
HETATM   20  C   UNK N   1      26.741  20.877   5.016  0.00  0.00     0.040 A 
ENDROOT
BRANCH  13  21
HETATM   21  O   UNK N   1      24.641  15.531   3.311  0.00  0.00    -0.389 OA
HETATM   22  H   UNK N   1      23.821  15.164   3.675  0.00  0.00     0.210 HD
ENDBRANCH  13  21
BRANCH  19  23
HETATM   23  O   UNK N   1      25.456  20.512   2.989  0.00  0.00    -0.353 OA
HETATM   24  C   UNK N   1      24.084  20.464   3.106  0.00  0.00     0.210 C 
ENDBRANCH  19  23
TORSDOF 2
ENDMDL
MODEL 9
REMARK VINA RESULT:      -6.3      8.434     10.062
REMARK  2 active torsions:
REMARK  status: ('A' for Active; 'I' for Inactive)
REMARK    1  A    between atoms: C_15  and  O_3 
REMARK    2  A    between atoms: O_4  and  C_21 
ROOT
HETATM    1  O   UNK N   1      20.857  12.924   9.035  0.00  0.00    -0.338 OA
HETATM    2  O   UNK N   1      25.003  10.903   5.551  0.00  0.00    -0.064 OA
HETATM    3  N   UNK N   1      24.483  12.144   5.371  0.00  0.00     0.015 N 
HETATM    4  C   UNK N   1      22.698  12.349   7.670  0.00  0.00     0.031 C 
HETATM    5  C   UNK N   1      24.224  12.369   7.852  0.00  0.00     0.063 C 
HETATM    6  C   UNK N   1      24.815  13.006   6.537  0.00  0.00     0.267 C 
HETATM    7  C   UNK N   1      21.825  11.918   8.907  0.00  0.00     0.175 C 
HETATM    8  C   UNK N   1      22.312  11.534   6.421  0.00  0.00     0.054 C 
HETATM    9  C   UNK N   1      22.248  13.746   7.524  0.00  0.00    -0.003 A 
HETATM   10  C   UNK N   1      23.035  12.019   5.160  0.00  0.00     0.313 C 
HETATM   11  C   UNK N   1      24.288  14.469   6.281  0.00  0.00     0.082 C 
HETATM   12  C   UNK N   1      22.898  14.739   6.811  0.00  0.00    -0.045 A 
HETATM   13  C   UNK N   1      22.723  11.817  10.167  0.00  0.00     0.171 C 
HETATM   14  C   UNK N   1      24.543  13.125   9.129  0.00  0.00    -0.020 C 
HETATM   15  C   UNK N   1      21.156  13.979   8.271  0.00  0.00     0.110 A 
HETATM   16  C   UNK N   1      23.810  12.869  10.231  0.00  0.00     0.004 C 
HETATM   17  C   UNK N   1      25.071  12.671   4.145  0.00  0.00     0.357 C 
HETATM   18  C   UNK N   1      22.313  16.015   6.770  0.00  0.00     0.011 A 
HETATM   19  C   UNK N   1      20.518  15.222   8.248  0.00  0.00     0.102 A 
HETATM   20  C   UNK N   1      21.097  16.247   7.455  0.00  0.00     0.040 A 
ENDROOT
BRANCH  13  21
HETATM   21  O   UNK N   1      21.974  11.774  11.344  0.00  0.00    -0.389 OA
HETATM   22  H   UNK N   1      22.247  11.198  12.074  0.00  0.00     0.210 HD
ENDBRANCH  13  21
BRANCH  19  23
HETATM   23  O   UNK N   1      19.393  15.421   8.975  0.00  0.00    -0.353 OA
HETATM   24  C   UNK N   1      18.693  16.608   8.962  0.00  0.00     0.210 C 
ENDBRANCH  19  23
TORSDOF 2
ENDMDL
