MODEL 1
REMARK VINA RESULT:      -7.9      0.000      0.000
REMARK  2 active torsions:
REMARK  status: ('A' for Active; 'I' for Inactive)
REMARK    1  A    between atoms: C_12  and  O_2 
REMARK    2  A    between atoms: C_23  and  C_25 
ROOT
HETATM    1  O   UNK N   1      32.940  22.492  -5.905  0.00  0.00    -0.389 OA
HETATM    2  O   UNK N   1      24.393  27.497  -5.714  0.00  0.00    -0.287 OA
HETATM    3  C   UNK N   1      31.002  22.506  -4.463  0.00  0.00    -0.007 C 
HETATM    4  C   UNK N   1      30.109  22.399  -5.699  0.00  0.00     0.001 C 
HETATM    5  C   UNK N   1      28.695  22.924  -5.400  0.00  0.00    -0.002 C 
HETATM    6  C   UNK N   1      28.748  24.422  -4.928  0.00  0.00     0.035 C 
HETATM    7  C   UNK N   1      32.249  21.751  -4.941  0.00  0.00     0.062 C 
HETATM    8  C   UNK N   1      31.181  23.983  -4.116  0.00  0.00     0.044 C 
HETATM    9  C   UNK N   1      30.232  20.925  -6.080  0.00  0.00     0.009 C 
HETATM   10  C   UNK N   1      29.812  24.613  -3.798  0.00  0.00     0.124 C 
HETATM   11  C   UNK N   1      27.309  24.845  -4.459  0.00  0.00     0.005 A 
HETATM   12  C   UNK N   1      31.645  20.514  -5.615  0.00  0.00     0.038 C 
HETATM   13  C   UNK N   1      27.766  22.803  -6.614  0.00  0.00     0.010 C 
HETATM   14  C   UNK N   1      30.396  21.775  -3.240  0.00  0.00     0.019 C 
HETATM   15  C   UNK N   1      26.338  23.164  -6.206  0.00  0.00     0.036 C 
HETATM   16  C   UNK N   1      26.311  24.527  -5.577  0.00  0.00    -0.064 A 
HETATM   17  C   UNK N   1      33.220  21.381  -3.827  0.00  0.00     0.046 C 
HETATM   18  C   UNK N   1      26.911  24.020  -3.238  0.00  0.00     0.025 C 
HETATM   19  C   UNK N   1      27.253  26.296  -4.005  0.00  0.00     0.006 A 
HETATM   20  C   UNK N   1      25.389  25.408  -5.993  0.00  0.00     0.059 A 
HETATM   21  C   UNK N   1      26.330  27.177  -4.428  0.00  0.00     0.049 A 
HETATM   22  C   UNK N   1      25.305  26.747  -5.398  0.00  0.00     0.185 A 
HETATM   23  H   UNK N   1      33.421  22.887  -6.649  0.00  0.00     0.210 HD
ENDROOT
BRANCH  10  24
HETATM   24  O   UNK N   1      30.002  25.967  -3.510  0.00  0.00    -0.395 OA
HETATM   25  H   UNK N   1      30.689  26.525  -3.907  0.00  0.00     0.210 HD
ENDBRANCH  10  24
BRANCH  21  26
HETATM   26  C   UNK N   1      26.321  28.559  -3.908  0.00  0.00     0.273 C 
HETATM   27  O   UNK N   1      26.620  28.801  -2.748  0.00  0.00    -0.301 OA
ENDBRANCH  21  26
TORSDOF 2
ENDMDL
MODEL 2
REMARK VINA RESULT:      -7.9      2.386      4.146
REMARK  2 active torsions:
REMARK  status: ('A' for Active; 'I' for Inactive)
REMARK    1  A    between atoms: C_12  and  O_2 
REMARK    2  A    between atoms: C_23  and  C_25 
ROOT
HETATM    1  O   UNK N   1      32.724  18.588  -4.027  0.00  0.00    -0.389 OA
HETATM    2  O   UNK N   1      24.902  24.507  -5.419  0.00  0.00    -0.287 OA
HETATM    3  C   UNK N   1      32.365  20.716  -5.114  0.00  0.00    -0.007 C 
HETATM    4  C   UNK N   1      31.636  21.207  -3.863  0.00  0.00     0.001 C 
HETATM    5  C   UNK N   1      30.687  22.367  -4.201  0.00  0.00    -0.002 C 
HETATM    6  C   UNK N   1      29.629  21.923  -5.275  0.00  0.00     0.035 C 
HETATM    7  C   UNK N   1      33.370  19.736  -4.496  0.00  0.00     0.062 C 
HETATM    8  C   UNK N   1      31.336  20.130  -6.080  0.00  0.00     0.044 C 
HETATM    9  C   UNK N   1      32.782  21.511  -2.900  0.00  0.00     0.009 C 
HETATM   10  C   UNK N   1      30.325  21.219  -6.487  0.00  0.00     0.124 C 
HETATM   11  C   UNK N   1      28.811  23.189  -5.721  0.00  0.00     0.005 A 
HETATM   12  C   UNK N   1      33.902  20.524  -3.294  0.00  0.00     0.038 C 
HETATM   13  C   UNK N   1      29.962  22.901  -2.960  0.00  0.00     0.010 C 
HETATM   14  C   UNK N   1      33.130  21.856  -5.828  0.00  0.00     0.019 C 
HETATM   15  C   UNK N   1      29.180  24.163  -3.325  0.00  0.00     0.036 C 
HETATM   16  C   UNK N   1      28.253  23.881  -4.473  0.00  0.00    -0.064 A 
HETATM   17  C   UNK N   1      34.488  19.310  -5.441  0.00  0.00     0.046 C 
HETATM   18  C   UNK N   1      29.746  24.175  -6.416  0.00  0.00     0.025 C 
HETATM   19  C   UNK N   1      27.739  22.852  -6.745  0.00  0.00     0.006 A 
HETATM   20  C   UNK N   1      26.976  24.277  -4.379  0.00  0.00     0.059 A 
HETATM   21  C   UNK N   1      26.458  23.248  -6.645  0.00  0.00     0.049 A 
HETATM   22  C   UNK N   1      26.032  24.045  -5.479  0.00  0.00     0.185 A 
HETATM   23  H   UNK N   1      32.348  17.811  -3.583  0.00  0.00     0.210 HD
ENDROOT
BRANCH  10  24
HETATM   24  O   UNK N   1      29.383  20.652  -7.347  0.00  0.00    -0.395 OA
HETATM   25  H   UNK N   1      29.319  20.837  -8.297  0.00  0.00     0.210 HD
ENDBRANCH  10  24
BRANCH  21  26
HETATM   26  C   UNK N   1      25.486  22.913  -7.705  0.00  0.00     0.273 C 
HETATM   27  O   UNK N   1      24.640  22.047  -7.538  0.00  0.00    -0.301 OA
ENDBRANCH  21  26
TORSDOF 2
ENDMDL
MODEL 3
REMARK VINA RESULT:      -7.7      1.462      6.538
REMARK  2 active torsions:
REMARK  status: ('A' for Active; 'I' for Inactive)
REMARK    1  A    between atoms: C_12  and  O_2 
REMARK    2  A    between atoms: C_23  and  C_25 
ROOT
HETATM    1  O   UNK N   1      25.488  27.579  -3.014  0.00  0.00    -0.389 OA
HETATM    2  O   UNK N   1      31.382  19.887  -5.076  0.00  0.00    -0.287 OA
HETATM    3  C   UNK N   1      27.214  27.139  -4.648  0.00  0.00    -0.007 C 
HETATM    4  C   UNK N   1      26.531  25.812  -4.979  0.00  0.00     0.001 C 
HETATM    5  C   UNK N   1      27.527  24.825  -5.607  0.00  0.00    -0.002 C 
HETATM    6  C   UNK N   1      28.731  24.558  -4.632  0.00  0.00     0.035 C 
HETATM    7  C   UNK N   1      26.005  27.994  -4.245  0.00  0.00     0.062 C 
HETATM    8  C   UNK N   1      28.270  26.890  -3.572  0.00  0.00     0.044 C 
HETATM    9  C   UNK N   1      25.350  26.246  -5.846  0.00  0.00     0.009 C 
HETATM   10  C   UNK N   1      29.328  25.903  -4.100  0.00  0.00     0.124 C 
HETATM   11  C   UNK N   1      29.804  23.698  -5.393  0.00  0.00     0.005 A 
HETATM   12  C   UNK N   1      24.986  27.659  -5.340  0.00  0.00     0.038 C 
HETATM   13  C   UNK N   1      26.864  23.493  -5.977  0.00  0.00     0.010 C 
HETATM   14  C   UNK N   1      27.898  27.768  -5.886  0.00  0.00     0.019 C 
HETATM   15  C   UNK N   1      27.853  22.627  -6.759  0.00  0.00     0.036 C 
HETATM   16  C   UNK N   1      29.121  22.456  -5.974  0.00  0.00    -0.064 A 
HETATM   17  C   UNK N   1      26.294  29.488  -4.171  0.00  0.00     0.046 C 
HETATM   18  C   UNK N   1      30.364  24.505  -6.561  0.00  0.00     0.025 C 
HETATM   19  C   UNK N   1      31.003  23.364  -4.517  0.00  0.00     0.006 A 
HETATM   20  C   UNK N   1      29.630  21.223  -5.839  0.00  0.00     0.059 A 
HETATM   21  C   UNK N   1      31.507  22.125  -4.381  0.00  0.00     0.049 A 
HETATM   22  C   UNK N   1      30.878  21.001  -5.098  0.00  0.00     0.185 A 
HETATM   23  H   UNK N   1      25.006  27.292  -2.222  0.00  0.00     0.210 HD
ENDROOT
BRANCH  10  24
HETATM   24  O   UNK N   1      30.264  25.672  -3.091  0.00  0.00    -0.395 OA
HETATM   25  H   UNK N   1      30.698  26.366  -2.569  0.00  0.00     0.210 HD
ENDBRANCH  10  24
BRANCH  21  26
HETATM   26  C   UNK N   1      32.700  21.892  -3.542  0.00  0.00     0.273 C 
HETATM   27  O   UNK N   1      32.595  21.545  -2.375  0.00  0.00    -0.301 OA
ENDBRANCH  21  26
TORSDOF 2
ENDMDL
MODEL 4
REMARK VINA RESULT:      -7.5     15.886     19.293
REMARK  2 active torsions:
REMARK  status: ('A' for Active; 'I' for Inactive)
REMARK    1  A    between atoms: C_12  and  O_2 
REMARK    2  A    between atoms: C_23  and  C_25 
ROOT
HETATM    1  O   UNK N   1      31.819  14.823   5.871  0.00  0.00    -0.389 OA
HETATM    2  O   UNK N   1      37.579  11.923  13.392  0.00  0.00    -0.287 OA
HETATM    3  C   UNK N   1      33.351  15.932   7.375  0.00  0.00    -0.007 C 
HETATM    4  C   UNK N   1      34.392  14.854   7.075  0.00  0.00     0.001 C 
HETATM    5  C   UNK N   1      35.423  14.756   8.211  0.00  0.00    -0.002 C 
HETATM    6  C   UNK N   1      34.715  14.426   9.574  0.00  0.00     0.035 C 
HETATM    7  C   UNK N   1      32.589  15.977   6.044  0.00  0.00     0.062 C 
HETATM    8  C   UNK N   1      32.555  15.512   8.610  0.00  0.00     0.044 C 
HETATM    9  C   UNK N   1      34.917  15.263   5.700  0.00  0.00     0.009 C 
HETATM   10  C   UNK N   1      33.501  15.382   9.819  0.00  0.00     0.124 C 
HETATM   11  C   UNK N   1      35.782  14.523  10.724  0.00  0.00     0.005 A 
HETATM   12  C   UNK N   1      33.725  15.966   5.015  0.00  0.00     0.038 C 
HETATM   13  C   UNK N   1      36.498  13.701   7.925  0.00  0.00     0.010 C 
HETATM   14  C   UNK N   1      34.000  17.312   7.643  0.00  0.00     0.019 C 
HETATM   15  C   UNK N   1      37.590  13.778   8.992  0.00  0.00     0.036 C 
HETATM   16  C   UNK N   1      36.983  13.645  10.359  0.00  0.00    -0.064 A 
HETATM   17  C   UNK N   1      31.683  17.192   5.885  0.00  0.00     0.046 C 
HETATM   18  C   UNK N   1      36.279  15.963  10.832  0.00  0.00     0.025 C 
HETATM   19  C   UNK N   1      35.194  14.193  12.087  0.00  0.00     0.006 A 
HETATM   20  C   UNK N   1      37.537  12.786  11.227  0.00  0.00     0.059 A 
HETATM   21  C   UNK N   1      35.751  13.327  12.952  0.00  0.00     0.049 A 
HETATM   22  C   UNK N   1      36.997  12.631  12.583  0.00  0.00     0.185 A 
HETATM   23  H   UNK N   1      31.342  14.015   5.624  0.00  0.00     0.210 HD
ENDROOT
BRANCH  10  24
HETATM   24  O   UNK N   1      32.754  14.972  10.926  0.00  0.00    -0.395 OA
HETATM   25  H   UNK N   1      31.992  14.374  10.888  0.00  0.00     0.210 HD
ENDBRANCH  10  24
BRANCH  21  26
HETATM   26  C   UNK N   1      35.137  13.092  14.275  0.00  0.00     0.273 C 
HETATM   27  O   UNK N   1      34.212  12.306  14.413  0.00  0.00    -0.301 OA
ENDBRANCH  21  26
TORSDOF 2
ENDMDL
MODEL 5
REMARK VINA RESULT:      -7.3     22.326     25.515
REMARK  2 active torsions:
REMARK  status: ('A' for Active; 'I' for Inactive)
REMARK    1  A    between atoms: C_12  and  O_2 
REMARK    2  A    between atoms: C_23  and  C_25 
ROOT
HETATM    1  O   UNK N   1      38.469  13.401  11.306  0.00  0.00    -0.389 OA
HETATM    2  O   UNK N   1      36.229  10.151  20.393  0.00  0.00    -0.287 OA
HETATM    3  C   UNK N   1      36.628  12.170  12.274  0.00  0.00    -0.007 C 
HETATM    4  C   UNK N   1      36.539  13.219  13.382  0.00  0.00     0.001 C 
HETATM    5  C   UNK N   1      35.857  12.639  14.631  0.00  0.00    -0.002 C 
HETATM    6  C   UNK N   1      36.646  11.389  15.165  0.00  0.00     0.035 C 
HETATM    7  C   UNK N   1      37.137  13.026  11.106  0.00  0.00     0.062 C 
HETATM    8  C   UNK N   1      37.539  11.038  12.745  0.00  0.00     0.044 C 
HETATM    9  C   UNK N   1      35.836  14.385  12.690  0.00  0.00     0.009 C 
HETATM   10  C   UNK N   1      36.944  10.382  14.006  0.00  0.00     0.124 C 
HETATM   11  C   UNK N   1      35.809  10.728  16.319  0.00  0.00     0.005 A 
HETATM   12  C   UNK N   1      36.257  14.276  11.208  0.00  0.00     0.038 C 
HETATM   13  C   UNK N   1      35.727  13.677  15.752  0.00  0.00     0.010 C 
HETATM   14  C   UNK N   1      35.242  11.581  11.915  0.00  0.00     0.019 C 
HETATM   15  C   UNK N   1      34.882  13.102  16.889  0.00  0.00     0.036 C 
HETATM   16  C   UNK N   1      35.466  11.801  17.358  0.00  0.00    -0.064 A 
HETATM   17  C   UNK N   1      37.021  12.354   9.744  0.00  0.00     0.046 C 
HETATM   18  C   UNK N   1      34.494  10.200  15.750  0.00  0.00     0.025 C 
HETATM   19  C   UNK N   1      36.508   9.518  16.920  0.00  0.00     0.006 A 
HETATM   20  C   UNK N   1      35.634  11.609  18.674  0.00  0.00     0.059 A 
HETATM   21  C   UNK N   1      36.678   9.332  18.240  0.00  0.00     0.049 A 
HETATM   22  C   UNK N   1      36.182  10.348  19.187  0.00  0.00     0.185 A 
HETATM   23  H   UNK N   1      39.351  13.790  11.413  0.00  0.00     0.210 HD
ENDROOT
BRANCH  10  24
HETATM   24  O   UNK N   1      37.808   9.370  14.430  0.00  0.00    -0.395 OA
HETATM   25  H   UNK N   1      38.722   9.509  14.724  0.00  0.00     0.210 HD
ENDBRANCH  10  24
BRANCH  21  26
HETATM   26  C   UNK N   1      37.334   8.109  18.744  0.00  0.00     0.273 C 
HETATM   27  O   UNK N   1      38.360   7.683  18.235  0.00  0.00    -0.301 OA
ENDBRANCH  21  26
TORSDOF 2
ENDMDL
MODEL 6
REMARK VINA RESULT:      -7.3      2.525      6.495
REMARK  2 active torsions:
REMARK  status: ('A' for Active; 'I' for Inactive)
REMARK    1  A    between atoms: C_12  and  O_2 
REMARK    2  A    between atoms: C_23  and  C_25 
ROOT
HETATM    1  O   UNK N   1      28.056  30.508  -5.225  0.00  0.00    -0.389 OA
HETATM    2  O   UNK N   1      27.831  20.966  -7.884  0.00  0.00    -0.287 OA
HETATM    3  C   UNK N   1      27.170  28.483  -4.248  0.00  0.00    -0.007 C 
HETATM    4  C   UNK N   1      28.516  27.801  -4.496  0.00  0.00     0.001 C 
HETATM    5  C   UNK N   1      28.353  26.274  -4.554  0.00  0.00    -0.002 C 
HETATM    6  C   UNK N   1      27.349  25.866  -5.693  0.00  0.00     0.035 C 
HETATM    7  C   UNK N   1      27.618  29.934  -4.028  0.00  0.00     0.062 C 
HETATM    8  C   UNK N   1      26.260  28.217  -5.446  0.00  0.00     0.044 C 
HETATM    9  C   UNK N   1      29.391  28.359  -3.375  0.00  0.00     0.009 C 
HETATM   10  C   UNK N   1      26.030  26.702  -5.599  0.00  0.00     0.124 C 
HETATM   11  C   UNK N   1      27.077  24.322  -5.586  0.00  0.00     0.005 A 
HETATM   12  C   UNK N   1      28.823  29.768  -3.095  0.00  0.00     0.038 C 
HETATM   13  C   UNK N   1      29.691  25.559  -4.774  0.00  0.00     0.010 C 
HETATM   14  C   UNK N   1      26.478  27.958  -2.967  0.00  0.00     0.019 C 
HETATM   15  C   UNK N   1      29.495  24.048  -4.639  0.00  0.00     0.036 C 
HETATM   16  C   UNK N   1      28.419  23.583  -5.576  0.00  0.00    -0.064 A 
HETATM   17  C   UNK N   1      26.546  30.832  -3.423  0.00  0.00     0.046 C 
HETATM   18  C   UNK N   1      26.376  24.023  -4.264  0.00  0.00     0.025 C 
HETATM   19  C   UNK N   1      26.131  23.826  -6.669  0.00  0.00     0.006 A 
HETATM   20  C   UNK N   1      28.658  22.513  -6.348  0.00  0.00     0.059 A 
HETATM   21  C   UNK N   1      26.377  22.756  -7.444  0.00  0.00     0.049 A 
HETATM   22  C   UNK N   1      27.633  22.003  -7.268  0.00  0.00     0.185 A 
HETATM   23  H   UNK N   1      28.472  30.947  -5.984  0.00  0.00     0.210 HD
ENDROOT
BRANCH  10  24
HETATM   24  O   UNK N   1      25.218  26.486  -6.714  0.00  0.00    -0.395 OA
HETATM   25  H   UNK N   1      25.437  25.895  -7.452  0.00  0.00     0.210 HD
ENDBRANCH  10  24
BRANCH  21  26
HETATM   26  C   UNK N   1      25.387  22.315  -8.447  0.00  0.00     0.273 C 
HETATM   27  O   UNK N   1      24.187  22.413  -8.239  0.00  0.00    -0.301 OA
ENDBRANCH  21  26
TORSDOF 2
ENDMDL
MODEL 7
REMARK VINA RESULT:      -7.2     13.574     16.745
REMARK  2 active torsions:
REMARK  status: ('A' for Active; 'I' for Inactive)
REMARK    1  A    between atoms: C_12  and  O_2 
REMARK    2  A    between atoms: C_23  and  C_25 
ROOT
HETATM    1  O   UNK N   1      32.699  14.719   2.746  0.00  0.00    -0.389 OA
HETATM    2  O   UNK N   1      36.095  15.877  11.980  0.00  0.00    -0.287 OA
HETATM    3  C   UNK N   1      31.696  15.246   4.881  0.00  0.00    -0.007 C 
HETATM    4  C   UNK N   1      32.769  16.314   5.095  0.00  0.00     0.001 C 
HETATM    5  C   UNK N   1      32.944  16.621   6.591  0.00  0.00    -0.002 C 
HETATM    6  C   UNK N   1      33.343  15.322   7.380  0.00  0.00     0.035 C 
HETATM    7  C   UNK N   1      31.566  15.271   3.352  0.00  0.00     0.062 C 
HETATM    8  C   UNK N   1      32.176  13.939   5.509  0.00  0.00     0.044 C 
HETATM    9  C   UNK N   1      32.288  17.460   4.207  0.00  0.00     0.009 C 
HETATM   10  C   UNK N   1      32.387  14.136   7.023  0.00  0.00     0.124 C 
HETATM   11  C   UNK N   1      33.324  15.649   8.917  0.00  0.00     0.005 A 
HETATM   12  C   UNK N   1      31.532  16.773   3.050  0.00  0.00     0.038 C 
HETATM   13  C   UNK N   1      33.994  17.711   6.838  0.00  0.00     0.010 C 
HETATM   14  C   UNK N   1      30.343  15.642   5.519  0.00  0.00     0.019 C 
HETATM   15  C   UNK N   1      33.992  18.101   8.316  0.00  0.00     0.036 C 
HETATM   16  C   UNK N   1      34.196  16.884   9.170  0.00  0.00    -0.064 A 
HETATM   17  C   UNK N   1      30.332  14.552   2.819  0.00  0.00     0.046 C 
HETATM   18  C   UNK N   1      31.900  15.995   9.344  0.00  0.00     0.025 C 
HETATM   19  C   UNK N   1      33.725  14.453   9.768  0.00  0.00     0.006 A 
HETATM   20  C   UNK N   1      35.110  16.933  10.150  0.00  0.00     0.059 A 
HETATM   21  C   UNK N   1      34.645  14.505  10.746  0.00  0.00     0.049 A 
HETATM   22  C   UNK N   1      35.335  15.778  11.028  0.00  0.00     0.185 A 
HETATM   23  H   UNK N   1      33.485  14.451   2.245  0.00  0.00     0.210 HD
ENDROOT
BRANCH  10  24
HETATM   24  O   UNK N   1      32.850  12.936   7.567  0.00  0.00    -0.395 OA
HETATM   25  H   UNK N   1      32.281  12.225   7.901  0.00  0.00     0.210 HD
ENDBRANCH  10  24
BRANCH  21  26
HETATM   26  C   UNK N   1      34.948  13.306  11.553  0.00  0.00     0.273 C 
HETATM   27  O   UNK N   1      34.588  13.219  12.717  0.00  0.00    -0.301 OA
ENDBRANCH  21  26
TORSDOF 2
ENDMDL
MODEL 8
REMARK VINA RESULT:      -7.2     12.557     15.751
REMARK  2 active torsions:
REMARK  status: ('A' for Active; 'I' for Inactive)
REMARK    1  A    between atoms: C_12  and  O_2 
REMARK    2  A    between atoms: C_23  and  C_25 
ROOT
HETATM    1  O   UNK N   1      26.520  16.429   6.686  0.00  0.00    -0.389 OA
HETATM    2  O   UNK N   1      35.890  14.205   9.016  0.00  0.00    -0.287 OA
HETATM    3  C   UNK N   1      28.690  17.235   5.992  0.00  0.00    -0.007 C 
HETATM    4  C   UNK N   1      29.133  15.788   5.775  0.00  0.00     0.001 C 
HETATM    5  C   UNK N   1      30.664  15.668   5.841  0.00  0.00    -0.002 C 
HETATM    6  C   UNK N   1      31.200  16.170   7.231  0.00  0.00     0.035 C 
HETATM    7  C   UNK N   1      27.192  17.129   5.679  0.00  0.00     0.062 C 
HETATM    8  C   UNK N   1      29.069  17.654   7.412  0.00  0.00     0.044 C 
HETATM    9  C   UNK N   1      28.469  15.426   4.447  0.00  0.00     0.009 C 
HETATM   10  C   UNK N   1      30.596  17.568   7.590  0.00  0.00     0.124 C 
HETATM   11  C   UNK N   1      32.770  16.203   7.176  0.00  0.00     0.005 A 
HETATM   12  C   UNK N   1      27.183  16.278   4.403  0.00  0.00     0.038 C 
HETATM   13  C   UNK N   1      31.142  14.232   5.598  0.00  0.00     0.010 C 
HETATM   14  C   UNK N   1      29.357  18.207   4.989  0.00  0.00     0.019 C 
HETATM   15  C   UNK N   1      32.667  14.209   5.492  0.00  0.00     0.036 C 
HETATM   16  C   UNK N   1      33.277  14.833   6.714  0.00  0.00    -0.064 A 
HETATM   17  C   UNK N   1      26.500  18.471   5.477  0.00  0.00     0.046 C 
HETATM   18  C   UNK N   1      33.218  17.233   6.142  0.00  0.00     0.025 C 
HETATM   19  C   UNK N   1      33.385  16.654   8.492  0.00  0.00     0.006 A 
HETATM   20  C   UNK N   1      34.271  14.185   7.338  0.00  0.00     0.059 A 
HETATM   21  C   UNK N   1      34.378  15.998   9.117  0.00  0.00     0.049 A 
HETATM   22  C   UNK N   1      34.917  14.759   8.525  0.00  0.00     0.185 A 
HETATM   23  H   UNK N   1      25.997  15.869   7.282  0.00  0.00     0.210 HD
ENDROOT
BRANCH  10  24
HETATM   24  O   UNK N   1      30.912  17.930   8.901  0.00  0.00    -0.395 OA
HETATM   25  H   UNK N   1      31.030  18.842   9.210  0.00  0.00     0.210 HD
ENDBRANCH  10  24
BRANCH  21  26
HETATM   26  C   UNK N   1      34.948  16.525  10.373  0.00  0.00     0.273 C 
HETATM   27  O   UNK N   1      35.675  17.506  10.377  0.00  0.00    -0.301 OA
ENDBRANCH  21  26
TORSDOF 2
ENDMDL
MODEL 9
REMARK VINA RESULT:      -7.1     15.139     16.996
REMARK  2 active torsions:
REMARK  status: ('A' for Active; 'I' for Inactive)
REMARK    1  A    between atoms: C_12  and  O_2 
REMARK    2  A    between atoms: C_23  and  C_25 
ROOT
HETATM    1  O   UNK N   1      25.332  18.659   5.342  0.00  0.00    -0.389 OA
HETATM    2  O   UNK N   1      20.327  12.526  11.300  0.00  0.00    -0.287 OA
HETATM    3  C   UNK N   1      24.008  16.664   5.016  0.00  0.00    -0.007 C 
HETATM    4  C   UNK N   1      22.907  17.281   5.878  0.00  0.00     0.001 C 
HETATM    5  C   UNK N   1      22.002  16.190   6.473  0.00  0.00    -0.002 C 
HETATM    6  C   UNK N   1      22.841  15.189   7.346  0.00  0.00     0.035 C 
HETATM    7  C   UNK N   1      24.623  17.921   4.388  0.00  0.00     0.062 C 
HETATM    8  C   UNK N   1      24.918  15.826   5.913  0.00  0.00     0.044 C 
HETATM    9  C   UNK N   1      22.250  18.278   4.925  0.00  0.00     0.009 C 
HETATM   10  C   UNK N   1      24.105  14.694   6.568  0.00  0.00     0.124 C 
HETATM   11  C   UNK N   1      21.908  13.998   7.772  0.00  0.00     0.005 A 
HETATM   12  C   UNK N   1      23.383  18.722   3.975  0.00  0.00     0.038 C 
HETATM   13  C   UNK N   1      20.868  16.780   7.321  0.00  0.00     0.010 C 
HETATM   14  C   UNK N   1      23.436  15.759   3.898  0.00  0.00     0.019 C 
HETATM   15  C   UNK N   1      19.901  15.669   7.731  0.00  0.00     0.036 C 
HETATM   16  C   UNK N   1      20.647  14.569   8.429  0.00  0.00    -0.064 A 
HETATM   17  C   UNK N   1      25.544  17.643   3.207  0.00  0.00     0.046 C 
HETATM   18  C   UNK N   1      21.472  13.228   6.529  0.00  0.00     0.025 C 
HETATM   19  C   UNK N   1      22.629  12.984   8.647  0.00  0.00     0.006 A 
HETATM   20  C   UNK N   1      20.163  14.100   9.588  0.00  0.00     0.059 A 
HETATM   21  C   UNK N   1      22.142  12.520   9.811  0.00  0.00     0.049 A 
HETATM   22  C   UNK N   1      20.841  13.011  10.302  0.00  0.00     0.185 A 
HETATM   23  H   UNK N   1      25.754  19.281   5.955  0.00  0.00     0.210 HD
ENDROOT
BRANCH  10  24
HETATM   24  O   UNK N   1      24.953  13.961   7.401  0.00  0.00    -0.395 OA
HETATM   25  H   UNK N   1      24.882  13.007   7.561  0.00  0.00     0.210 HD
ENDBRANCH  10  24
BRANCH  21  26
HETATM   26  C   UNK N   1      22.887  11.504  10.582  0.00  0.00     0.273 C 
HETATM   27  O   UNK N   1      23.492  11.801  11.601  0.00  0.00    -0.301 OA
ENDBRANCH  21  26
TORSDOF 2
ENDMDL
