MODEL 1
REMARK VINA RESULT:      -6.8      0.000      0.000
REMARK  7 active torsions:
REMARK  status: ('A' for Active; 'I' for Inactive)
REMARK    1  A    between atoms: O_1  and  C_12 
REMARK    2  A    between atoms: N_3  and  C_11 
REMARK    3  A    between atoms: N_4  and  C_5 
REMARK    4  A    between atoms: N_4  and  C_13 
REMARK       I    between atoms: N_4  and  C_14 
REMARK    5  A    between atoms: C_11  and  C_12 
REMARK    6  A    between atoms: C_12  and  C_15 
REMARK    7  A    between atoms: C_14  and  C_16 
ROOT
HETATM    1  N   UNK N   1      30.497  23.151  -2.588  0.00  0.00     0.091 N 
HETATM    2  C   UNK N   1      28.805  23.543  -4.732  0.00  0.00     0.100 C 
HETATM    3  C   UNK N   1      30.090  24.394  -4.737  0.00  0.00     0.033 C 
HETATM    4  C   UNK N   1      28.141  23.667  -3.364  0.00  0.00     0.056 C 
HETATM    5  C   UNK N   1      30.825  24.345  -3.386  0.00  0.00     0.278 C 
HETATM    6  C   UNK N   1      29.057  23.064  -2.283  0.00  0.00     0.274 C 
HETATM    7  C   UNK N   1      31.026  23.949  -5.846  0.00  0.00     0.014 C 
ENDROOT
BRANCH   2   8
HETATM    8  N   UNK N   1      27.831  23.702  -5.838  0.00  0.00    -0.313 N 
HETATM    9  C   UNK N   1      27.655  22.723  -6.812  0.00  0.00     0.224 C 
HETATM   10  O   UNK N   1      28.366  21.732  -6.842  0.00  0.00    -0.273 OA
BRANCH   8  11
HETATM   11  C   UNK N   1      27.059  24.932  -5.840  0.00  0.00     0.037 A 
HETATM   12  C   UNK N   1      25.749  24.994  -5.323  0.00  0.00     0.030 A 
HETATM   13  C   UNK N   1      24.997  26.170  -5.394  0.00  0.00     0.002 A 
HETATM   14  C   UNK N   1      25.538  27.309  -5.988  0.00  0.00     0.000 A 
HETATM   15  C   UNK N   1      26.831  27.273  -6.511  0.00  0.00     0.002 A 
HETATM   16  C   UNK N   1      27.580  26.096  -6.444  0.00  0.00     0.030 A 
ENDBRANCH   8  11
BRANCH   9  17
HETATM   17  C   UNK N   1      26.553  22.788  -7.834  0.00  0.00     0.099 C 
HETATM   18  C   UNK N   1      25.381  21.913  -7.437  0.00  0.00     0.014 C 
ENDBRANCH   9  17
ENDBRANCH   2   8
BRANCH   1  19
HETATM   19  C   UNK N   1      30.939  21.907  -3.229  0.00  0.00     0.308 C 
BRANCH  19  20
HETATM   20  C   UNK N   1      32.459  21.697  -3.143  0.00  0.00     0.179 C 
BRANCH  20  21
HETATM   21  O   UNK N   1      32.815  21.205  -1.884  0.00  0.00    -0.389 OA
HETATM   22  H   UNK N   1      33.050  20.271  -1.767  0.00  0.00     0.210 HD
ENDBRANCH  20  21
BRANCH  20  23
HETATM   23  C   UNK N   1      32.972  20.813  -4.245  0.00  0.00    -0.028 A 
HETATM   24  C   UNK N   1      34.200  20.158  -4.093  0.00  0.00     0.010 A 
HETATM   25  C   UNK N   1      34.693  19.341  -5.113  0.00  0.00     0.001 A 
HETATM   26  C   UNK N   1      33.961  19.176  -6.292  0.00  0.00     0.000 A 
HETATM   27  C   UNK N   1      32.734  19.824  -6.451  0.00  0.00     0.001 A 
HETATM   28  C   UNK N   1      32.240  20.640  -5.430  0.00  0.00     0.010 A 
ENDBRANCH  20  23
ENDBRANCH  19  20
ENDBRANCH   1  19
TORSDOF 7
ENDMDL
MODEL 2
REMARK VINA RESULT:      -6.6      1.370      2.789
REMARK  7 active torsions:
REMARK  status: ('A' for Active; 'I' for Inactive)
REMARK    1  A    between atoms: O_1  and  C_12 
REMARK    2  A    between atoms: N_3  and  C_11 
REMARK    3  A    between atoms: N_4  and  C_5 
REMARK    4  A    between atoms: N_4  and  C_13 
REMARK       I    between atoms: N_4  and  C_14 
REMARK    5  A    between atoms: C_11  and  C_12 
REMARK    6  A    between atoms: C_12  and  C_15 
REMARK    7  A    between atoms: C_14  and  C_16 
ROOT
HETATM    1  N   UNK N   1      30.080  23.072  -2.287  0.00  0.00     0.091 N 
HETATM    2  C   UNK N   1      28.393  23.983  -4.271  0.00  0.00     0.100 C 
HETATM    3  C   UNK N   1      29.746  24.713  -4.164  0.00  0.00     0.033 C 
HETATM    4  C   UNK N   1      27.764  23.911  -2.882  0.00  0.00     0.056 C 
HETATM    5  C   UNK N   1      30.496  24.359  -2.868  0.00  0.00     0.278 C 
HETATM    6  C   UNK N   1      28.643  23.049  -1.957  0.00  0.00     0.274 C 
HETATM    7  C   UNK N   1      30.621  24.401  -5.364  0.00  0.00     0.014 C 
ENDROOT
BRANCH   2   8
HETATM    8  N   UNK N   1      27.418  24.419  -5.298  0.00  0.00    -0.313 N 
HETATM    9  C   UNK N   1      26.971  25.735  -5.379  0.00  0.00     0.224 C 
HETATM   10  O   UNK N   1      27.300  26.562  -4.544  0.00  0.00    -0.273 OA
BRANCH   8  11
HETATM   11  C   UNK N   1      26.964  23.398  -6.226  0.00  0.00     0.037 A 
HETATM   12  C   UNK N   1      25.628  22.951  -6.253  0.00  0.00     0.030 A 
HETATM   13  C   UNK N   1      25.225  21.921  -7.107  0.00  0.00     0.002 A 
HETATM   14  C   UNK N   1      26.153  21.313  -7.951  0.00  0.00     0.000 A 
HETATM   15  C   UNK N   1      27.482  21.734  -7.943  0.00  0.00     0.002 A 
HETATM   16  C   UNK N   1      27.885  22.760  -7.084  0.00  0.00     0.030 A 
ENDBRANCH   8  11
BRANCH   9  17
HETATM   17  C   UNK N   1      26.123  26.233  -6.517  0.00  0.00     0.099 C 
HETATM   18  C   UNK N   1      24.898  26.966  -6.010  0.00  0.00     0.014 C 
ENDBRANCH   9  17
ENDBRANCH   2   8
BRANCH   1  19
HETATM   19  C   UNK N   1      30.403  21.932  -3.154  0.00  0.00     0.308 C 
BRANCH  19  20
HETATM   20  C   UNK N   1      31.915  21.728  -3.336  0.00  0.00     0.179 C 
BRANCH  20  21
HETATM   21  O   UNK N   1      32.456  21.068  -2.229  0.00  0.00    -0.389 OA
HETATM   22  H   UNK N   1      33.281  20.563  -2.309  0.00  0.00     0.210 HD
ENDBRANCH  20  21
BRANCH  20  23
HETATM   23  C   UNK N   1      32.240  21.012  -4.617  0.00  0.00    -0.028 A 
HETATM   24  C   UNK N   1      33.569  20.677  -4.906  0.00  0.00     0.010 A 
HETATM   25  C   UNK N   1      33.886  20.021  -6.097  0.00  0.00     0.001 A 
HETATM   26  C   UNK N   1      32.875  19.696  -7.007  0.00  0.00     0.000 A 
HETATM   27  C   UNK N   1      31.547  20.025  -6.725  0.00  0.00     0.001 A 
HETATM   28  C   UNK N   1      31.229  20.680  -5.533  0.00  0.00     0.010 A 
ENDBRANCH  20  23
ENDBRANCH  19  20
ENDBRANCH   1  19
TORSDOF 7
ENDMDL
MODEL 3
REMARK VINA RESULT:      -6.6      1.939      3.409
REMARK  7 active torsions:
REMARK  status: ('A' for Active; 'I' for Inactive)
REMARK    1  A    between atoms: O_1  and  C_12 
REMARK    2  A    between atoms: N_3  and  C_11 
REMARK    3  A    between atoms: N_4  and  C_5 
REMARK    4  A    between atoms: N_4  and  C_13 
REMARK       I    between atoms: N_4  and  C_14 
REMARK    5  A    between atoms: C_11  and  C_12 
REMARK    6  A    between atoms: C_12  and  C_15 
REMARK    7  A    between atoms: C_14  and  C_16 
ROOT
HETATM    1  N   UNK N   1      28.609  24.550  -3.143  0.00  0.00     0.091 N 
HETATM    2  C   UNK N   1      27.402  24.523  -5.624  0.00  0.00     0.100 C 
HETATM    3  C   UNK N   1      28.619  25.459  -5.489  0.00  0.00     0.033 C 
HETATM    4  C   UNK N   1      26.454  24.782  -4.456  0.00  0.00     0.056 C 
HETATM    5  C   UNK N   1      29.049  25.646  -4.023  0.00  0.00     0.278 C 
HETATM    6  C   UNK N   1      27.143  24.399  -3.132  0.00  0.00     0.274 C 
HETATM    7  C   UNK N   1      29.790  24.938  -6.303  0.00  0.00     0.014 C 
ENDROOT
BRANCH   2   8
HETATM    8  N   UNK N   1      26.682  24.460  -6.917  0.00  0.00    -0.313 N 
HETATM    9  C   UNK N   1      26.314  25.608  -7.614  0.00  0.00     0.224 C 
HETATM   10  O   UNK N   1      26.491  26.716  -7.135  0.00  0.00    -0.273 OA
BRANCH   8  11
HETATM   11  C   UNK N   1      26.394  23.131  -7.427  0.00  0.00     0.037 A 
HETATM   12  C   UNK N   1      25.177  22.473  -7.158  0.00  0.00     0.030 A 
HETATM   13  C   UNK N   1      24.945  21.168  -7.601  0.00  0.00     0.002 A 
HETATM   14  C   UNK N   1      25.928  20.491  -8.319  0.00  0.00     0.000 A 
HETATM   15  C   UNK N   1      27.143  21.117  -8.596  0.00  0.00     0.002 A 
HETATM   16  C   UNK N   1      27.376  22.420  -8.148  0.00  0.00     0.030 A 
ENDBRANCH   8  11
BRANCH   9  17
HETATM   17  C   UNK N   1      25.743  25.563  -9.004  0.00  0.00     0.099 C 
HETATM   18  C   UNK N   1      26.755  26.030 -10.031  0.00  0.00     0.014 C 
ENDBRANCH   9  17
ENDBRANCH   2   8
BRANCH   1  19
HETATM   19  C   UNK N   1      29.232  23.267  -3.488  0.00  0.00     0.308 C 
BRANCH  19  20
HETATM   20  C   UNK N   1      30.620  23.085  -2.853  0.00  0.00     0.179 C 
BRANCH  20  21
HETATM   21  O   UNK N   1      30.512  22.969  -1.465  0.00  0.00    -0.389 OA
HETATM   22  H   UNK N   1      30.375  22.102  -1.051  0.00  0.00     0.210 HD
ENDBRANCH  20  21
BRANCH  20  23
HETATM   23  C   UNK N   1      31.366  21.923  -3.447  0.00  0.00    -0.028 A 
HETATM   24  C   UNK N   1      32.631  21.586  -2.950  0.00  0.00     0.010 A 
HETATM   25  C   UNK N   1      33.340  20.514  -3.499  0.00  0.00     0.001 A 
HETATM   26  C   UNK N   1      32.787  19.775  -4.548  0.00  0.00     0.000 A 
HETATM   27  C   UNK N   1      31.526  20.104  -5.049  0.00  0.00     0.001 A 
HETATM   28  C   UNK N   1      30.816  21.174  -4.499  0.00  0.00     0.010 A 
ENDBRANCH  20  23
ENDBRANCH  19  20
ENDBRANCH   1  19
TORSDOF 7
ENDMDL
MODEL 4
REMARK VINA RESULT:      -6.6     11.052     13.498
REMARK  7 active torsions:
REMARK  status: ('A' for Active; 'I' for Inactive)
REMARK    1  A    between atoms: O_1  and  C_12 
REMARK    2  A    between atoms: N_3  and  C_11 
REMARK    3  A    between atoms: N_4  and  C_5 
REMARK    4  A    between atoms: N_4  and  C_13 
REMARK       I    between atoms: N_4  and  C_14 
REMARK    5  A    between atoms: C_11  and  C_12 
REMARK    6  A    between atoms: C_12  and  C_15 
REMARK    7  A    between atoms: C_14  and  C_16 
ROOT
HETATM    1  N   UNK N   1      33.653  16.943   5.619  0.00  0.00     0.091 N 
HETATM    2  C   UNK N   1      30.973  17.067   4.972  0.00  0.00     0.100 C 
HETATM    3  C   UNK N   1      31.497  15.672   5.367  0.00  0.00     0.033 C 
HETATM    4  C   UNK N   1      31.911  17.662   3.925  0.00  0.00     0.056 C 
HETATM    5  C   UNK N   1      33.034  15.622   5.422  0.00  0.00     0.278 C 
HETATM    6  C   UNK N   1      33.304  17.888   4.542  0.00  0.00     0.274 C 
HETATM    7  C   UNK N   1      30.922  15.242   6.705  0.00  0.00     0.014 C 
ENDROOT
BRANCH   2   8
HETATM    8  N   UNK N   1      29.549  17.221   4.592  0.00  0.00    -0.313 N 
HETATM    9  C   UNK N   1      28.949  16.406   3.636  0.00  0.00     0.224 C 
HETATM   10  O   UNK N   1      29.602  15.590   3.007  0.00  0.00    -0.273 OA
BRANCH   8  11
HETATM   11  C   UNK N   1      28.810  18.262   5.284  0.00  0.00     0.037 A 
HETATM   12  C   UNK N   1      28.327  19.406   4.618  0.00  0.00     0.030 A 
HETATM   13  C   UNK N   1      27.677  20.429   5.313  0.00  0.00     0.002 A 
HETATM   14  C   UNK N   1      27.497  20.330   6.692  0.00  0.00     0.000 A 
HETATM   15  C   UNK N   1      27.968  19.209   7.376  0.00  0.00     0.002 A 
HETATM   16  C   UNK N   1      28.624  18.190   6.680  0.00  0.00     0.030 A 
ENDBRANCH   8  11
BRANCH   9  17
HETATM   17  C   UNK N   1      27.469  16.430   3.366  0.00  0.00     0.099 C 
HETATM   18  C   UNK N   1      26.733  15.440   4.244  0.00  0.00     0.014 C 
ENDBRANCH   9  17
ENDBRANCH   2   8
BRANCH   1  19
HETATM   19  C   UNK N   1      33.314  17.535   6.919  0.00  0.00     0.308 C 
BRANCH  19  20
HETATM   20  C   UNK N   1      34.536  17.707   7.835  0.00  0.00     0.179 C 
BRANCH  20  21
HETATM   21  O   UNK N   1      34.652  19.036   8.252  0.00  0.00    -0.389 OA
HETATM   22  H   UNK N   1      35.077  19.253   9.097  0.00  0.00     0.210 HD
ENDBRANCH  20  21
BRANCH  20  23
HETATM   23  C   UNK N   1      34.505  16.763   9.004  0.00  0.00    -0.028 A 
HETATM   24  C   UNK N   1      33.656  15.650   8.973  0.00  0.00     0.010 A 
HETATM   25  C   UNK N   1      33.610  14.770  10.057  0.00  0.00     0.001 A 
HETATM   26  C   UNK N   1      34.411  15.000  11.179  0.00  0.00     0.000 A 
HETATM   27  C   UNK N   1      35.261  16.107  11.217  0.00  0.00     0.001 A 
HETATM   28  C   UNK N   1      35.309  16.987  10.133  0.00  0.00     0.010 A 
ENDBRANCH  20  23
ENDBRANCH  19  20
ENDBRANCH   1  19
TORSDOF 7
ENDMDL
MODEL 5
REMARK VINA RESULT:      -6.4     13.876     16.538
REMARK  7 active torsions:
REMARK  status: ('A' for Active; 'I' for Inactive)
REMARK    1  A    between atoms: O_1  and  C_12 
REMARK    2  A    between atoms: N_3  and  C_11 
REMARK    3  A    between atoms: N_4  and  C_5 
REMARK    4  A    between atoms: N_4  and  C_13 
REMARK       I    between atoms: N_4  and  C_14 
REMARK    5  A    between atoms: C_11  and  C_12 
REMARK    6  A    between atoms: C_12  and  C_15 
REMARK    7  A    between atoms: C_14  and  C_16 
ROOT
HETATM    1  N   UNK N   1      34.450  14.169   9.718  0.00  0.00     0.091 N 
HETATM    2  C   UNK N   1      33.280  15.502   7.605  0.00  0.00     0.100 C 
HETATM    3  C   UNK N   1      33.223  16.231   8.962  0.00  0.00     0.033 C 
HETATM    4  C   UNK N   1      32.798  14.067   7.800  0.00  0.00     0.056 C 
HETATM    5  C   UNK N   1      33.620  15.313  10.132  0.00  0.00     0.278 C 
HETATM    6  C   UNK N   1      33.768  13.314   8.729  0.00  0.00     0.274 C 
HETATM    7  C   UNK N   1      34.115  17.460   8.951  0.00  0.00     0.014 C 
ENDROOT
BRANCH   2   8
HETATM    8  N   UNK N   1      32.659  16.139   6.419  0.00  0.00    -0.313 N 
HETATM    9  C   UNK N   1      33.421  16.750   5.427  0.00  0.00     0.224 C 
HETATM   10  O   UNK N   1      34.630  16.865   5.546  0.00  0.00    -0.273 OA
BRANCH   8  11
HETATM   11  C   UNK N   1      31.211  16.076   6.342  0.00  0.00     0.037 A 
HETATM   12  C   UNK N   1      30.544  15.117   5.553  0.00  0.00     0.030 A 
HETATM   13  C   UNK N   1      29.151  15.114   5.438  0.00  0.00     0.002 A 
HETATM   14  C   UNK N   1      28.395  16.074   6.108  0.00  0.00     0.000 A 
HETATM   15  C   UNK N   1      29.029  17.036   6.893  0.00  0.00     0.002 A 
HETATM   16  C   UNK N   1      30.422  17.041   7.003  0.00  0.00     0.030 A 
ENDBRANCH   8  11
BRANCH   9  17
HETATM   17  C   UNK N   1      32.826  17.242   4.137  0.00  0.00     0.099 C 
HETATM   18  C   UNK N   1      33.083  16.270   3.004  0.00  0.00     0.014 C 
ENDBRANCH   9  17
ENDBRANCH   2   8
BRANCH   1  19
HETATM   19  C   UNK N   1      35.756  14.583   9.190  0.00  0.00     0.308 C 
BRANCH  19  20
HETATM   20  C   UNK N   1      36.809  14.789  10.291  0.00  0.00     0.179 C 
BRANCH  20  21
HETATM   21  O   UNK N   1      36.802  16.114  10.734  0.00  0.00    -0.389 OA
HETATM   22  H   UNK N   1      36.647  16.842  10.112  0.00  0.00     0.210 HD
ENDBRANCH  20  21
BRANCH  20  23
HETATM   23  C   UNK N   1      36.630  13.826  11.431  0.00  0.00    -0.028 A 
HETATM   24  C   UNK N   1      36.096  14.280  12.644  0.00  0.00     0.010 A 
HETATM   25  C   UNK N   1      35.934  13.398  13.715  0.00  0.00     0.001 A 
HETATM   26  C   UNK N   1      36.306  12.058  13.580  0.00  0.00     0.000 A 
HETATM   27  C   UNK N   1      36.838  11.597  12.373  0.00  0.00     0.001 A 
HETATM   28  C   UNK N   1      36.999  12.478  11.301  0.00  0.00     0.010 A 
ENDBRANCH  20  23
ENDBRANCH  19  20
ENDBRANCH   1  19
TORSDOF 7
ENDMDL
MODEL 6
REMARK VINA RESULT:      -6.3     15.098     17.877
REMARK  7 active torsions:
REMARK  status: ('A' for Active; 'I' for Inactive)
REMARK    1  A    between atoms: O_1  and  C_12 
REMARK    2  A    between atoms: N_3  and  C_11 
REMARK    3  A    between atoms: N_4  and  C_5 
REMARK    4  A    between atoms: N_4  and  C_13 
REMARK       I    between atoms: N_4  and  C_14 
REMARK    5  A    between atoms: C_11  and  C_12 
REMARK    6  A    between atoms: C_12  and  C_15 
REMARK    7  A    between atoms: C_14  and  C_16 
ROOT
HETATM    1  N   UNK N   1      36.032  15.130  10.418  0.00  0.00     0.091 N 
HETATM    2  C   UNK N   1      33.778  15.682   8.925  0.00  0.00     0.100 C 
HETATM    3  C   UNK N   1      34.785  14.713   8.274  0.00  0.00     0.033 C 
HETATM    4  C   UNK N   1      34.534  16.913   9.419  0.00  0.00     0.056 C 
HETATM    5  C   UNK N   1      36.131  14.687   9.017  0.00  0.00     0.278 C 
HETATM    6  C   UNK N   1      35.518  16.507  10.532  0.00  0.00     0.274 C 
HETATM    7  C   UNK N   1      34.211  13.309   8.204  0.00  0.00     0.014 C 
ENDROOT
BRANCH   2   8
HETATM    8  N   UNK N   1      32.548  16.048   8.184  0.00  0.00    -0.313 N 
HETATM    9  C   UNK N   1      31.322  16.208   8.825  0.00  0.00     0.224 C 
HETATM   10  O   UNK N   1      31.198  15.960  10.013  0.00  0.00    -0.273 OA
BRANCH   8  11
HETATM   11  C   UNK N   1      32.695  16.246   6.753  0.00  0.00     0.037 A 
HETATM   12  C   UNK N   1      32.400  15.231   5.822  0.00  0.00     0.030 A 
HETATM   13  C   UNK N   1      32.612  15.417   4.454  0.00  0.00     0.002 A 
HETATM   14  C   UNK N   1      33.127  16.625   3.987  0.00  0.00     0.000 A 
HETATM   15  C   UNK N   1      33.432  17.646   4.887  0.00  0.00     0.002 A 
HETATM   16  C   UNK N   1      33.225  17.456   6.256  0.00  0.00     0.030 A 
ENDBRANCH   8  11
BRANCH   9  17
HETATM   17  C   UNK N   1      30.107  16.748   8.123  0.00  0.00     0.099 C 
HETATM   18  C   UNK N   1      29.855  18.195   8.493  0.00  0.00     0.014 C 
ENDBRANCH   9  17
ENDBRANCH   2   8
BRANCH   1  19
HETATM   19  C   UNK N   1      35.208  14.230  11.235  0.00  0.00     0.308 C 
BRANCH  19  20
HETATM   20  C   UNK N   1      36.034  13.153  11.957  0.00  0.00     0.179 C 
BRANCH  20  21
HETATM   21  O   UNK N   1      37.372  13.543  12.051  0.00  0.00    -0.389 OA
HETATM   22  H   UNK N   1      38.082  12.883  12.028  0.00  0.00     0.210 HD
ENDBRANCH  20  21
BRANCH  20  23
HETATM   23  C   UNK N   1      35.463  12.811  13.304  0.00  0.00    -0.028 A 
HETATM   24  C   UNK N   1      35.848  13.553  14.428  0.00  0.00     0.010 A 
HETATM   25  C   UNK N   1      35.333  13.239  15.688  0.00  0.00     0.001 A 
HETATM   26  C   UNK N   1      34.430  12.182  15.831  0.00  0.00     0.000 A 
HETATM   27  C   UNK N   1      34.041  11.438  14.715  0.00  0.00     0.001 A 
HETATM   28  C   UNK N   1      34.554  11.752  13.455  0.00  0.00     0.010 A 
ENDBRANCH  20  23
ENDBRANCH  19  20
ENDBRANCH   1  19
TORSDOF 7
ENDMDL
MODEL 7
REMARK VINA RESULT:      -6.3      2.160      7.551
REMARK  7 active torsions:
REMARK  status: ('A' for Active; 'I' for Inactive)
REMARK    1  A    between atoms: O_1  and  C_12 
REMARK    2  A    between atoms: N_3  and  C_11 
REMARK    3  A    between atoms: N_4  and  C_5 
REMARK    4  A    between atoms: N_4  and  C_13 
REMARK       I    between atoms: N_4  and  C_14 
REMARK    5  A    between atoms: C_11  and  C_12 
REMARK    6  A    between atoms: C_12  and  C_15 
REMARK    7  A    between atoms: C_14  and  C_16 
ROOT
HETATM    1  N   UNK N   1      29.055  24.736  -4.542  0.00  0.00     0.091 N 
HETATM    2  C   UNK N   1      30.743  22.686  -5.293  0.00  0.00     0.100 C 
HETATM    3  C   UNK N   1      30.758  23.042  -3.794  0.00  0.00     0.033 C 
HETATM    4  C   UNK N   1      30.899  23.970  -6.103  0.00  0.00     0.056 C 
HETATM    5  C   UNK N   1      30.032  24.368  -3.504  0.00  0.00     0.278 C 
HETATM    6  C   UNK N   1      29.682  24.885  -5.868  0.00  0.00     0.274 C 
HETATM    7  C   UNK N   1      30.139  21.928  -2.970  0.00  0.00     0.014 C 
ENDROOT
BRANCH   2   8
HETATM    8  N   UNK N   1      31.632  21.609  -5.787  0.00  0.00    -0.313 N 
HETATM    9  C   UNK N   1      31.221  20.701  -6.760  0.00  0.00     0.224 C 
HETATM   10  O   UNK N   1      30.074  20.704  -7.176  0.00  0.00    -0.273 OA
BRANCH   8  11
HETATM   11  C   UNK N   1      32.964  21.561  -5.210  0.00  0.00     0.037 A 
HETATM   12  C   UNK N   1      34.008  22.389  -5.668  0.00  0.00     0.030 A 
HETATM   13  C   UNK N   1      35.300  22.283  -5.147  0.00  0.00     0.002 A 
HETATM   14  C   UNK N   1      35.576  21.342  -4.157  0.00  0.00     0.000 A 
HETATM   15  C   UNK N   1      34.562  20.507  -3.688  0.00  0.00     0.002 A 
HETATM   16  C   UNK N   1      33.272  20.611  -4.214  0.00  0.00     0.030 A 
ENDBRANCH   8  11
BRANCH   9  17
HETATM   17  C   UNK N   1      32.162  19.717  -7.398  0.00  0.00     0.099 C 
HETATM   18  C   UNK N   1      32.627  20.200  -8.756  0.00  0.00     0.014 C 
ENDBRANCH   9  17
ENDBRANCH   2   8
BRANCH   1  19
HETATM   19  C   UNK N   1      27.941  23.783  -4.630  0.00  0.00     0.308 C 
BRANCH  19  20
HETATM   20  C   UNK N   1      26.735  24.192  -3.771  0.00  0.00     0.179 C 
BRANCH  20  21
HETATM   21  O   UNK N   1      27.062  24.147  -2.413  0.00  0.00    -0.389 OA
HETATM   22  H   UNK N   1      27.341  23.315  -1.999  0.00  0.00     0.210 HD
ENDBRANCH  20  21
BRANCH  20  23
HETATM   23  C   UNK N   1      26.192  25.539  -4.161  0.00  0.00    -0.028 A 
HETATM   24  C   UNK N   1      25.554  25.696  -5.398  0.00  0.00     0.010 A 
HETATM   25  C   UNK N   1      25.054  26.943  -5.778  0.00  0.00     0.001 A 
HETATM   26  C   UNK N   1      25.191  28.041  -4.924  0.00  0.00     0.000 A 
HETATM   27  C   UNK N   1      25.825  27.892  -3.688  0.00  0.00     0.001 A 
HETATM   28  C   UNK N   1      26.324  26.645  -3.307  0.00  0.00     0.010 A 
ENDBRANCH  20  23
ENDBRANCH  19  20
ENDBRANCH   1  19
TORSDOF 7
ENDMDL
MODEL 8
REMARK VINA RESULT:      -6.2      2.969      5.578
REMARK  7 active torsions:
REMARK  status: ('A' for Active; 'I' for Inactive)
REMARK    1  A    between atoms: O_1  and  C_12 
REMARK    2  A    between atoms: N_3  and  C_11 
REMARK    3  A    between atoms: N_4  and  C_5 
REMARK    4  A    between atoms: N_4  and  C_13 
REMARK       I    between atoms: N_4  and  C_14 
REMARK    5  A    between atoms: C_11  and  C_12 
REMARK    6  A    between atoms: C_12  and  C_15 
REMARK    7  A    between atoms: C_14  and  C_16 
ROOT
HETATM    1  N   UNK N   1      26.027  24.059  -6.402  0.00  0.00     0.091 N 
HETATM    2  C   UNK N   1      26.771  26.464  -5.272  0.00  0.00     0.100 C 
HETATM    3  C   UNK N   1      26.459  25.330  -4.275  0.00  0.00     0.033 C 
HETATM    4  C   UNK N   1      25.628  26.558  -6.279  0.00  0.00     0.056 C 
HETATM    5  C   UNK N   1      25.773  24.132  -4.953  0.00  0.00     0.278 C 
HETATM    6  C   UNK N   1      25.559  25.264  -7.111  0.00  0.00     0.274 C 
HETATM    7  C   UNK N   1      27.723  24.868  -3.573  0.00  0.00     0.014 C 
ENDROOT
BRANCH   2   8
HETATM    8  N   UNK N   1      27.161  27.795  -4.751  0.00  0.00    -0.313 N 
HETATM    9  C   UNK N   1      26.467  28.414  -3.715  0.00  0.00     0.224 C 
HETATM   10  O   UNK N   1      25.449  27.919  -3.258  0.00  0.00    -0.273 OA
BRANCH   8  11
HETATM   11  C   UNK N   1      28.320  28.412  -5.371  0.00  0.00     0.037 A 
HETATM   12  C   UNK N   1      29.618  28.267  -4.844  0.00  0.00     0.030 A 
HETATM   13  C   UNK N   1      30.711  28.923  -5.416  0.00  0.00     0.002 A 
HETATM   14  C   UNK N   1      30.528  29.742  -6.529  0.00  0.00     0.000 A 
HETATM   15  C   UNK N   1      29.252  29.906  -7.069  0.00  0.00     0.002 A 
HETATM   16  C   UNK N   1      28.160  29.253  -6.492  0.00  0.00     0.030 A 
ENDBRANCH   8  11
BRANCH   9  17
HETATM   17  C   UNK N   1      26.951  29.676  -3.057  0.00  0.00     0.099 C 
HETATM   18  C   UNK N   1      26.327  30.903  -3.692  0.00  0.00     0.014 C 
ENDBRANCH   9  17
ENDBRANCH   2   8
BRANCH   1  19
HETATM   19  C   UNK N   1      27.443  23.825  -6.714  0.00  0.00     0.308 C 
BRANCH  19  20
HETATM   20  C   UNK N   1      27.692  22.465  -7.384  0.00  0.00     0.179 C 
BRANCH  20  21
HETATM   21  O   UNK N   1      27.854  22.621  -8.763  0.00  0.00    -0.389 OA
HETATM   22  H   UNK N   1      28.360  21.973  -9.278  0.00  0.00     0.210 HD
ENDBRANCH  20  21
BRANCH  20  23
HETATM   23  C   UNK N   1      28.855  21.737  -6.772  0.00  0.00    -0.028 A 
HETATM   24  C   UNK N   1      29.443  22.231  -5.601  0.00  0.00     0.010 A 
HETATM   25  C   UNK N   1      30.531  21.569  -5.027  0.00  0.00     0.001 A 
HETATM   26  C   UNK N   1      31.038  20.410  -5.621  0.00  0.00     0.000 A 
HETATM   27  C   UNK N   1      30.456  19.911  -6.789  0.00  0.00     0.001 A 
HETATM   28  C   UNK N   1      29.367  20.570  -7.362  0.00  0.00     0.010 A 
ENDBRANCH  20  23
ENDBRANCH  19  20
ENDBRANCH   1  19
TORSDOF 7
ENDMDL
MODEL 9
REMARK VINA RESULT:      -6.2     10.518     13.958
REMARK  7 active torsions:
REMARK  status: ('A' for Active; 'I' for Inactive)
REMARK    1  A    between atoms: O_1  and  C_12 
REMARK    2  A    between atoms: N_3  and  C_11 
REMARK    3  A    between atoms: N_4  and  C_5 
REMARK    4  A    between atoms: N_4  and  C_13 
REMARK       I    between atoms: N_4  and  C_14 
REMARK    5  A    between atoms: C_11  and  C_12 
REMARK    6  A    between atoms: C_12  and  C_15 
REMARK    7  A    between atoms: C_14  and  C_16 
ROOT
HETATM    1  N   UNK N   1      25.633  15.964   4.091  0.00  0.00     0.091 N 
HETATM    2  C   UNK N   1      28.100  16.469   5.219  0.00  0.00     0.100 C 
HETATM    3  C   UNK N   1      27.839  17.149   3.860  0.00  0.00     0.033 C 
HETATM    4  C   UNK N   1      27.742  14.990   5.102  0.00  0.00     0.056 C 
HETATM    5  C   UNK N   1      26.587  16.592   3.162  0.00  0.00     0.278 C 
HETATM    6  C   UNK N   1      26.234  14.838   4.830  0.00  0.00     0.274 C 
HETATM    7  C   UNK N   1      27.706  18.652   4.028  0.00  0.00     0.014 C 
ENDROOT
BRANCH   2   8
HETATM    8  N   UNK N   1      29.406  16.671   5.888  0.00  0.00    -0.313 N 
HETATM    9  C   UNK N   1      29.500  17.002   7.237  0.00  0.00     0.224 C 
HETATM   10  O   UNK N   1      28.500  17.227   7.899  0.00  0.00    -0.273 OA
BRANCH   8  11
HETATM   11  C   UNK N   1      30.585  16.491   5.060  0.00  0.00     0.037 A 
HETATM   12  C   UNK N   1      31.143  15.220   4.817  0.00  0.00     0.030 A 
HETATM   13  C   UNK N   1      32.316  15.073   4.073  0.00  0.00     0.002 A 
HETATM   14  C   UNK N   1      32.960  16.196   3.558  0.00  0.00     0.000 A 
HETATM   15  C   UNK N   1      32.432  17.467   3.786  0.00  0.00     0.002 A 
HETATM   16  C   UNK N   1      31.262  17.613   4.535  0.00  0.00     0.030 A 
ENDBRANCH   8  11
BRANCH   9  17
HETATM   17  C   UNK N   1      30.812  17.038   7.972  0.00  0.00     0.099 C 
HETATM   18  C   UNK N   1      30.930  18.282   8.828  0.00  0.00     0.014 C 
ENDBRANCH   9  17
ENDBRANCH   2   8
BRANCH   1  19
HETATM   19  C   UNK N   1      25.058  16.924   5.041  0.00  0.00     0.308 C 
BRANCH  19  20
HETATM   20  C   UNK N   1      23.532  17.055   4.910  0.00  0.00     0.179 C 
BRANCH  20  21
HETATM   21  O   UNK N   1      22.927  17.017   6.170  0.00  0.00    -0.389 OA
HETATM   22  H   UNK N   1      23.324  16.507   6.893  0.00  0.00     0.210 HD
ENDBRANCH  20  21
BRANCH  20  23
HETATM   23  C   UNK N   1      23.133  18.286   4.145  0.00  0.00    -0.028 A 
HETATM   24  C   UNK N   1      21.793  18.473   3.785  0.00  0.00     0.010 A 
HETATM   25  C   UNK N   1      21.411  19.607   3.065  0.00  0.00     0.001 A 
HETATM   26  C   UNK N   1      22.367  20.560   2.700  0.00  0.00     0.000 A 
HETATM   27  C   UNK N   1      23.705  20.380   3.057  0.00  0.00     0.001 A 
HETATM   28  C   UNK N   1      24.088  19.247   3.778  0.00  0.00     0.010 A 
ENDBRANCH  20  23
ENDBRANCH  19  20
ENDBRANCH   1  19
TORSDOF 7
ENDMDL
