REMARK  7 active torsions:
REMARK  status: ('A' for Active; 'I' for Inactive)
REMARK    1  A    between atoms: O_1  and  C_12 
REMARK    2  A    between atoms: N_3  and  C_11 
REMARK    3  A    between atoms: N_4  and  C_5 
REMARK    4  A    between atoms: N_4  and  C_13 
REMARK       I    between atoms: N_4  and  C_14 
REMARK    5  A    between atoms: C_11  and  C_12 
REMARK    6  A    between atoms: C_12  and  C_15 
REMARK    7  A    between atoms: C_14  and  C_16 
ROOT
HETATM    1  N   UNK N   1       3.426  -1.039  -0.686  0.00  0.00     0.091 N 
HETATM    2  C   UNK N   1       3.349   1.677  -0.205  0.00  0.00     0.100 C 
HETATM    3  C   UNK N   1       1.980   1.002  -0.420  0.00  0.00     0.033 C 
HETATM    4  C   UNK N   1       4.285   1.255  -1.334  0.00  0.00     0.056 C 
HETATM    5  C   UNK N   1       2.117  -0.428  -0.971  0.00  0.00     0.278 C 
HETATM    6  C   UNK N   1       4.540  -0.262  -1.260  0.00  0.00     0.274 C 
HETATM    7  C   UNK N   1       1.183   0.979   0.872  0.00  0.00     0.014 C 
ENDROOT
BRANCH   2   8
HETATM    8  N   UNK N   1       3.402   3.137   0.042  0.00  0.00    -0.313 N 
HETATM    9  C   UNK N   1       2.270   3.942  -0.050  0.00  0.00     0.224 C 
HETATM   10  O   UNK N   1       1.204   3.485  -0.430  0.00  0.00    -0.273 OA
BRANCH   8  11
HETATM   11  C   UNK N   1       4.700   3.680   0.401  0.00  0.00     0.037 A 
HETATM   12  C   UNK N   1       4.991   5.055   0.298  0.00  0.00     0.030 A 
HETATM   13  C   UNK N   1       6.266   5.550   0.584  0.00  0.00     0.002 A 
HETATM   14  C   UNK N   1       7.280   4.678   0.977  0.00  0.00     0.000 A 
HETATM   15  C   UNK N   1       7.020   3.312   1.084  0.00  0.00     0.002 A 
HETATM   16  C   UNK N   1       5.746   2.818   0.792  0.00  0.00     0.030 A 
ENDBRANCH   8  11
BRANCH   9  17
HETATM   17  C   UNK N   1       2.268   5.387   0.367  0.00  0.00     0.099 C 
HETATM   18  C   UNK N   1       1.865   6.291  -0.780  0.00  0.00     0.014 C 
ENDBRANCH   9  17
ENDBRANCH   2   8
BRANCH   1  19
HETATM   19  C   UNK N   1       3.654  -1.236   0.751  0.00  0.00     0.308 C 
BRANCH  19  20
HETATM   20  C   UNK N   1       2.754  -2.325   1.356  0.00  0.00     0.179 C 
BRANCH  20  21
HETATM   21  O   UNK N   1       1.458  -1.839   1.547  0.00  0.00    -0.389 OA
HETATM   22  H   UNK N   1       1.300  -0.891   1.680  0.00  0.00     0.210 HD
ENDBRANCH  20  21
BRANCH  20  23
HETATM   23  C   UNK N   1       2.755  -3.582   0.532  0.00  0.00    -0.028 A 
HETATM   24  C   UNK N   1       3.955  -4.274   0.326  0.00  0.00     0.010 A 
HETATM   25  C   UNK N   1       3.972  -5.438  -0.446  0.00  0.00     0.001 A 
HETATM   26  C   UNK N   1       2.789  -5.916  -1.017  0.00  0.00     0.000 A 
HETATM   27  C   UNK N   1       1.588  -5.232  -0.815  0.00  0.00     0.001 A 
HETATM   28  C   UNK N   1       1.570  -4.069  -0.042  0.00  0.00     0.010 A 
ENDBRANCH  20  23
ENDBRANCH  19  20
ENDBRANCH   1  19
TORSDOF 7
