MODEL 1
REMARK VINA RESULT:      -6.5      0.000      0.000
REMARK  6 active torsions:
REMARK  status: ('A' for Active; 'I' for Inactive)
REMARK    1  A    between atoms: N_2  and  C_10 
REMARK    2  A    between atoms: N_3  and  C_4 
REMARK    3  A    between atoms: N_3  and  C_12 
REMARK       I    between atoms: N_3  and  C_13 
REMARK    4  A    between atoms: C_10  and  C_11 
REMARK    5  A    between atoms: C_11  and  C_15 
REMARK    6  A    between atoms: C_13  and  C_14 
ROOT
HETATM    1  N   UNK N   1      25.974  22.912  -8.422  0.00  0.00     0.089 N 
HETATM    2  C   UNK N   1      26.548  24.476  -6.225  0.00  0.00     0.100 C 
HETATM    3  C   UNK N   1      26.156  25.245  -7.502  0.00  0.00     0.033 C 
HETATM    4  C   UNK N   1      25.528  23.370  -5.970  0.00  0.00     0.056 C 
HETATM    5  C   UNK N   1      25.561  24.318  -8.575  0.00  0.00     0.278 C 
HETATM    6  C   UNK N   1      25.544  22.353  -7.127  0.00  0.00     0.274 C 
HETATM    7  C   UNK N   1      27.355  25.979  -8.075  0.00  0.00     0.014 C 
ENDROOT
BRANCH   2   8
HETATM    8  N   UNK N   1      26.850  25.237  -4.990  0.00  0.00    -0.313 N 
HETATM    9  C   UNK N   1      26.041  26.286  -4.562  0.00  0.00     0.224 C 
HETATM   10  O   UNK N   1      25.018  26.573  -5.160  0.00  0.00    -0.273 OA
BRANCH   8  11
HETATM   11  C   UNK N   1      28.036  24.825  -4.261  0.00  0.00     0.037 A 
HETATM   12  C   UNK N   1      27.998  23.849  -3.246  0.00  0.00     0.030 A 
HETATM   13  C   UNK N   1      29.162  23.432  -2.595  0.00  0.00     0.002 A 
HETATM   14  C   UNK N   1      30.394  23.985  -2.945  0.00  0.00     0.000 A 
HETATM   15  C   UNK N   1      30.460  24.953  -3.947  0.00  0.00     0.002 A 
HETATM   16  C   UNK N   1      29.296  25.362  -4.602  0.00  0.00     0.030 A 
ENDBRANCH   8  11
BRANCH   9  17
HETATM   17  C   UNK N   1      26.395  27.156  -3.386  0.00  0.00     0.099 C 
HETATM   18  C   UNK N   1      26.049  28.608  -3.660  0.00  0.00     0.014 C 
ENDBRANCH   9  17
ENDBRANCH   2   8
BRANCH   1  19
HETATM   19  C   UNK N   1      27.423  22.732  -8.567  0.00  0.00     0.277 C 
BRANCH  19  20
HETATM   20  C   UNK N   1      27.837  21.258  -8.568  0.00  0.00     0.068 C 
BRANCH  20  21
HETATM   21  C   UNK N   1      28.929  20.974  -7.593  0.00  0.00    -0.057 A 
HETATM   22  C   UNK N   1      29.745  19.845  -7.746  0.00  0.00     0.007 A 
HETATM   23  C   UNK N   1      30.768  19.592  -6.829  0.00  0.00     0.001 A 
HETATM   24  C   UNK N   1      30.974  20.462  -5.753  0.00  0.00     0.000 A 
HETATM   25  C   UNK N   1      30.157  21.585  -5.595  0.00  0.00     0.001 A 
HETATM   26  C   UNK N   1      29.136  21.842  -6.515  0.00  0.00     0.007 A 
ENDBRANCH  20  21
ENDBRANCH  19  20
ENDBRANCH   1  19
TORSDOF 6
ENDMDL
MODEL 2
REMARK VINA RESULT:      -6.4      2.846      6.773
REMARK  6 active torsions:
REMARK  status: ('A' for Active; 'I' for Inactive)
REMARK    1  A    between atoms: N_2  and  C_10 
REMARK    2  A    between atoms: N_3  and  C_4 
REMARK    3  A    between atoms: N_3  and  C_12 
REMARK       I    between atoms: N_3  and  C_13 
REMARK    4  A    between atoms: C_10  and  C_11 
REMARK    5  A    between atoms: C_11  and  C_15 
REMARK    6  A    between atoms: C_13  and  C_14 
ROOT
HETATM    1  N   UNK N   1      31.095  28.822  -4.621  0.00  0.00     0.089 N 
HETATM    2  C   UNK N   1      30.454  26.146  -4.782  0.00  0.00     0.100 C 
HETATM    3  C   UNK N   1      31.554  26.623  -5.751  0.00  0.00     0.033 C 
HETATM    4  C   UNK N   1      30.773  26.640  -3.374  0.00  0.00     0.056 C 
HETATM    5  C   UNK N   1      32.065  28.029  -5.396  0.00  0.00     0.278 C 
HETATM    6  C   UNK N   1      30.765  28.180  -3.336  0.00  0.00     0.274 C 
HETATM    7  C   UNK N   1      31.047  26.615  -7.182  0.00  0.00     0.014 C 
ENDROOT
BRANCH   2   8
HETATM    8  N   UNK N   1      30.064  24.716  -4.784  0.00  0.00    -0.313 N 
HETATM    9  C   UNK N   1      31.002  23.702  -4.613  0.00  0.00     0.224 C 
HETATM   10  O   UNK N   1      32.173  23.962  -4.390  0.00  0.00    -0.273 OA
BRANCH   8  11
HETATM   11  C   UNK N   1      28.651  24.441  -4.979  0.00  0.00     0.037 A 
HETATM   12  C   UNK N   1      28.130  24.007  -6.214  0.00  0.00     0.030 A 
HETATM   13  C   UNK N   1      26.775  23.698  -6.361  0.00  0.00     0.002 A 
HETATM   14  C   UNK N   1      25.909  23.817  -5.274  0.00  0.00     0.000 A 
HETATM   15  C   UNK N   1      26.400  24.243  -4.040  0.00  0.00     0.002 A 
HETATM   16  C   UNK N   1      27.756  24.544  -3.893  0.00  0.00     0.030 A 
ENDBRANCH   8  11
BRANCH   9  17
HETATM   17  C   UNK N   1      30.653  22.244  -4.739  0.00  0.00     0.099 C 
HETATM   18  C   UNK N   1      30.448  21.613  -3.375  0.00  0.00     0.014 C 
ENDBRANCH   9  17
ENDBRANCH   2   8
BRANCH   1  19
HETATM   19  C   UNK N   1      29.856  29.077  -5.363  0.00  0.00     0.277 C 
BRANCH  19  20
HETATM   20  C   UNK N   1      28.644  29.258  -4.445  0.00  0.00     0.068 C 
BRANCH  20  21
HETATM   21  C   UNK N   1      27.439  28.533  -4.944  0.00  0.00    -0.057 A 
HETATM   22  C   UNK N   1      26.299  28.410  -4.141  0.00  0.00     0.007 A 
HETATM   23  C   UNK N   1      25.175  27.732  -4.621  0.00  0.00     0.001 A 
HETATM   24  C   UNK N   1      25.191  27.171  -5.902  0.00  0.00     0.000 A 
HETATM   25  C   UNK N   1      26.331  27.287  -6.702  0.00  0.00     0.001 A 
HETATM   26  C   UNK N   1      27.454  27.969  -6.225  0.00  0.00     0.007 A 
ENDBRANCH  20  21
ENDBRANCH  19  20
ENDBRANCH   1  19
TORSDOF 6
ENDMDL
MODEL 3
REMARK VINA RESULT:      -6.3      2.350      5.946
REMARK  6 active torsions:
REMARK  status: ('A' for Active; 'I' for Inactive)
REMARK    1  A    between atoms: N_2  and  C_10 
REMARK    2  A    between atoms: N_3  and  C_4 
REMARK    3  A    between atoms: N_3  and  C_12 
REMARK       I    between atoms: N_3  and  C_13 
REMARK    4  A    between atoms: C_10  and  C_11 
REMARK    5  A    between atoms: C_11  and  C_15 
REMARK    6  A    between atoms: C_13  and  C_14 
ROOT
HETATM    1  N   UNK N   1      25.570  24.406  -5.588  0.00  0.00     0.089 N 
HETATM    2  C   UNK N   1      28.254  23.872  -5.919  0.00  0.00     0.100 C 
HETATM    3  C   UNK N   1      27.824  24.249  -4.487  0.00  0.00     0.033 C 
HETATM    4  C   UNK N   1      27.319  22.792  -6.458  0.00  0.00     0.056 C 
HETATM    5  C   UNK N   1      26.296  24.230  -4.319  0.00  0.00     0.278 C 
HETATM    6  C   UNK N   1      25.879  23.333  -6.550  0.00  0.00     0.274 C 
HETATM    7  C   UNK N   1      28.359  25.619  -4.112  0.00  0.00     0.014 C 
ENDROOT
BRANCH   2   8
HETATM    8  N   UNK N   1      29.675  23.545  -6.182  0.00  0.00    -0.313 N 
HETATM    9  C   UNK N   1      30.330  23.996  -7.324  0.00  0.00     0.224 C 
HETATM   10  O   UNK N   1      29.770  24.734  -8.118  0.00  0.00    -0.273 OA
BRANCH   8  11
HETATM   11  C   UNK N   1      30.336  22.725  -5.183  0.00  0.00     0.037 A 
HETATM   12  C   UNK N   1      30.222  21.321  -5.161  0.00  0.00     0.030 A 
HETATM   13  C   UNK N   1      30.911  20.550  -4.220  0.00  0.00     0.002 A 
HETATM   14  C   UNK N   1      31.731  21.170  -3.278  0.00  0.00     0.000 A 
HETATM   15  C   UNK N   1      31.864  22.558  -3.278  0.00  0.00     0.002 A 
HETATM   16  C   UNK N   1      31.180  23.325  -4.223  0.00  0.00     0.030 A 
ENDBRANCH   8  11
BRANCH   9  17
HETATM   17  C   UNK N   1      31.730  23.573  -7.679  0.00  0.00     0.099 C 
HETATM   18  C   UNK N   1      32.687  24.748  -7.612  0.00  0.00     0.014 C 
ENDBRANCH   9  17
ENDBRANCH   2   8
BRANCH   1  19
HETATM   19  C   UNK N   1      25.837  25.705  -6.215  0.00  0.00     0.277 C 
BRANCH  19  20
HETATM   20  C   UNK N   1      25.062  26.849  -5.556  0.00  0.00     0.068 C 
BRANCH  20  21
HETATM   21  C   UNK N   1      25.949  27.983  -5.161  0.00  0.00    -0.057 A 
HETATM   22  C   UNK N   1      26.957  28.431  -6.023  0.00  0.00     0.007 A 
HETATM   23  C   UNK N   1      27.779  29.496  -5.645  0.00  0.00     0.001 A 
HETATM   24  C   UNK N   1      27.598  30.111  -4.402  0.00  0.00     0.000 A 
HETATM   25  C   UNK N   1      26.596  29.660  -3.537  0.00  0.00     0.001 A 
HETATM   26  C   UNK N   1      25.771  28.598  -3.917  0.00  0.00     0.007 A 
ENDBRANCH  20  21
ENDBRANCH  19  20
ENDBRANCH   1  19
TORSDOF 6
ENDMDL
MODEL 4
REMARK VINA RESULT:      -6.2      2.452      5.578
REMARK  6 active torsions:
REMARK  status: ('A' for Active; 'I' for Inactive)
REMARK    1  A    between atoms: N_2  and  C_10 
REMARK    2  A    between atoms: N_3  and  C_4 
REMARK    3  A    between atoms: N_3  and  C_12 
REMARK       I    between atoms: N_3  and  C_13 
REMARK    4  A    between atoms: C_10  and  C_11 
REMARK    5  A    between atoms: C_11  and  C_15 
REMARK    6  A    between atoms: C_13  and  C_14 
ROOT
HETATM    1  N   UNK N   1      26.033  24.437  -7.753  0.00  0.00     0.089 N 
HETATM    2  C   UNK N   1      28.241  24.334  -6.106  0.00  0.00     0.100 C 
HETATM    3  C   UNK N   1      26.972  23.652  -5.557  0.00  0.00     0.033 C 
HETATM    4  C   UNK N   1      28.490  23.859  -7.535  0.00  0.00     0.056 C 
HETATM    5  C   UNK N   1      25.893  23.484  -6.639  0.00  0.00     0.278 C 
HETATM    6  C   UNK N   1      27.324  24.283  -8.447  0.00  0.00     0.274 C 
HETATM    7  C   UNK N   1      26.401  24.442  -4.391  0.00  0.00     0.014 C 
ENDROOT
BRANCH   2   8
HETATM    8  N   UNK N   1      29.481  24.305  -5.296  0.00  0.00    -0.313 N 
HETATM    9  C   UNK N   1      30.036  23.108  -4.852  0.00  0.00     0.224 C 
HETATM   10  O   UNK N   1      29.551  22.035  -5.170  0.00  0.00    -0.273 OA
BRANCH   8  11
HETATM   11  C   UNK N   1      30.077  25.595  -4.994  0.00  0.00     0.037 A 
HETATM   12  C   UNK N   1      30.999  26.221  -5.854  0.00  0.00     0.030 A 
HETATM   13  C   UNK N   1      31.518  27.486  -5.566  0.00  0.00     0.002 A 
HETATM   14  C   UNK N   1      31.124  28.154  -4.406  0.00  0.00     0.000 A 
HETATM   15  C   UNK N   1      30.211  27.557  -3.537  0.00  0.00     0.002 A 
HETATM   16  C   UNK N   1      29.688  26.296  -3.831  0.00  0.00     0.030 A 
ENDBRANCH   8  11
BRANCH   9  17
HETATM   17  C   UNK N   1      31.219  23.057  -3.923  0.00  0.00     0.099 C 
HETATM   18  C   UNK N   1      30.773  22.901  -2.482  0.00  0.00     0.014 C 
ENDBRANCH   9  17
ENDBRANCH   2   8
BRANCH   1  19
HETATM   19  C   UNK N   1      25.882  25.832  -7.322  0.00  0.00     0.277 C 
BRANCH  19  20
HETATM   20  C   UNK N   1      26.958  26.750  -7.906  0.00  0.00     0.068 C 
BRANCH  20  21
HETATM   21  C   UNK N   1      27.316  27.866  -6.982  0.00  0.00    -0.057 A 
HETATM   22  C   UNK N   1      28.316  28.784  -7.327  0.00  0.00     0.007 A 
HETATM   23  C   UNK N   1      28.639  29.827  -6.456  0.00  0.00     0.001 A 
HETATM   24  C   UNK N   1      27.968  29.951  -5.235  0.00  0.00     0.000 A 
HETATM   25  C   UNK N   1      26.975  29.031  -4.885  0.00  0.00     0.001 A 
HETATM   26  C   UNK N   1      26.648  27.990  -5.759  0.00  0.00     0.007 A 
ENDBRANCH  20  21
ENDBRANCH  19  20
ENDBRANCH   1  19
TORSDOF 6
ENDMDL
MODEL 5
REMARK VINA RESULT:      -6.2     14.908     16.936
REMARK  6 active torsions:
REMARK  status: ('A' for Active; 'I' for Inactive)
REMARK    1  A    between atoms: N_2  and  C_10 
REMARK    2  A    between atoms: N_3  and  C_4 
REMARK    3  A    between atoms: N_3  and  C_12 
REMARK       I    between atoms: N_3  and  C_13 
REMARK    4  A    between atoms: C_10  and  C_11 
REMARK    5  A    between atoms: C_11  and  C_15 
REMARK    6  A    between atoms: C_13  and  C_14 
ROOT
HETATM    1  N   UNK N   1      21.729  15.007   8.044  0.00  0.00     0.089 N 
HETATM    2  C   UNK N   1      21.382  15.630   5.381  0.00  0.00     0.100 C 
HETATM    3  C   UNK N   1      20.496  16.416   6.367  0.00  0.00     0.033 C 
HETATM    4  C   UNK N   1      22.831  15.673   5.862  0.00  0.00     0.056 C 
HETATM    5  C   UNK N   1      20.955  16.241   7.824  0.00  0.00     0.278 C 
HETATM    6  C   UNK N   1      22.958  14.978   7.231  0.00  0.00     0.274 C 
HETATM    7  C   UNK N   1      19.044  15.989   6.239  0.00  0.00     0.014 C 
ENDROOT
BRANCH   2   8
HETATM    8  N   UNK N   1      21.279  15.918   3.932  0.00  0.00    -0.313 N 
HETATM    9  C   UNK N   1      21.371  14.909   2.977  0.00  0.00     0.224 C 
HETATM   10  O   UNK N   1      21.476  13.740   3.308  0.00  0.00    -0.273 OA
BRANCH   8  11
HETATM   11  C   UNK N   1      21.082  17.311   3.571  0.00  0.00     0.037 A 
HETATM   12  C   UNK N   1      22.127  18.254   3.599  0.00  0.00     0.030 A 
HETATM   13  C   UNK N   1      21.924  19.577   3.197  0.00  0.00     0.002 A 
HETATM   14  C   UNK N   1      20.665  19.986   2.757  0.00  0.00     0.000 A 
HETATM   15  C   UNK N   1      19.612  19.072   2.718  0.00  0.00     0.002 A 
HETATM   16  C   UNK N   1      19.820  17.749   3.114  0.00  0.00     0.030 A 
ENDBRANCH   8  11
BRANCH   9  17
HETATM   17  C   UNK N   1      21.399  15.190   1.499  0.00  0.00     0.099 C 
HETATM   18  C   UNK N   1      22.435  14.329   0.801  0.00  0.00     0.014 C 
ENDBRANCH   9  17
ENDBRANCH   2   8
BRANCH   1  19
HETATM   19  C   UNK N   1      20.946  13.796   7.777  0.00  0.00     0.277 C 
BRANCH  19  20
HETATM   20  C   UNK N   1      21.762  12.513   7.958  0.00  0.00     0.068 C 
BRANCH  20  21
HETATM   21  C   UNK N   1      22.225  12.328   9.364  0.00  0.00    -0.057 A 
HETATM   22  C   UNK N   1      23.583  12.131   9.647  0.00  0.00     0.007 A 
HETATM   23  C   UNK N   1      24.005  11.964  10.968  0.00  0.00     0.001 A 
HETATM   24  C   UNK N   1      23.072  11.988  12.009  0.00  0.00     0.000 A 
HETATM   25  C   UNK N   1      21.715  12.178  11.728  0.00  0.00     0.001 A 
HETATM   26  C   UNK N   1      21.292  12.350  10.407  0.00  0.00     0.007 A 
ENDBRANCH  20  21
ENDBRANCH  19  20
ENDBRANCH   1  19
TORSDOF 6
ENDMDL
MODEL 6
REMARK VINA RESULT:      -6.1      2.710      7.062
REMARK  6 active torsions:
REMARK  status: ('A' for Active; 'I' for Inactive)
REMARK    1  A    between atoms: N_2  and  C_10 
REMARK    2  A    between atoms: N_3  and  C_4 
REMARK    3  A    between atoms: N_3  and  C_12 
REMARK       I    between atoms: N_3  and  C_13 
REMARK    4  A    between atoms: C_10  and  C_11 
REMARK    5  A    between atoms: C_11  and  C_15 
REMARK    6  A    between atoms: C_13  and  C_14 
ROOT
HETATM    1  N   UNK N   1      29.648  24.208  -3.013  0.00  0.00     0.089 N 
HETATM    2  C   UNK N   1      30.604  22.284  -4.740  0.00  0.00     0.100 C 
HETATM    3  C   UNK N   1      31.449  23.570  -4.647  0.00  0.00     0.033 C 
HETATM    4  C   UNK N   1      30.298  21.780  -3.332  0.00  0.00     0.056 C 
HETATM    5  C   UNK N   1      31.031  24.451  -3.459  0.00  0.00     0.278 C 
HETATM    6  C   UNK N   1      29.452  22.816  -2.568  0.00  0.00     0.274 C 
HETATM    7  C   UNK N   1      31.345  24.372  -5.933  0.00  0.00     0.014 C 
ENDROOT
BRANCH   2   8
HETATM    8  N   UNK N   1      31.058  21.187  -5.626  0.00  0.00    -0.313 N 
HETATM    9  C   UNK N   1      30.244  20.675  -6.632  0.00  0.00     0.224 C 
HETATM   10  O   UNK N   1      29.148  21.159  -6.859  0.00  0.00    -0.273 OA
BRANCH   8  11
HETATM   11  C   UNK N   1      32.396  20.678  -5.378  0.00  0.00     0.037 A 
HETATM   12  C   UNK N   1      32.650  19.630  -4.471  0.00  0.00     0.030 A 
HETATM   13  C   UNK N   1      33.939  19.124  -4.289  0.00  0.00     0.002 A 
HETATM   14  C   UNK N   1      35.007  19.656  -5.012  0.00  0.00     0.000 A 
HETATM   15  C   UNK N   1      34.783  20.693  -5.917  0.00  0.00     0.002 A 
HETATM   16  C   UNK N   1      33.493  21.193  -6.103  0.00  0.00     0.030 A 
ENDBRANCH   8  11
BRANCH   9  17
HETATM   17  C   UNK N   1      30.630  19.478  -7.459  0.00  0.00     0.099 C 
HETATM   18  C   UNK N   1      29.408  18.666  -7.844  0.00  0.00     0.014 C 
ENDBRANCH   9  17
ENDBRANCH   2   8
BRANCH   1  19
HETATM   19  C   UNK N   1      28.659  24.526  -4.049  0.00  0.00     0.277 C 
BRANCH  19  20
HETATM   20  C   UNK N   1      27.223  24.513  -3.518  0.00  0.00     0.068 C 
BRANCH  20  21
HETATM   21  C   UNK N   1      26.410  25.646  -4.049  0.00  0.00    -0.057 A 
HETATM   22  C   UNK N   1      25.694  25.509  -5.245  0.00  0.00     0.007 A 
HETATM   23  C   UNK N   1      24.933  26.575  -5.731  0.00  0.00     0.001 A 
HETATM   24  C   UNK N   1      24.891  27.782  -5.026  0.00  0.00     0.000 A 
HETATM   25  C   UNK N   1      25.611  27.923  -3.835  0.00  0.00     0.001 A 
HETATM   26  C   UNK N   1      26.368  26.855  -3.346  0.00  0.00     0.007 A 
ENDBRANCH  20  21
ENDBRANCH  19  20
ENDBRANCH   1  19
TORSDOF 6
ENDMDL
MODEL 7
REMARK VINA RESULT:      -6.1     21.194     24.143
REMARK  6 active torsions:
REMARK  status: ('A' for Active; 'I' for Inactive)
REMARK    1  A    between atoms: N_2  and  C_10 
REMARK    2  A    between atoms: N_3  and  C_4 
REMARK    3  A    between atoms: N_3  and  C_12 
REMARK       I    between atoms: N_3  and  C_13 
REMARK    4  A    between atoms: C_10  and  C_11 
REMARK    5  A    between atoms: C_11  and  C_15 
REMARK    6  A    between atoms: C_13  and  C_14 
ROOT
HETATM    1  N   UNK N   1      34.675   9.703  13.346  0.00  0.00     0.089 N 
HETATM    2  C   UNK N   1      35.719  11.926  12.095  0.00  0.00     0.100 C 
HETATM    3  C   UNK N   1      36.755  10.957  12.699  0.00  0.00     0.033 C 
HETATM    4  C   UNK N   1      34.718  11.134  11.256  0.00  0.00     0.056 C 
HETATM    5  C   UNK N   1      36.124   9.614  13.100  0.00  0.00     0.278 C 
HETATM    6  C   UNK N   1      33.942  10.147  12.147  0.00  0.00     0.274 C 
HETATM    7  C   UNK N   1      37.430  11.581  13.908  0.00  0.00     0.014 C 
ENDROOT
BRANCH   2   8
HETATM    8  N   UNK N   1      36.193  13.135  11.382  0.00  0.00    -0.313 N 
HETATM    9  C   UNK N   1      35.805  14.413  11.772  0.00  0.00     0.224 C 
HETATM   10  O   UNK N   1      35.107  14.584  12.758  0.00  0.00    -0.273 OA
BRANCH   8  11
HETATM   11  C   UNK N   1      37.081  12.904  10.255  0.00  0.00     0.037 A 
HETATM   12  C   UNK N   1      36.607  12.770   8.936  0.00  0.00     0.030 A 
HETATM   13  C   UNK N   1      37.485  12.601   7.862  0.00  0.00     0.002 A 
HETATM   14  C   UNK N   1      38.862  12.562   8.086  0.00  0.00     0.000 A 
HETATM   15  C   UNK N   1      39.358  12.694   9.383  0.00  0.00     0.002 A 
HETATM   16  C   UNK N   1      38.478  12.870  10.453  0.00  0.00     0.030 A 
ENDBRANCH   8  11
BRANCH   9  17
HETATM   17  C   UNK N   1      36.167  15.646  10.988  0.00  0.00     0.099 C 
HETATM   18  C   UNK N   1      34.955  16.211  10.272  0.00  0.00     0.014 C 
ENDBRANCH   9  17
ENDBRANCH   2   8
BRANCH   1  19
HETATM   19  C   UNK N   1      34.347  10.591  14.467  0.00  0.00     0.277 C 
BRANCH  19  20
HETATM   20  C   UNK N   1      34.811  10.035  15.816  0.00  0.00     0.068 C 
BRANCH  20  21
HETATM   21  C   UNK N   1      34.973  11.103  16.845  0.00  0.00    -0.057 A 
HETATM   22  C   UNK N   1      35.200  10.770  18.187  0.00  0.00     0.007 A 
HETATM   23  C   UNK N   1      35.355  11.779  19.141  0.00  0.00     0.001 A 
HETATM   24  C   UNK N   1      35.277  13.122  18.758  0.00  0.00     0.000 A 
HETATM   25  C   UNK N   1      35.043  13.455  17.421  0.00  0.00     0.001 A 
HETATM   26  C   UNK N   1      34.893  12.447  16.465  0.00  0.00     0.007 A 
ENDBRANCH  20  21
ENDBRANCH  19  20
ENDBRANCH   1  19
TORSDOF 6
ENDMDL
MODEL 8
REMARK VINA RESULT:      -6.0      1.567      4.494
REMARK  6 active torsions:
REMARK  status: ('A' for Active; 'I' for Inactive)
REMARK    1  A    between atoms: N_2  and  C_10 
REMARK    2  A    between atoms: N_3  and  C_4 
REMARK    3  A    between atoms: N_3  and  C_12 
REMARK       I    between atoms: N_3  and  C_13 
REMARK    4  A    between atoms: C_10  and  C_11 
REMARK    5  A    between atoms: C_11  and  C_15 
REMARK    6  A    between atoms: C_13  and  C_14 
ROOT
HETATM    1  N   UNK N   1      31.124  23.786  -4.269  0.00  0.00     0.089 N 
HETATM    2  C   UNK N   1      28.780  24.695  -5.400  0.00  0.00     0.100 C 
HETATM    3  C   UNK N   1      28.889  24.867  -3.871  0.00  0.00     0.033 C 
HETATM    4  C   UNK N   1      30.051  25.224  -6.059  0.00  0.00     0.056 C 
HETATM    5  C   UNK N   1      30.320  24.626  -3.364  0.00  0.00     0.278 C 
HETATM    6  C   UNK N   1      31.270  24.400  -5.601  0.00  0.00     0.274 C 
HETATM    7  C   UNK N   1      27.934  23.927  -3.157  0.00  0.00     0.014 C 
ENDROOT
BRANCH   2   8
HETATM    8  N   UNK N   1      27.564  25.178  -6.094  0.00  0.00    -0.313 N 
HETATM    9  C   UNK N   1      27.168  26.512  -6.033  0.00  0.00     0.224 C 
HETATM   10  O   UNK N   1      27.850  27.342  -5.455  0.00  0.00    -0.273 OA
BRANCH   8  11
HETATM   11  C   UNK N   1      26.811  24.180  -6.833  0.00  0.00     0.037 A 
HETATM   12  C   UNK N   1      25.991  23.228  -6.197  0.00  0.00     0.030 A 
HETATM   13  C   UNK N   1      25.236  22.312  -6.934  0.00  0.00     0.002 A 
HETATM   14  C   UNK N   1      25.287  22.327  -8.328  0.00  0.00     0.000 A 
HETATM   15  C   UNK N   1      26.090  23.259  -8.983  0.00  0.00     0.002 A 
HETATM   16  C   UNK N   1      26.838  24.179  -8.245  0.00  0.00     0.030 A 
ENDBRANCH   8  11
BRANCH   9  17
HETATM   17  C   UNK N   1      25.872  27.002  -6.619  0.00  0.00     0.099 C 
HETATM   18  C   UNK N   1      24.757  26.954  -5.591  0.00  0.00     0.014 C 
ENDBRANCH   9  17
ENDBRANCH   2   8
BRANCH   1  19
HETATM   19  C   UNK N   1      30.574  22.434  -4.419  0.00  0.00     0.277 C 
BRANCH  19  20
HETATM   20  C   UNK N   1      31.386  21.571  -5.388  0.00  0.00     0.068 C 
BRANCH  20  21
HETATM   21  C   UNK N   1      30.524  20.872  -6.386  0.00  0.00    -0.057 A 
HETATM   22  C   UNK N   1      29.290  21.416  -6.766  0.00  0.00     0.007 A 
HETATM   23  C   UNK N   1      28.494  20.756  -7.704  0.00  0.00     0.001 A 
HETATM   24  C   UNK N   1      28.925  19.548  -8.261  0.00  0.00     0.000 A 
HETATM   25  C   UNK N   1      30.153  18.999  -7.877  0.00  0.00     0.001 A 
HETATM   26  C   UNK N   1      30.952  19.662  -6.942  0.00  0.00     0.007 A 
ENDBRANCH  20  21
ENDBRANCH  19  20
ENDBRANCH   1  19
TORSDOF 6
ENDMDL
MODEL 9
REMARK VINA RESULT:      -6.0     14.699     16.719
REMARK  6 active torsions:
REMARK  status: ('A' for Active; 'I' for Inactive)
REMARK    1  A    between atoms: N_2  and  C_10 
REMARK    2  A    between atoms: N_3  and  C_4 
REMARK    3  A    between atoms: N_3  and  C_12 
REMARK       I    between atoms: N_3  and  C_13 
REMARK    4  A    between atoms: C_10  and  C_11 
REMARK    5  A    between atoms: C_11  and  C_15 
REMARK    6  A    between atoms: C_13  and  C_14 
ROOT
HETATM    1  N   UNK N   1      20.964  14.413   7.608  0.00  0.00     0.089 N 
HETATM    2  C   UNK N   1      22.064  16.086   5.713  0.00  0.00     0.100 C 
HETATM    3  C   UNK N   1      21.297  14.869   5.158  0.00  0.00     0.033 C 
HETATM    4  C   UNK N   1      21.204  16.788   6.760  0.00  0.00     0.056 C 
HETATM    5  C   UNK N   1      20.465  14.166   6.243  0.00  0.00     0.278 C 
HETATM    6  C   UNK N   1      20.938  15.846   7.949  0.00  0.00     0.274 C 
HETATM    7  C   UNK N   1      22.255  13.873   4.529  0.00  0.00     0.014 C 
ENDROOT
BRANCH   2   8
HETATM    8  N   UNK N   1      22.666  17.051   4.764  0.00  0.00    -0.313 N 
HETATM    9  C   UNK N   1      24.044  17.226   4.675  0.00  0.00     0.224 C 
HETATM   10  O   UNK N   1      24.807  16.539   5.335  0.00  0.00    -0.273 OA
BRANCH   8  11
HETATM   11  C   UNK N   1      21.735  17.802   3.941  0.00  0.00     0.037 A 
HETATM   12  C   UNK N   1      21.041  17.220   2.862  0.00  0.00     0.030 A 
HETATM   13  C   UNK N   1      20.111  17.951   2.118  0.00  0.00     0.002 A 
HETATM   14  C   UNK N   1      19.855  19.284   2.436  0.00  0.00     0.000 A 
HETATM   15  C   UNK N   1      20.528  19.885   3.500  0.00  0.00     0.002 A 
HETATM   16  C   UNK N   1      21.452  19.151   4.247  0.00  0.00     0.030 A 
ENDBRANCH   8  11
BRANCH   9  17
HETATM   17  C   UNK N   1      24.675  18.288   3.816  0.00  0.00     0.099 C 
HETATM   18  C   UNK N   1      25.503  19.244   4.652  0.00  0.00     0.014 C 
ENDBRANCH   9  17
ENDBRANCH   2   8
BRANCH   1  19
HETATM   19  C   UNK N   1      22.320  13.892   7.814  0.00  0.00     0.277 C 
BRANCH  19  20
HETATM   20  C   UNK N   1      22.330  12.420   8.233  0.00  0.00     0.068 C 
BRANCH  20  21
HETATM   21  C   UNK N   1      22.661  12.243   9.678  0.00  0.00    -0.057 A 
HETATM   22  C   UNK N   1      21.644  12.170  10.637  0.00  0.00     0.007 A 
HETATM   23  C   UNK N   1      21.966  12.000  11.986  0.00  0.00     0.001 A 
HETATM   24  C   UNK N   1      23.305  11.909  12.380  0.00  0.00     0.000 A 
HETATM   25  C   UNK N   1      24.322  11.988  11.423  0.00  0.00     0.001 A 
HETATM   26  C   UNK N   1      24.000  12.154  10.073  0.00  0.00     0.007 A 
ENDBRANCH  20  21
ENDBRANCH  19  20
ENDBRANCH   1  19
TORSDOF 6
ENDMDL
