MODEL 1
REMARK VINA RESULT:      -7.5      0.000      0.000
REMARK  4 active torsions:
REMARK  status: ('A' for Active; 'I' for Inactive)
REMARK    1  A    between atoms: C_14  and  O_2 
REMARK    2  A    between atoms: O_3  and  C_20 
REMARK    3  A    between atoms: O_3  and  C_22 
REMARK    4  A    between atoms: C_22  and  C_23 
ROOT
HETATM    1  O   UNK N   1      28.058  24.808  -4.154  0.00  0.00    -0.338 OA
HETATM    2  N   UNK N   1      31.796  21.129  -4.481  0.00  0.00     0.089 N 
HETATM    3  C   UNK N   1      29.968  23.403  -4.161  0.00  0.00     0.030 C 
HETATM    4  C   UNK N   1      31.316  23.555  -4.882  0.00  0.00     0.057 C 
HETATM    5  C   UNK N   1      31.629  22.153  -5.532  0.00  0.00     0.235 C 
HETATM    6  C   UNK N   1      29.327  24.722  -3.572  0.00  0.00     0.175 C 
HETATM    7  C   UNK N   1      30.064  22.301  -3.091  0.00  0.00     0.048 C 
HETATM    8  C   UNK N   1      28.971  23.086  -5.204  0.00  0.00    -0.003 A 
HETATM    9  C   UNK N   1      30.525  21.640  -6.518  0.00  0.00     0.075 C 
HETATM   10  C   UNK N   1      30.594  20.970  -3.646  0.00  0.00     0.273 C 
HETATM   11  C   UNK N   1      29.151  22.207  -6.264  0.00  0.00    -0.046 A 
HETATM   12  C   UNK N   1      30.198  25.943  -3.957  0.00  0.00     0.171 C 
HETATM   13  C   UNK N   1      31.220  24.725  -5.843  0.00  0.00    -0.020 C 
HETATM   14  C   UNK N   1      27.903  23.895  -5.117  0.00  0.00     0.110 A 
HETATM   15  C   UNK N   1      30.678  25.875  -5.394  0.00  0.00     0.004 C 
HETATM   16  C   UNK N   1      28.111  22.062  -7.195  0.00  0.00     0.011 A 
HETATM   17  C   UNK N   1      32.961  21.388  -3.640  0.00  0.00     0.310 C 
HETATM   18  C   UNK N   1      26.848  23.807  -6.025  0.00  0.00     0.103 A 
HETATM   19  C   UNK N   1      26.941  22.839  -7.057  0.00  0.00     0.040 A 
ENDROOT
BRANCH  18  20
HETATM   20  O   UNK N   1      25.805  24.657  -5.929  0.00  0.00    -0.344 OA
BRANCH  20  21
HETATM   21  C   UNK N   1      25.621  25.717  -6.787  0.00  0.00     0.214 C 
BRANCH  21  22
HETATM   22  C   UNK N   1      26.054  26.965  -6.112  0.00  0.00    -0.034 A 
HETATM   23  C   UNK N   1      27.120  27.714  -6.626  0.00  0.00     0.009 A 
HETATM   24  C   UNK N   1      27.541  28.871  -5.965  0.00  0.00     0.001 A 
HETATM   25  C   UNK N   1      26.899  29.278  -4.791  0.00  0.00     0.000 A 
HETATM   26  C   UNK N   1      25.832  28.531  -4.282  0.00  0.00     0.001 A 
HETATM   27  C   UNK N   1      25.410  27.375  -4.942  0.00  0.00     0.009 A 
ENDBRANCH  21  22
ENDBRANCH  20  21
ENDBRANCH  18  20
BRANCH  12  28
HETATM   28  O   UNK N   1      29.548  27.147  -3.689  0.00  0.00    -0.389 OA
HETATM   29  H   UNK N   1      29.915  27.986  -4.008  0.00  0.00     0.210 HD
ENDBRANCH  12  28
TORSDOF 4
ENDMDL
MODEL 2
REMARK VINA RESULT:      -7.4      2.649      7.036
REMARK  4 active torsions:
REMARK  status: ('A' for Active; 'I' for Inactive)
REMARK    1  A    between atoms: C_14  and  O_2 
REMARK    2  A    between atoms: O_3  and  C_20 
REMARK    3  A    between atoms: O_3  and  C_22 
REMARK    4  A    between atoms: C_22  and  C_23 
ROOT
HETATM    1  O   UNK N   1      27.026  25.078  -4.202  0.00  0.00    -0.338 OA
HETATM    2  N   UNK N   1      27.763  30.264  -3.780  0.00  0.00     0.089 N 
HETATM    3  C   UNK N   1      27.067  27.449  -4.233  0.00  0.00     0.030 C 
HETATM    4  C   UNK N   1      27.240  28.428  -5.403  0.00  0.00     0.057 C 
HETATM    5  C   UNK N   1      28.294  29.501  -4.929  0.00  0.00     0.235 C 
HETATM    6  C   UNK N   1      26.195  26.160  -4.510  0.00  0.00     0.175 C 
HETATM    7  C   UNK N   1      26.574  28.201  -2.985  0.00  0.00     0.048 C 
HETATM    8  C   UNK N   1      28.385  26.817  -4.021  0.00  0.00    -0.003 A 
HETATM    9  C   UNK N   1      29.675  28.901  -4.498  0.00  0.00     0.075 C 
HETATM   10  C   UNK N   1      27.453  29.408  -2.624  0.00  0.00     0.273 C 
HETATM   11  C   UNK N   1      29.613  27.464  -4.044  0.00  0.00    -0.046 A 
HETATM   12  C   UNK N   1      25.771  26.128  -6.000  0.00  0.00     0.171 C 
HETATM   13  C   UNK N   1      27.612  27.638  -6.645  0.00  0.00    -0.020 C 
HETATM   14  C   UNK N   1      28.281  25.478  -3.978  0.00  0.00     0.110 A 
HETATM   15  C   UNK N   1      26.902  26.527  -6.927  0.00  0.00     0.004 C 
HETATM   16  C   UNK N   1      30.776  26.696  -3.871  0.00  0.00     0.011 A 
HETATM   17  C   UNK N   1      26.595  31.062  -4.143  0.00  0.00     0.310 C 
HETATM   18  C   UNK N   1      29.404  24.666  -3.825  0.00  0.00     0.103 A 
HETATM   19  C   UNK N   1      30.670  25.297  -3.727  0.00  0.00     0.040 A 
ENDROOT
BRANCH  18  20
HETATM   20  O   UNK N   1      29.268  23.324  -3.819  0.00  0.00    -0.344 OA
BRANCH  20  21
HETATM   21  C   UNK N   1      29.774  22.524  -2.821  0.00  0.00     0.214 C 
BRANCH  21  22
HETATM   22  C   UNK N   1      30.859  21.682  -3.381  0.00  0.00    -0.034 A 
HETATM   23  C   UNK N   1      32.135  21.697  -2.804  0.00  0.00     0.009 A 
HETATM   24  C   UNK N   1      33.159  20.924  -3.358  0.00  0.00     0.001 A 
HETATM   25  C   UNK N   1      32.909  20.139  -4.488  0.00  0.00     0.000 A 
HETATM   26  C   UNK N   1      31.633  20.122  -5.061  0.00  0.00     0.001 A 
HETATM   27  C   UNK N   1      30.608  20.894  -4.507  0.00  0.00     0.009 A 
ENDBRANCH  21  22
ENDBRANCH  20  21
ENDBRANCH  18  20
BRANCH  12  28
HETATM   28  O   UNK N   1      25.226  24.894  -6.355  0.00  0.00    -0.389 OA
HETATM   29  H   UNK N   1      25.486  24.087  -5.882  0.00  0.00     0.210 HD
ENDBRANCH  12  28
TORSDOF 4
ENDMDL
MODEL 3
REMARK VINA RESULT:      -7.4     18.794     22.453
REMARK  4 active torsions:
REMARK  status: ('A' for Active; 'I' for Inactive)
REMARK    1  A    between atoms: C_14  and  O_2 
REMARK    2  A    between atoms: O_3  and  C_20 
REMARK    3  A    between atoms: O_3  and  C_22 
REMARK    4  A    between atoms: C_22  and  C_23 
ROOT
HETATM    1  O   UNK N   1      36.062  14.843  12.144  0.00  0.00    -0.338 OA
HETATM    2  N   UNK N   1      37.546  12.227   7.835  0.00  0.00     0.089 N 
HETATM    3  C   UNK N   1      36.675  13.979  10.023  0.00  0.00     0.030 C 
HETATM    4  C   UNK N   1      35.868  13.862   8.722  0.00  0.00     0.057 C 
HETATM    5  C   UNK N   1      36.119  12.405   8.175  0.00  0.00     0.235 C 
HETATM    6  C   UNK N   1      36.455  15.289  10.879  0.00  0.00     0.175 C 
HETATM    7  C   UNK N   1      38.169  13.739   9.740  0.00  0.00     0.048 C 
HETATM    8  C   UNK N   1      36.114  12.977  10.952  0.00  0.00    -0.003 A 
HETATM    9  C   UNK N   1      35.728  11.265   9.176  0.00  0.00     0.075 C 
HETATM   10  C   UNK N   1      38.435  12.424   8.992  0.00  0.00     0.273 C 
HETATM   11  C   UNK N   1      35.745  11.679  10.627  0.00  0.00    -0.046 A 
HETATM   12  C   UNK N   1      35.350  16.158  10.228  0.00  0.00     0.171 C 
HETATM   13  C   UNK N   1      34.422  14.220   9.016  0.00  0.00    -0.020 C 
HETATM   14  C   UNK N   1      35.825  13.528  12.143  0.00  0.00     0.110 A 
HETATM   15  C   UNK N   1      34.177  15.328   9.746  0.00  0.00     0.004 C 
HETATM   16  C   UNK N   1      35.179  10.875  11.629  0.00  0.00     0.011 A 
HETATM   17  C   UNK N   1      37.959  13.087   6.730  0.00  0.00     0.310 C 
HETATM   18  C   UNK N   1      35.246  12.780  13.168  0.00  0.00     0.103 A 
HETATM   19  C   UNK N   1      34.960  11.415  12.913  0.00  0.00     0.040 A 
ENDROOT
BRANCH  18  20
HETATM   20  O   UNK N   1      34.938  13.372  14.341  0.00  0.00    -0.344 OA
BRANCH  20  21
HETATM   21  C   UNK N   1      35.888  13.770  15.252  0.00  0.00     0.214 C 
BRANCH  21  22
HETATM   22  C   UNK N   1      35.665  13.047  16.528  0.00  0.00    -0.034 A 
HETATM   23  C   UNK N   1      35.313  13.750  17.688  0.00  0.00     0.009 A 
HETATM   24  C   UNK N   1      35.136  13.063  18.892  0.00  0.00     0.001 A 
HETATM   25  C   UNK N   1      35.313  11.677  18.938  0.00  0.00     0.000 A 
HETATM   26  C   UNK N   1      35.660  10.976  17.778  0.00  0.00     0.001 A 
HETATM   27  C   UNK N   1      35.836  11.661  16.574  0.00  0.00     0.009 A 
ENDBRANCH  21  22
ENDBRANCH  20  21
ENDBRANCH  18  20
BRANCH  12  28
HETATM   28  O   UNK N   1      34.938  17.188  11.075  0.00  0.00    -0.389 OA
HETATM   29  H   UNK N   1      34.119  17.103  11.588  0.00  0.00     0.210 HD
ENDBRANCH  12  28
TORSDOF 4
ENDMDL
MODEL 4
REMARK VINA RESULT:      -7.3     10.754     13.451
REMARK  4 active torsions:
REMARK  status: ('A' for Active; 'I' for Inactive)
REMARK    1  A    between atoms: C_14  and  O_2 
REMARK    2  A    between atoms: O_3  and  C_20 
REMARK    3  A    between atoms: O_3  and  C_22 
REMARK    4  A    between atoms: C_22  and  C_23 
ROOT
HETATM    1  O   UNK N   1      29.667  17.584   4.752  0.00  0.00    -0.338 OA
HETATM    2  N   UNK N   1      34.218  15.968   6.824  0.00  0.00     0.089 N 
HETATM    3  C   UNK N   1      31.752  16.648   5.386  0.00  0.00     0.030 C 
HETATM    4  C   UNK N   1      32.154  15.187   5.637  0.00  0.00     0.057 C 
HETATM    5  C   UNK N   1      32.977  15.181   6.982  0.00  0.00     0.235 C 
HETATM    6  C   UNK N   1      30.756  16.913   4.187  0.00  0.00     0.175 C 
HETATM    7  C   UNK N   1      33.008  17.530   5.275  0.00  0.00     0.048 C 
HETATM    8  C   UNK N   1      30.889  17.043   6.518  0.00  0.00    -0.003 A 
HETATM    9  C   UNK N   1      32.203  15.764   8.213  0.00  0.00     0.075 C 
HETATM   10  C   UNK N   1      33.959  17.373   6.471  0.00  0.00     0.273 C 
HETATM   11  C   UNK N   1      31.105  16.735   7.854  0.00  0.00    -0.046 A 
HETATM   12  C   UNK N   1      30.315  15.564   3.567  0.00  0.00     0.171 C 
HETATM   13  C   UNK N   1      30.901  14.331   5.622  0.00  0.00    -0.020 C 
HETATM   14  C   UNK N   1      29.744  17.598   6.086  0.00  0.00     0.110 A 
HETATM   15  C   UNK N   1      30.015  14.518   4.623  0.00  0.00     0.004 C 
HETATM   16  C   UNK N   1      30.153  17.150   8.798  0.00  0.00     0.011 A 
HETATM   17  C   UNK N   1      35.131  15.366   5.857  0.00  0.00     0.310 C 
HETATM   18  C   UNK N   1      28.756  18.012   6.978  0.00  0.00     0.103 A 
HETATM   19  C   UNK N   1      28.990  17.821   8.364  0.00  0.00     0.040 A 
ENDROOT
BRANCH  18  20
HETATM   20  O   UNK N   1      27.604  18.536   6.510  0.00  0.00    -0.344 OA
BRANCH  20  21
HETATM   21  C   UNK N   1      27.469  19.859   6.160  0.00  0.00     0.214 C 
BRANCH  21  22
HETATM   22  C   UNK N   1      26.529  19.963   5.017  0.00  0.00    -0.034 A 
HETATM   23  C   UNK N   1      25.275  19.341   5.074  0.00  0.00     0.009 A 
HETATM   24  C   UNK N   1      24.409  19.418   3.980  0.00  0.00     0.001 A 
HETATM   25  C   UNK N   1      24.796  20.114   2.831  0.00  0.00     0.000 A 
HETATM   26  C   UNK N   1      26.047  20.738   2.777  0.00  0.00     0.001 A 
HETATM   27  C   UNK N   1      26.913  20.662   3.870  0.00  0.00     0.009 A 
ENDBRANCH  21  22
ENDBRANCH  20  21
ENDBRANCH  18  20
BRANCH  12  28
HETATM   28  O   UNK N   1      29.246  15.725   2.685  0.00  0.00    -0.389 OA
HETATM   29  H   UNK N   1      28.817  14.952   2.287  0.00  0.00     0.210 HD
ENDBRANCH  12  28
TORSDOF 4
ENDMDL
MODEL 5
REMARK VINA RESULT:      -7.2     11.434     14.075
REMARK  4 active torsions:
REMARK  status: ('A' for Active; 'I' for Inactive)
REMARK    1  A    between atoms: C_14  and  O_2 
REMARK    2  A    between atoms: O_3  and  C_20 
REMARK    3  A    between atoms: O_3  and  C_22 
REMARK    4  A    between atoms: C_22  and  C_23 
ROOT
HETATM    1  O   UNK N   1      30.859  16.931   6.770  0.00  0.00    -0.338 OA
HETATM    2  N   UNK N   1      34.952  13.649   7.075  0.00  0.00     0.089 N 
HETATM    3  C   UNK N   1      32.741  15.571   7.252  0.00  0.00     0.030 C 
HETATM    4  C   UNK N   1      34.170  15.956   7.663  0.00  0.00     0.057 C 
HETATM    5  C   UNK N   1      35.135  15.084   6.773  0.00  0.00     0.235 C 
HETATM    6  C   UNK N   1      31.569  16.436   7.867  0.00  0.00     0.175 C 
HETATM    7  C   UNK N   1      32.511  14.068   7.487  0.00  0.00     0.048 C 
HETATM    8  C   UNK N   1      32.603  15.943   5.829  0.00  0.00    -0.003 A 
HETATM    9  C   UNK N   1      34.932  15.270   5.231  0.00  0.00     0.075 C 
HETATM   10  C   UNK N   1      33.578  13.186   6.821  0.00  0.00     0.273 C 
HETATM   11  C   UNK N   1      33.554  15.741   4.838  0.00  0.00    -0.046 A 
HETATM   12  C   UNK N   1      32.161  17.591   8.712  0.00  0.00     0.171 C 
HETATM   13  C   UNK N   1      34.323  17.460   7.531  0.00  0.00    -0.020 C 
HETATM   14  C   UNK N   1      31.498  16.680   5.624  0.00  0.00     0.110 A 
HETATM   15  C   UNK N   1      33.350  18.245   8.037  0.00  0.00     0.004 C 
HETATM   16  C   UNK N   1      33.275  16.204   3.542  0.00  0.00     0.011 A 
HETATM   17  C   UNK N   1      35.349  13.320   8.441  0.00  0.00     0.310 C 
HETATM   18  C   UNK N   1      31.182  17.179   4.361  0.00  0.00     0.103 A 
HETATM   19  C   UNK N   1      32.071  16.895   3.294  0.00  0.00     0.040 A 
ENDROOT
BRANCH  18  20
HETATM   20  O   UNK N   1      30.082  17.944   4.196  0.00  0.00    -0.344 OA
BRANCH  20  21
HETATM   21  C   UNK N   1      28.827  17.546   4.592  0.00  0.00     0.214 C 
BRANCH  21  22
HETATM   22  C   UNK N   1      28.062  18.736   5.039  0.00  0.00    -0.034 A 
HETATM   23  C   UNK N   1      27.392  19.538   4.107  0.00  0.00     0.009 A 
HETATM   24  C   UNK N   1      26.701  20.674   4.534  0.00  0.00     0.001 A 
HETATM   25  C   UNK N   1      26.681  21.010   5.892  0.00  0.00     0.000 A 
HETATM   26  C   UNK N   1      27.347  20.206   6.823  0.00  0.00     0.001 A 
HETATM   27  C   UNK N   1      28.037  19.069   6.396  0.00  0.00     0.009 A 
ENDBRANCH  21  22
ENDBRANCH  20  21
ENDBRANCH  18  20
BRANCH  12  28
HETATM   28  O   UNK N   1      31.188  18.528   9.061  0.00  0.00    -0.389 OA
HETATM   29  H   UNK N   1      31.173  19.401   8.639  0.00  0.00     0.210 HD
ENDBRANCH  12  28
TORSDOF 4
ENDMDL
MODEL 6
REMARK VINA RESULT:      -7.2      2.450      6.681
REMARK  4 active torsions:
REMARK  status: ('A' for Active; 'I' for Inactive)
REMARK    1  A    between atoms: C_14  and  O_2 
REMARK    2  A    between atoms: O_3  and  C_20 
REMARK    3  A    between atoms: O_3  and  C_22 
REMARK    4  A    between atoms: C_22  and  C_23 
ROOT
HETATM    1  O   UNK N   1      26.999  25.053  -4.289  0.00  0.00    -0.338 OA
HETATM    2  N   UNK N   1      27.742  30.223  -3.712  0.00  0.00     0.089 N 
HETATM    3  C   UNK N   1      27.042  27.423  -4.248  0.00  0.00     0.030 C 
HETATM    4  C   UNK N   1      27.209  28.438  -5.388  0.00  0.00     0.057 C 
HETATM    5  C   UNK N   1      28.266  29.496  -4.887  0.00  0.00     0.235 C 
HETATM    6  C   UNK N   1      26.168  26.144  -4.559  0.00  0.00     0.175 C 
HETATM    7  C   UNK N   1      26.556  28.137  -2.974  0.00  0.00     0.048 C 
HETATM    8  C   UNK N   1      28.361  26.784  -4.062  0.00  0.00    -0.003 A 
HETATM    9  C   UNK N   1      29.649  28.882  -4.482  0.00  0.00     0.075 C 
HETATM   10  C   UNK N   1      27.438  29.331  -2.581  0.00  0.00     0.273 C 
HETATM   11  C   UNK N   1      29.589  27.431  -4.072  0.00  0.00    -0.046 A 
HETATM   12  C   UNK N   1      25.735  26.157  -6.047  0.00  0.00     0.171 C 
HETATM   13  C   UNK N   1      27.573  27.686  -6.655  0.00  0.00    -0.020 C 
HETATM   14  C   UNK N   1      28.256  25.445  -4.060  0.00  0.00     0.110 A 
HETATM   15  C   UNK N   1      26.861  26.584  -6.968  0.00  0.00     0.004 C 
HETATM   16  C   UNK N   1      30.752  26.658  -3.930  0.00  0.00     0.011 A 
HETATM   17  C   UNK N   1      26.573  31.032  -4.043  0.00  0.00     0.310 C 
HETATM   18  C   UNK N   1      29.379  24.628  -3.939  0.00  0.00     0.103 A 
HETATM   19  C   UNK N   1      30.646  25.255  -3.828  0.00  0.00     0.040 A 
ENDROOT
BRANCH  18  20
HETATM   20  O   UNK N   1      29.242  23.286  -3.973  0.00  0.00    -0.344 OA
BRANCH  20  21
HETATM   21  C   UNK N   1      30.254  22.439  -4.361  0.00  0.00     0.214 C 
BRANCH  21  22
HETATM   22  C   UNK N   1      29.833  21.712  -5.583  0.00  0.00    -0.034 A 
HETATM   23  C   UNK N   1      28.780  22.199  -6.369  0.00  0.00     0.009 A 
HETATM   24  C   UNK N   1      28.370  21.490  -7.501  0.00  0.00     0.001 A 
HETATM   25  C   UNK N   1      29.009  20.295  -7.846  0.00  0.00     0.000 A 
HETATM   26  C   UNK N   1      30.063  19.812  -7.063  0.00  0.00     0.001 A 
HETATM   27  C   UNK N   1      30.474  20.521  -5.932  0.00  0.00     0.009 A 
ENDBRANCH  21  22
ENDBRANCH  20  21
ENDBRANCH  18  20
BRANCH  12  28
HETATM   28  O   UNK N   1      25.188  24.935  -6.436  0.00  0.00    -0.389 OA
HETATM   29  H   UNK N   1      24.278  24.888  -6.771  0.00  0.00     0.210 HD
ENDBRANCH  12  28
TORSDOF 4
ENDMDL
MODEL 7
REMARK VINA RESULT:      -7.1      2.395      6.393
REMARK  4 active torsions:
REMARK  status: ('A' for Active; 'I' for Inactive)
REMARK    1  A    between atoms: C_14  and  O_2 
REMARK    2  A    between atoms: O_3  and  C_20 
REMARK    3  A    between atoms: O_3  and  C_22 
REMARK    4  A    between atoms: C_22  and  C_23 
ROOT
HETATM    1  O   UNK N   1      30.197  24.020  -5.629  0.00  0.00    -0.338 OA
HETATM    2  N   UNK N   1      25.413  26.051  -6.405  0.00  0.00     0.089 N 
HETATM    3  C   UNK N   1      28.092  25.112  -5.661  0.00  0.00     0.030 C 
HETATM    4  C   UNK N   1      26.918  25.043  -4.674  0.00  0.00     0.057 C 
HETATM    5  C   UNK N   1      25.617  24.866  -5.547  0.00  0.00     0.235 C 
HETATM    6  C   UNK N   1      29.545  25.106  -5.037  0.00  0.00     0.175 C 
HETATM    7  C   UNK N   1      27.902  26.296  -6.625  0.00  0.00     0.048 C 
HETATM    8  C   UNK N   1      28.120  23.814  -6.367  0.00  0.00    -0.003 A 
HETATM    9  C   UNK N   1      25.634  23.608  -6.479  0.00  0.00     0.075 C 
HETATM   10  C   UNK N   1      26.536  26.285  -7.327  0.00  0.00     0.273 C 
HETATM   11  C   UNK N   1      27.015  23.123  -6.845  0.00  0.00    -0.046 A 
HETATM   12  C   UNK N   1      29.452  24.927  -3.501  0.00  0.00     0.171 C 
HETATM   13  C   UNK N   1      27.196  23.941  -3.667  0.00  0.00    -0.020 C 
HETATM   14  C   UNK N   1      29.349  23.272  -6.340  0.00  0.00     0.110 A 
HETATM   15  C   UNK N   1      28.421  23.888  -3.106  0.00  0.00     0.004 C 
HETATM   16  C   UNK N   1      27.220  21.873  -7.450  0.00  0.00     0.011 A 
HETATM   17  C   UNK N   1      25.145  27.256  -5.624  0.00  0.00     0.310 C 
HETATM   18  C   UNK N   1      29.606  22.026  -6.911  0.00  0.00     0.103 A 
HETATM   19  C   UNK N   1      28.523  21.337  -7.515  0.00  0.00     0.040 A 
ENDROOT
BRANCH  18  20
HETATM   20  O   UNK N   1      30.844  21.495  -6.837  0.00  0.00    -0.344 OA
BRANCH  20  21
HETATM   21  C   UNK N   1      31.104  20.277  -6.254  0.00  0.00     0.214 C 
BRANCH  21  22
HETATM   22  C   UNK N   1      31.930  20.490  -5.040  0.00  0.00    -0.034 A 
HETATM   23  C   UNK N   1      31.436  21.251  -3.973  0.00  0.00     0.009 A 
HETATM   24  C   UNK N   1      32.235  21.473  -2.847  0.00  0.00     0.001 A 
HETATM   25  C   UNK N   1      33.525  20.936  -2.789  0.00  0.00     0.000 A 
HETATM   26  C   UNK N   1      34.015  20.173  -3.854  0.00  0.00     0.001 A 
HETATM   27  C   UNK N   1      33.217  19.950  -4.980  0.00  0.00     0.009 A 
ENDBRANCH  21  22
ENDBRANCH  20  21
ENDBRANCH  18  20
BRANCH  12  28
HETATM   28  O   UNK N   1      30.698  24.656  -2.937  0.00  0.00    -0.389 OA
HETATM   29  H   UNK N   1      31.334  24.086  -3.398  0.00  0.00     0.210 HD
ENDBRANCH  12  28
TORSDOF 4
ENDMDL
MODEL 8
REMARK VINA RESULT:      -7.0     15.039     17.534
REMARK  4 active torsions:
REMARK  status: ('A' for Active; 'I' for Inactive)
REMARK    1  A    between atoms: C_14  and  O_2 
REMARK    2  A    between atoms: O_3  and  C_20 
REMARK    3  A    between atoms: O_3  and  C_22 
REMARK    4  A    between atoms: C_22  and  C_23 
ROOT
HETATM    1  O   UNK N   1      21.798  15.463   7.365  0.00  0.00    -0.338 OA
HETATM    2  N   UNK N   1      21.722  18.661   3.196  0.00  0.00     0.089 N 
HETATM    3  C   UNK N   1      21.454  17.041   5.628  0.00  0.00     0.030 C 
HETATM    4  C   UNK N   1      20.289  17.200   4.641  0.00  0.00     0.057 C 
HETATM    5  C   UNK N   1      20.939  17.408   3.220  0.00  0.00     0.235 C 
HETATM    6  C   UNK N   1      21.079  16.635   7.109  0.00  0.00     0.175 C 
HETATM    7  C   UNK N   1      22.344  18.296   5.600  0.00  0.00     0.048 C 
HETATM    8  C   UNK N   1      22.187  15.826   5.215  0.00  0.00    -0.003 A 
HETATM    9  C   UNK N   1      21.892  16.249   2.772  0.00  0.00     0.075 C 
HETATM   10  C   UNK N   1      22.811  18.670   4.186  0.00  0.00     0.273 C 
HETATM   11  C   UNK N   1      22.493  15.463   3.911  0.00  0.00    -0.046 A 
HETATM   12  C   UNK N   1      19.554  16.384   7.211  0.00  0.00     0.171 C 
HETATM   13  C   UNK N   1      19.369  16.000   4.781  0.00  0.00    -0.020 C 
HETATM   14  C   UNK N   1      22.377  14.997   6.254  0.00  0.00     0.110 A 
HETATM   15  C   UNK N   1      19.019  15.609   6.023  0.00  0.00     0.004 C 
HETATM   16  C   UNK N   1      23.154  14.243   3.696  0.00  0.00     0.011 A 
HETATM   17  C   UNK N   1      20.878  19.840   3.366  0.00  0.00     0.310 C 
HETATM   18  C   UNK N   1      23.012  13.766   6.095  0.00  0.00     0.103 A 
HETATM   19  C   UNK N   1      23.446  13.407   4.793  0.00  0.00     0.040 A 
ENDROOT
BRANCH  18  20
HETATM   20  O   UNK N   1      23.158  12.942   7.153  0.00  0.00    -0.344 OA
BRANCH  20  21
HETATM   21  C   UNK N   1      24.204  13.040   8.041  0.00  0.00     0.214 C 
BRANCH  21  22
HETATM   22  C   UNK N   1      23.720  12.686   9.398  0.00  0.00    -0.034 A 
HETATM   23  C   UNK N   1      24.628  12.324  10.401  0.00  0.00     0.009 A 
HETATM   24  C   UNK N   1      24.160  11.962  11.667  0.00  0.00     0.001 A 
HETATM   25  C   UNK N   1      22.786  11.961  11.930  0.00  0.00     0.000 A 
HETATM   26  C   UNK N   1      21.881  12.327  10.928  0.00  0.00     0.001 A 
HETATM   27  C   UNK N   1      22.348  12.689   9.662  0.00  0.00     0.009 A 
ENDBRANCH  21  22
ENDBRANCH  20  21
ENDBRANCH  18  20
BRANCH  12  28
HETATM   28  O   UNK N   1      19.210  15.777   8.418  0.00  0.00    -0.389 OA
HETATM   29  H   UNK N   1      19.892  15.378   8.980  0.00  0.00     0.210 HD
ENDBRANCH  12  28
TORSDOF 4
ENDMDL
MODEL 9
REMARK VINA RESULT:      -7.0     16.293     20.106
REMARK  4 active torsions:
REMARK  status: ('A' for Active; 'I' for Inactive)
REMARK    1  A    between atoms: C_14  and  O_2 
REMARK    2  A    between atoms: O_3  and  C_20 
REMARK    3  A    between atoms: O_3  and  C_22 
REMARK    4  A    between atoms: C_22  and  C_23 
ROOT
HETATM    1  O   UNK N   1      33.921  13.158   9.431  0.00  0.00    -0.338 OA
HETATM    2  N   UNK N   1      32.618  17.515   6.798  0.00  0.00     0.089 N 
HETATM    3  C   UNK N   1      33.341  14.912   7.944  0.00  0.00     0.030 C 
HETATM    4  C   UNK N   1      34.107  15.501   6.750  0.00  0.00     0.057 C 
HETATM    5  C   UNK N   1      34.022  17.068   6.900  0.00  0.00     0.235 C 
HETATM    6  C   UNK N   1      33.425  13.346   8.137  0.00  0.00     0.175 C 
HETATM    7  C   UNK N   1      31.881  15.396   7.925  0.00  0.00     0.048 C 
HETATM    8  C   UNK N   1      34.061  15.351   9.157  0.00  0.00    -0.003 A 
HETATM    9  C   UNK N   1      34.593  17.616   8.252  0.00  0.00     0.075 C 
HETATM   10  C   UNK N   1      31.756  16.924   7.835  0.00  0.00     0.273 C 
HETATM   11  C   UNK N   1      34.580  16.619   9.383  0.00  0.00    -0.046 A 
HETATM   12  C   UNK N   1      34.385  12.741   7.082  0.00  0.00     0.171 C 
HETATM   13  C   UNK N   1      35.505  14.911   6.733  0.00  0.00    -0.020 C 
HETATM   14  C   UNK N   1      34.323  14.313   9.969  0.00  0.00     0.110 A 
HETATM   15  C   UNK N   1      35.635  13.578   6.896  0.00  0.00     0.004 C 
HETATM   16  C   UNK N   1      35.281  16.849  10.577  0.00  0.00     0.011 A 
HETATM   17  C   UNK N   1      32.056  17.265   5.474  0.00  0.00     0.310 C 
HETATM   18  C   UNK N   1      35.031  14.482  11.158  0.00  0.00     0.103 A 
HETATM   19  C   UNK N   1      35.479  15.787  11.484  0.00  0.00     0.040 A 
ENDROOT
BRANCH  18  20
HETATM   20  O   UNK N   1      35.307  13.413  11.934  0.00  0.00    -0.344 OA
BRANCH  20  21
HETATM   21  C   UNK N   1      36.439  13.323  12.711  0.00  0.00     0.214 C 
BRANCH  21  22
HETATM   22  C   UNK N   1      36.043  13.298  14.140  0.00  0.00    -0.034 A 
HETATM   23  C   UNK N   1      34.967  12.506  14.563  0.00  0.00     0.009 A 
HETATM   24  C   UNK N   1      34.582  12.514  15.906  0.00  0.00     0.001 A 
HETATM   25  C   UNK N   1      35.269  13.313  16.825  0.00  0.00     0.000 A 
HETATM   26  C   UNK N   1      36.345  14.100  16.402  0.00  0.00     0.001 A 
HETATM   27  C   UNK N   1      36.731  14.092  15.059  0.00  0.00     0.009 A 
ENDBRANCH  21  22
ENDBRANCH  20  21
ENDBRANCH  18  20
BRANCH  12  28
HETATM   28  O   UNK N   1      34.695  11.411   7.368  0.00  0.00    -0.389 OA
HETATM   29  H   UNK N   1      35.212  10.881   6.742  0.00  0.00     0.210 HD
ENDBRANCH  12  28
TORSDOF 4
ENDMDL
