MODEL 1
REMARK VINA RESULT:      -4.8      0.000      0.000
REMARK  3 active torsions:
REMARK  status: ('A' for Active; 'I' for Inactive)
REMARK    1  A    between atoms: C_2  and  N_1 
REMARK    2  A    between atoms: C_2  and  C_3 
REMARK    3  A    between atoms: C_3  and  C_4 
ROOT
HETATM    1  C   UNK N   1      35.429  12.638  17.090  0.00  0.00    -0.056 A 
HETATM    2  C   UNK N   1      35.688  11.264  17.209  0.00  0.00     0.007 A 
HETATM    3  C   UNK N   1      35.183  13.395  18.241  0.00  0.00     0.007 A 
HETATM    4  C   UNK N   1      35.687  10.654  18.465  0.00  0.00     0.001 A 
HETATM    5  C   UNK N   1      35.189  12.787  19.500  0.00  0.00     0.001 A 
HETATM    6  C   UNK N   1      35.440  11.415  19.613  0.00  0.00     0.000 A 
ENDROOT
BRANCH   1   7
HETATM    7  C   UNK N   1      35.454  13.314  15.755  0.00  0.00     0.062 C 
BRANCH   7   8
HETATM    8  C   UNK N   1      36.863  13.653  15.284  0.00  0.00     0.074 C 
HETATM    9  C   UNK N   1      37.206  15.083  15.659  0.00  0.00     0.032 C 
BRANCH   8  10
HETATM   10  N   UNK N   1      36.931  13.521  13.841  0.00  0.00    -0.426 N 
HETATM   11  H   UNK N   1      37.836  13.505  13.372  0.00  0.00     0.150 HD
HETATM   12  H   UNK N   1      36.072  13.446  13.294  0.00  0.00     0.150 HD
ENDBRANCH   8  10
ENDBRANCH   7   8
ENDBRANCH   1   7
TORSDOF 3
ENDMDL
MODEL 2
REMARK VINA RESULT:      -4.6      0.982      1.886
REMARK  3 active torsions:
REMARK  status: ('A' for Active; 'I' for Inactive)
REMARK    1  A    between atoms: C_2  and  N_1 
REMARK    2  A    between atoms: C_2  and  C_3 
REMARK    3  A    between atoms: C_3  and  C_4 
ROOT
HETATM    1  C   UNK N   1      35.217  12.475  16.763  0.00  0.00    -0.056 A 
HETATM    2  C   UNK N   1      35.094  13.541  17.668  0.00  0.00     0.007 A 
HETATM    3  C   UNK N   1      35.412  11.177  17.251  0.00  0.00     0.007 A 
HETATM    4  C   UNK N   1      35.180  13.311  19.043  0.00  0.00     0.001 A 
HETATM    5  C   UNK N   1      35.489  10.945  18.627  0.00  0.00     0.001 A 
HETATM    6  C   UNK N   1      35.375  12.012  19.524  0.00  0.00     0.000 A 
ENDROOT
BRANCH   1   7
HETATM    7  C   UNK N   1      35.100  12.698  15.288  0.00  0.00     0.062 C 
BRANCH   7   8
HETATM    8  C   UNK N   1      36.146  13.663  14.745  0.00  0.00     0.074 C 
HETATM    9  C   UNK N   1      35.807  14.046  13.316  0.00  0.00     0.032 C 
BRANCH   8  10
HETATM   10  N   UNK N   1      37.446  13.020  14.760  0.00  0.00    -0.426 N 
HETATM   11  H   UNK N   1      37.522  12.020  14.576  0.00  0.00     0.150 HD
HETATM   12  H   UNK N   1      38.284  13.568  14.955  0.00  0.00     0.150 HD
ENDBRANCH   8  10
ENDBRANCH   7   8
ENDBRANCH   1   7
TORSDOF 3
ENDMDL
MODEL 3
REMARK VINA RESULT:      -4.6      1.684      2.788
REMARK  3 active torsions:
REMARK  status: ('A' for Active; 'I' for Inactive)
REMARK    1  A    between atoms: C_2  and  N_1 
REMARK    2  A    between atoms: C_2  and  C_3 
REMARK    3  A    between atoms: C_3  and  C_4 
ROOT
HETATM    1  C   UNK N   1      35.571  12.058  16.704  0.00  0.00    -0.056 A 
HETATM    2  C   UNK N   1      35.280  13.340  17.193  0.00  0.00     0.007 A 
HETATM    3  C   UNK N   1      35.718  10.994  17.603  0.00  0.00     0.007 A 
HETATM    4  C   UNK N   1      35.152  13.557  18.567  0.00  0.00     0.001 A 
HETATM    5  C   UNK N   1      35.582  11.209  18.977  0.00  0.00     0.001 A 
HETATM    6  C   UNK N   1      35.300  12.491  19.461  0.00  0.00     0.000 A 
ENDROOT
BRANCH   1   7
HETATM    7  C   UNK N   1      35.684  11.801  15.234  0.00  0.00     0.062 C 
BRANCH   7   8
HETATM    8  C   UNK N   1      34.364  11.976  14.494  0.00  0.00     0.074 C 
HETATM    9  C   UNK N   1      33.551  10.697  14.573  0.00  0.00     0.032 C 
BRANCH   8  10
HETATM   10  N   UNK N   1      34.631  12.273  13.100  0.00  0.00    -0.426 N 
HETATM   11  H   UNK N   1      35.587  12.445  12.789  0.00  0.00     0.150 HD
HETATM   12  H   UNK N   1      33.863  12.309  12.429  0.00  0.00     0.150 HD
ENDBRANCH   8  10
ENDBRANCH   7   8
ENDBRANCH   1   7
TORSDOF 3
ENDMDL
MODEL 4
REMARK VINA RESULT:      -4.4     13.503     15.332
REMARK  3 active torsions:
REMARK  status: ('A' for Active; 'I' for Inactive)
REMARK    1  A    between atoms: C_2  and  N_1 
REMARK    2  A    between atoms: C_2  and  C_3 
REMARK    3  A    between atoms: C_3  and  C_4 
ROOT
HETATM    1  C   UNK N   1      28.022  19.062   6.175  0.00  0.00    -0.056 A 
HETATM    2  C   UNK N   1      27.443  20.286   6.543  0.00  0.00     0.007 A 
HETATM    3  C   UNK N   1      27.934  18.629   4.847  0.00  0.00     0.007 A 
HETATM    4  C   UNK N   1      26.770  21.059   5.595  0.00  0.00     0.001 A 
HETATM    5  C   UNK N   1      27.268  19.407   3.895  0.00  0.00     0.001 A 
HETATM    6  C   UNK N   1      26.683  20.621   4.269  0.00  0.00     0.000 A 
ENDROOT
BRANCH   1   7
HETATM    7  C   UNK N   1      28.771  18.233   7.171  0.00  0.00     0.062 C 
BRANCH   7   8
HETATM    8  C   UNK N   1      28.645  18.755   8.597  0.00  0.00     0.074 C 
HETATM    9  C   UNK N   1      29.967  18.596   9.327  0.00  0.00     0.032 C 
BRANCH   8  10
HETATM   10  N   UNK N   1      27.631  17.993   9.299  0.00  0.00    -0.426 N 
HETATM   11  H   UNK N   1      27.713  17.839  10.304  0.00  0.00     0.150 HD
HETATM   12  H   UNK N   1      26.836  17.609   8.788  0.00  0.00     0.150 HD
ENDBRANCH   8  10
ENDBRANCH   7   8
ENDBRANCH   1   7
TORSDOF 3
ENDMDL
MODEL 5
REMARK VINA RESULT:      -4.3     24.678     26.572
REMARK  3 active torsions:
REMARK  status: ('A' for Active; 'I' for Inactive)
REMARK    1  A    between atoms: C_2  and  N_1 
REMARK    2  A    between atoms: C_2  and  C_3 
REMARK    3  A    between atoms: C_3  and  C_4 
ROOT
HETATM    1  C   UNK N   1      26.326  25.332  -4.015  0.00  0.00    -0.056 A 
HETATM    2  C   UNK N   1      25.641  25.281  -5.239  0.00  0.00     0.007 A 
HETATM    3  C   UNK N   1      26.405  26.545  -3.319  0.00  0.00     0.007 A 
HETATM    4  C   UNK N   1      25.056  26.435  -5.766  0.00  0.00     0.001 A 
HETATM    5  C   UNK N   1      25.812  27.698  -3.843  0.00  0.00     0.001 A 
HETATM    6  C   UNK N   1      25.139  27.644  -5.067  0.00  0.00     0.000 A 
ENDROOT
BRANCH   1   7
HETATM    7  C   UNK N   1      26.935  24.101  -3.421  0.00  0.00     0.062 C 
BRANCH   7   8
HETATM    8  C   UNK N   1      28.458  24.100  -3.481  0.00  0.00     0.074 C 
HETATM    9  C   UNK N   1      28.923  23.591  -4.834  0.00  0.00     0.032 C 
BRANCH   8  10
HETATM   10  N   UNK N   1      28.978  23.223  -2.450  0.00  0.00    -0.426 N 
HETATM   11  H   UNK N   1      29.696  22.535  -2.679  0.00  0.00     0.150 HD
HETATM   12  H   UNK N   1      28.624  23.291  -1.495  0.00  0.00     0.150 HD
ENDBRANCH   8  10
ENDBRANCH   7   8
ENDBRANCH   1   7
TORSDOF 3
ENDMDL
MODEL 6
REMARK VINA RESULT:      -4.3     26.768     28.482
REMARK  3 active torsions:
REMARK  status: ('A' for Active; 'I' for Inactive)
REMARK    1  A    between atoms: C_2  and  N_1 
REMARK    2  A    between atoms: C_2  and  C_3 
REMARK    3  A    between atoms: C_3  and  C_4 
ROOT
HETATM    1  C   UNK N   1      26.055  27.313  -5.696  0.00  0.00    -0.056 A 
HETATM    2  C   UNK N   1      25.525  27.790  -4.487  0.00  0.00     0.007 A 
HETATM    3  C   UNK N   1      27.090  28.018  -6.321  0.00  0.00     0.007 A 
HETATM    4  C   UNK N   1      26.016  28.969  -3.920  0.00  0.00     0.001 A 
HETATM    5  C   UNK N   1      27.588  29.193  -5.750  0.00  0.00     0.001 A 
HETATM    6  C   UNK N   1      27.050  29.670  -4.550  0.00  0.00     0.000 A 
ENDROOT
BRANCH   1   7
HETATM    7  C   UNK N   1      25.561  26.037  -6.303  0.00  0.00     0.062 C 
BRANCH   7   8
HETATM    8  C   UNK N   1      25.707  24.838  -5.375  0.00  0.00     0.074 C 
HETATM    9  C   UNK N   1      27.170  24.623  -5.031  0.00  0.00     0.032 C 
BRANCH   8  10
HETATM   10  N   UNK N   1      25.207  23.651  -6.043  0.00  0.00    -0.426 N 
HETATM   11  H   UNK N   1      25.731  22.778  -5.991  0.00  0.00     0.150 HD
HETATM   12  H   UNK N   1      24.332  23.690  -6.565  0.00  0.00     0.150 HD
ENDBRANCH   8  10
ENDBRANCH   7   8
ENDBRANCH   1   7
TORSDOF 3
ENDMDL
MODEL 7
REMARK VINA RESULT:      -4.2     10.280     11.544
REMARK  3 active torsions:
REMARK  status: ('A' for Active; 'I' for Inactive)
REMARK    1  A    between atoms: C_2  and  N_1 
REMARK    2  A    between atoms: C_2  and  C_3 
REMARK    3  A    between atoms: C_3  and  C_4 
ROOT
HETATM    1  C   UNK N   1      30.783  17.532   7.980  0.00  0.00    -0.056 A 
HETATM    2  C   UNK N   1      30.492  18.269   9.137  0.00  0.00     0.007 A 
HETATM    3  C   UNK N   1      29.735  17.085   7.166  0.00  0.00     0.007 A 
HETATM    4  C   UNK N   1      29.167  18.543   9.483  0.00  0.00     0.001 A 
HETATM    5  C   UNK N   1      28.409  17.365   7.507  0.00  0.00     0.001 A 
HETATM    6  C   UNK N   1      28.124  18.094   8.666  0.00  0.00     0.000 A 
ENDROOT
BRANCH   1   7
HETATM    7  C   UNK N   1      32.197  17.253   7.578  0.00  0.00     0.062 C 
BRANCH   7   8
HETATM    8  C   UNK N   1      33.211  17.657   8.642  0.00  0.00     0.074 C 
HETATM    9  C   UNK N   1      34.427  18.286   7.989  0.00  0.00     0.032 C 
BRANCH   8  10
HETATM   10  N   UNK N   1      33.633  16.478   9.374  0.00  0.00    -0.426 N 
HETATM   11  H   UNK N   1      33.199  16.250  10.269  0.00  0.00     0.150 HD
HETATM   12  H   UNK N   1      34.366  15.877   8.996  0.00  0.00     0.150 HD
ENDBRANCH   8  10
ENDBRANCH   7   8
ENDBRANCH   1   7
TORSDOF 3
ENDMDL
MODEL 8
REMARK VINA RESULT:      -4.1     14.627     15.564
REMARK  3 active torsions:
REMARK  status: ('A' for Active; 'I' for Inactive)
REMARK    1  A    between atoms: C_2  and  N_1 
REMARK    2  A    between atoms: C_2  and  C_3 
REMARK    3  A    between atoms: C_3  and  C_4 
ROOT
HETATM    1  C   UNK N   1      22.217  12.966   9.898  0.00  0.00    -0.056 A 
HETATM    2  C   UNK N   1      23.524  13.087   9.401  0.00  0.00     0.007 A 
HETATM    3  C   UNK N   1      22.007  12.376  11.150  0.00  0.00     0.007 A 
HETATM    4  C   UNK N   1      24.606  12.609  10.144  0.00  0.00     0.001 A 
HETATM    5  C   UNK N   1      23.090  11.905  11.898  0.00  0.00     0.001 A 
HETATM    6  C   UNK N   1      24.390  12.019  11.395  0.00  0.00     0.000 A 
ENDROOT
BRANCH   1   7
HETATM    7  C   UNK N   1      21.048  13.497   9.129  0.00  0.00     0.062 C 
BRANCH   7   8
HETATM    8  C   UNK N   1      21.151  14.990   8.842  0.00  0.00     0.074 C 
HETATM    9  C   UNK N   1      19.800  15.652   9.041  0.00  0.00     0.032 C 
BRANCH   8  10
HETATM   10  N   UNK N   1      21.567  15.186   7.466  0.00  0.00    -0.426 N 
HETATM   11  H   UNK N   1      22.545  15.381   7.251  0.00  0.00     0.150 HD
HETATM   12  H   UNK N   1      20.881  15.130   6.713  0.00  0.00     0.150 HD
ENDBRANCH   8  10
ENDBRANCH   7   8
ENDBRANCH   1   7
TORSDOF 3
ENDMDL
MODEL 9
REMARK VINA RESULT:      -4.1     11.630     12.950
REMARK  3 active torsions:
REMARK  status: ('A' for Active; 'I' for Inactive)
REMARK    1  A    between atoms: C_2  and  N_1 
REMARK    2  A    between atoms: C_2  and  C_3 
REMARK    3  A    between atoms: C_3  and  C_4 
ROOT
HETATM    1  C   UNK N   1      31.056  17.225   6.825  0.00  0.00    -0.056 A 
HETATM    2  C   UNK N   1      32.375  17.357   7.284  0.00  0.00     0.007 A 
HETATM    3  C   UNK N   1      30.800  17.239   5.448  0.00  0.00     0.007 A 
HETATM    4  C   UNK N   1      33.424  17.516   6.375  0.00  0.00     0.001 A 
HETATM    5  C   UNK N   1      31.850  17.390   4.538  0.00  0.00     0.001 A 
HETATM    6  C   UNK N   1      33.163  17.530   5.001  0.00  0.00     0.000 A 
ENDROOT
BRANCH   1   7
HETATM    7  C   UNK N   1      29.923  17.025   7.782  0.00  0.00     0.062 C 
BRANCH   7   8
HETATM    8  C   UNK N   1      29.295  18.334   8.246  0.00  0.00     0.074 C 
HETATM    9  C   UNK N   1      29.753  18.658   9.657  0.00  0.00     0.032 C 
BRANCH   8  10
HETATM   10  N   UNK N   1      27.852  18.201   8.244  0.00  0.00    -0.426 N 
HETATM   11  H   UNK N   1      27.271  18.929   8.662  0.00  0.00     0.150 HD
HETATM   12  H   UNK N   1      27.415  17.379   7.826  0.00  0.00     0.150 HD
ENDBRANCH   8  10
ENDBRANCH   7   8
ENDBRANCH   1   7
TORSDOF 3
ENDMDL
