MODEL 1
REMARK VINA RESULT:      -5.1      0.000      0.000
REMARK  3 active torsions:
REMARK  status: ('A' for Active; 'I' for Inactive)
REMARK    1  A    between atoms: C_2  and  N_1 
REMARK    2  A    between atoms: C_2  and  C_3 
REMARK    3  A    between atoms: C_3  and  C_4 
ROOT
HETATM    1  C   UNK N   1      35.404  12.784  16.946  0.00  0.00    -0.056 A 
HETATM    2  C   UNK N   1      35.687  11.416  17.027  0.00  0.00     0.007 A 
HETATM    3  C   UNK N   1      35.145  13.509  18.114  0.00  0.00     0.007 A 
HETATM    4  C   UNK N   1      35.695  10.770  18.269  0.00  0.00     0.001 A 
HETATM    5  C   UNK N   1      35.160  12.865  19.358  0.00  0.00     0.001 A 
HETATM    6  C   UNK N   1      35.434  11.496  19.433  0.00  0.00     0.000 A 
ENDROOT
BRANCH   1   7
HETATM    7  C   UNK N   1      35.436  13.503  15.626  0.00  0.00     0.062 C 
BRANCH   7   8
HETATM    8  C   UNK N   1      36.838  13.884  15.155  0.00  0.00     0.076 C 
HETATM    9  C   UNK N   1      37.272  15.174  15.841  0.00  0.00     0.032 C 
BRANCH   8  10
HETATM   10  N   UNK N   1      36.802  14.089  13.712  0.00  0.00    -0.421 N 
HETATM   11  C   UNK N   1      35.537  13.583  13.201  0.00  0.00     0.140 C 
HETATM   12  H   UNK N   1      37.541  14.517  13.153  0.00  0.00     0.153 HD
ENDBRANCH   8  10
ENDBRANCH   7   8
ENDBRANCH   1   7
TORSDOF 3
ENDMDL
MODEL 2
REMARK VINA RESULT:      -4.9      1.632      2.710
REMARK  3 active torsions:
REMARK  status: ('A' for Active; 'I' for Inactive)
REMARK    1  A    between atoms: C_2  and  N_1 
REMARK    2  A    between atoms: C_2  and  C_3 
REMARK    3  A    between atoms: C_3  and  C_4 
ROOT
HETATM    1  C   UNK N   1      35.571  12.133  16.672  0.00  0.00    -0.056 A 
HETATM    2  C   UNK N   1      35.291  13.410  17.172  0.00  0.00     0.007 A 
HETATM    3  C   UNK N   1      35.696  11.055  17.554  0.00  0.00     0.007 A 
HETATM    4  C   UNK N   1      35.152  13.612  18.550  0.00  0.00     0.001 A 
HETATM    5  C   UNK N   1      35.549  11.256  18.933  0.00  0.00     0.001 A 
HETATM    6  C   UNK N   1      35.279  12.534  19.428  0.00  0.00     0.000 A 
ENDROOT
BRANCH   1   7
HETATM    7  C   UNK N   1      35.678  11.890  15.192  0.00  0.00     0.062 C 
BRANCH   7   8
HETATM    8  C   UNK N   1      34.352  12.000  14.442  0.00  0.00     0.076 C 
HETATM    9  C   UNK N   1      33.588  10.686  14.562  0.00  0.00     0.032 C 
BRANCH   8  10
HETATM   10  N   UNK N   1      34.635  12.271  13.038  0.00  0.00    -0.421 N 
HETATM   11  C   UNK N   1      35.398  13.507  12.947  0.00  0.00     0.140 C 
HETATM   12  H   UNK N   1      34.347  11.690  12.250  0.00  0.00     0.153 HD
ENDBRANCH   8  10
ENDBRANCH   7   8
ENDBRANCH   1   7
TORSDOF 3
ENDMDL
MODEL 3
REMARK VINA RESULT:      -4.6     25.769     28.140
REMARK  3 active torsions:
REMARK  status: ('A' for Active; 'I' for Inactive)
REMARK    1  A    between atoms: C_2  and  N_1 
REMARK    2  A    between atoms: C_2  and  C_3 
REMARK    3  A    between atoms: C_3  and  C_4 
ROOT
HETATM    1  C   UNK N   1      25.962  27.732  -5.430  0.00  0.00    -0.056 A 
HETATM    2  C   UNK N   1      27.023  28.226  -6.198  0.00  0.00     0.007 A 
HETATM    3  C   UNK N   1      25.633  28.351  -4.221  0.00  0.00     0.007 A 
HETATM    4  C   UNK N   1      27.764  29.325  -5.749  0.00  0.00     0.001 A 
HETATM    5  C   UNK N   1      26.370  29.457  -3.775  0.00  0.00     0.001 A 
HETATM    6  C   UNK N   1      27.435  29.941  -4.540  0.00  0.00     0.000 A 
ENDROOT
BRANCH   1   7
HETATM    7  C   UNK N   1      25.126  26.581  -5.919  0.00  0.00     0.062 C 
BRANCH   7   8
HETATM    8  C   UNK N   1      25.929  25.332  -6.278  0.00  0.00     0.076 C 
HETATM    9  C   UNK N   1      25.721  25.000  -7.751  0.00  0.00     0.032 C 
BRANCH   8  10
HETATM   10  N   UNK N   1      25.453  24.225  -5.459  0.00  0.00    -0.421 N 
HETATM   11  C   UNK N   1      26.200  24.215  -4.209  0.00  0.00     0.140 C 
HETATM   12  H   UNK N   1      24.718  23.565  -5.718  0.00  0.00     0.153 HD
ENDBRANCH   8  10
ENDBRANCH   7   8
ENDBRANCH   1   7
TORSDOF 3
ENDMDL
MODEL 4
REMARK VINA RESULT:      -4.6     22.551     25.803
REMARK  3 active torsions:
REMARK  status: ('A' for Active; 'I' for Inactive)
REMARK    1  A    between atoms: C_2  and  N_1 
REMARK    2  A    between atoms: C_2  and  C_3 
REMARK    3  A    between atoms: C_3  and  C_4 
ROOT
HETATM    1  C   UNK N   1      26.277  25.296  -4.026  0.00  0.00    -0.056 A 
HETATM    2  C   UNK N   1      26.401  26.487  -3.301  0.00  0.00     0.007 A 
HETATM    3  C   UNK N   1      25.631  25.304  -5.266  0.00  0.00     0.007 A 
HETATM    4  C   UNK N   1      25.867  27.678  -3.806  0.00  0.00     0.001 A 
HETATM    5  C   UNK N   1      25.102  26.497  -5.775  0.00  0.00     0.001 A 
HETATM    6  C   UNK N   1      25.220  27.682  -5.043  0.00  0.00     0.000 A 
ENDROOT
BRANCH   1   7
HETATM    7  C   UNK N   1      26.885  24.018  -3.521  0.00  0.00     0.062 C 
BRANCH   7   8
HETATM    8  C   UNK N   1      28.405  24.062  -3.376  0.00  0.00     0.076 C 
HETATM    9  C   UNK N   1      29.054  23.573  -4.665  0.00  0.00     0.032 C 
BRANCH   8  10
HETATM   10  N   UNK N   1      28.790  23.186  -2.276  0.00  0.00    -0.421 N 
HETATM   11  C   UNK N   1      30.224  22.947  -2.350  0.00  0.00     0.140 C 
HETATM   12  H   UNK N   1      28.159  22.804  -1.570  0.00  0.00     0.153 HD
ENDBRANCH   8  10
ENDBRANCH   7   8
ENDBRANCH   1   7
TORSDOF 3
ENDMDL
MODEL 5
REMARK VINA RESULT:      -4.5      8.046     10.850
REMARK  3 active torsions:
REMARK  status: ('A' for Active; 'I' for Inactive)
REMARK    1  A    between atoms: C_2  and  N_1 
REMARK    2  A    between atoms: C_2  and  C_3 
REMARK    3  A    between atoms: C_3  and  C_4 
ROOT
HETATM    1  C   UNK N   1      30.804  17.556   7.962  0.00  0.00    -0.056 A 
HETATM    2  C   UNK N   1      29.740  17.106   7.171  0.00  0.00     0.007 A 
HETATM    3  C   UNK N   1      30.543  18.291   9.123  0.00  0.00     0.007 A 
HETATM    4  C   UNK N   1      28.420  17.404   7.530  0.00  0.00     0.001 A 
HETATM    5  C   UNK N   1      29.221  18.583   9.486  0.00  0.00     0.001 A 
HETATM    6  C   UNK N   1      28.163  18.140   8.689  0.00  0.00     0.000 A 
ENDROOT
BRANCH   1   7
HETATM    7  C   UNK N   1      32.224  17.206   7.617  0.00  0.00     0.062 C 
BRANCH   7   8
HETATM    8  C   UNK N   1      33.246  17.618   8.676  0.00  0.00     0.076 C 
HETATM    9  C   UNK N   1      34.433  18.296   8.001  0.00  0.00     0.032 C 
BRANCH   8  10
HETATM   10  N   UNK N   1      33.701  16.419   9.369  0.00  0.00    -0.421 N 
HETATM   11  C   UNK N   1      34.956  16.719  10.043  0.00  0.00     0.140 C 
HETATM   12  H   UNK N   1      33.220  15.519   9.381  0.00  0.00     0.153 HD
ENDBRANCH   8  10
ENDBRANCH   7   8
ENDBRANCH   1   7
TORSDOF 3
ENDMDL
MODEL 6
REMARK VINA RESULT:      -4.3     10.817     12.251
REMARK  3 active torsions:
REMARK  status: ('A' for Active; 'I' for Inactive)
REMARK    1  A    between atoms: C_2  and  N_1 
REMARK    2  A    between atoms: C_2  and  C_3 
REMARK    3  A    between atoms: C_3  and  C_4 
ROOT
HETATM    1  C   UNK N   1      30.990  17.312   7.205  0.00  0.00    -0.056 A 
HETATM    2  C   UNK N   1      31.649  17.102   5.988  0.00  0.00     0.007 A 
HETATM    3  C   UNK N   1      31.714  17.754   8.318  0.00  0.00     0.007 A 
HETATM    4  C   UNK N   1      33.028  17.317   5.887  0.00  0.00     0.001 A 
HETATM    5  C   UNK N   1      33.093  17.977   8.215  0.00  0.00     0.001 A 
HETATM    6  C   UNK N   1      33.748  17.757   7.000  0.00  0.00     0.000 A 
ENDROOT
BRANCH   1   7
HETATM    7  C   UNK N   1      29.503  17.131   7.320  0.00  0.00     0.062 C 
BRANCH   7   8
HETATM    8  C   UNK N   1      28.777  18.303   7.978  0.00  0.00     0.076 C 
HETATM    9  C   UNK N   1      28.231  17.868   9.332  0.00  0.00     0.032 C 
BRANCH   8  10
HETATM   10  N   UNK N   1      27.674  18.707   7.116  0.00  0.00    -0.421 N 
HETATM   11  C   UNK N   1      27.563  17.754   6.021  0.00  0.00     0.140 C 
HETATM   12  H   UNK N   1      27.077  19.523   7.256  0.00  0.00     0.153 HD
ENDBRANCH   8  10
ENDBRANCH   7   8
ENDBRANCH   1   7
TORSDOF 3
ENDMDL
MODEL 7
REMARK VINA RESULT:      -4.3     25.969     27.160
REMARK  3 active torsions:
REMARK  status: ('A' for Active; 'I' for Inactive)
REMARK    1  A    between atoms: C_2  and  N_1 
REMARK    2  A    between atoms: C_2  and  C_3 
REMARK    3  A    between atoms: C_3  and  C_4 
ROOT
HETATM    1  C   UNK N   1      25.944  25.278  -4.799  0.00  0.00    -0.056 A 
HETATM    2  C   UNK N   1      26.426  25.892  -3.637  0.00  0.00     0.007 A 
HETATM    3  C   UNK N   1      25.210  26.026  -5.725  0.00  0.00     0.007 A 
HETATM    4  C   UNK N   1      26.161  27.245  -3.393  0.00  0.00     0.001 A 
HETATM    5  C   UNK N   1      24.952  27.382  -5.484  0.00  0.00     0.001 A 
HETATM    6  C   UNK N   1      25.427  27.989  -4.318  0.00  0.00     0.000 A 
ENDROOT
BRANCH   1   7
HETATM    7  C   UNK N   1      26.258  23.839  -5.099  0.00  0.00     0.062 C 
BRANCH   7   8
HETATM    8  C   UNK N   1      26.414  23.529  -6.586  0.00  0.00     0.076 C 
HETATM    9  C   UNK N   1      25.517  22.354  -6.958  0.00  0.00     0.032 C 
BRANCH   8  10
HETATM   10  N   UNK N   1      27.805  23.178  -6.843  0.00  0.00    -0.421 N 
HETATM   11  C   UNK N   1      27.843  21.909  -7.553  0.00  0.00     0.140 C 
HETATM   12  H   UNK N   1      28.619  23.731  -6.569  0.00  0.00     0.153 HD
ENDBRANCH   8  10
ENDBRANCH   7   8
ENDBRANCH   1   7
TORSDOF 3
ENDMDL
MODEL 8
REMARK VINA RESULT:      -4.3     11.488     13.934
REMARK  3 active torsions:
REMARK  status: ('A' for Active; 'I' for Inactive)
REMARK    1  A    between atoms: C_2  and  N_1 
REMARK    2  A    between atoms: C_2  and  C_3 
REMARK    3  A    between atoms: C_3  and  C_4 
ROOT
HETATM    1  C   UNK N   1      28.456  18.332   7.017  0.00  0.00    -0.056 A 
HETATM    2  C   UNK N   1      29.550  17.518   6.698  0.00  0.00     0.007 A 
HETATM    3  C   UNK N   1      28.298  18.798   8.326  0.00  0.00     0.007 A 
HETATM    4  C   UNK N   1      30.473  17.158   7.687  0.00  0.00     0.001 A 
HETATM    5  C   UNK N   1      29.226  18.444   9.315  0.00  0.00     0.001 A 
HETATM    6  C   UNK N   1      30.311  17.624   8.994  0.00  0.00     0.000 A 
ENDROOT
BRANCH   1   7
HETATM    7  C   UNK N   1      27.482  18.766   5.959  0.00  0.00     0.062 C 
BRANCH   7   8
HETATM    8  C   UNK N   1      27.898  20.026   5.202  0.00  0.00     0.076 C 
HETATM    9  C   UNK N   1      27.040  21.200   5.658  0.00  0.00     0.032 C 
BRANCH   8  10
HETATM   10  N   UNK N   1      27.693  19.799   3.777  0.00  0.00    -0.421 N 
HETATM   11  C   UNK N   1      26.413  20.375   3.392  0.00  0.00     0.140 C 
HETATM   12  H   UNK N   1      28.340  19.316   3.152  0.00  0.00     0.153 HD
ENDBRANCH   8  10
ENDBRANCH   7   8
ENDBRANCH   1   7
TORSDOF 3
ENDMDL
MODEL 9
REMARK VINA RESULT:      -4.2     14.267     15.635
REMARK  3 active torsions:
REMARK  status: ('A' for Active; 'I' for Inactive)
REMARK    1  A    between atoms: C_2  and  N_1 
REMARK    2  A    between atoms: C_2  and  C_3 
REMARK    3  A    between atoms: C_3  and  C_4 
ROOT
HETATM    1  C   UNK N   1      22.355  12.612   9.669  0.00  0.00    -0.056 A 
HETATM    2  C   UNK N   1      21.897  12.238  10.938  0.00  0.00     0.007 A 
HETATM    3  C   UNK N   1      23.729  12.650   9.411  0.00  0.00     0.007 A 
HETATM    4  C   UNK N   1      22.810  11.921  11.951  0.00  0.00     0.001 A 
HETATM    5  C   UNK N   1      24.642  12.325  10.423  0.00  0.00     0.001 A 
HETATM    6  C   UNK N   1      24.181  11.962  11.691  0.00  0.00     0.000 A 
ENDROOT
BRANCH   1   7
HETATM    7  C   UNK N   1      21.389  12.911   8.557  0.00  0.00     0.062 C 
BRANCH   7   8
HETATM    8  C   UNK N   1      21.299  14.390   8.187  0.00  0.00     0.076 C 
HETATM    9  C   UNK N   1      20.207  15.057   9.016  0.00  0.00     0.032 C 
BRANCH   8  10
HETATM   10  N   UNK N   1      20.965  14.493   6.772  0.00  0.00    -0.421 N 
HETATM   11  C   UNK N   1      20.591  13.174   6.283  0.00  0.00     0.140 C 
HETATM   12  H   UNK N   1      20.989  15.349   6.215  0.00  0.00     0.153 HD
ENDBRANCH   8  10
ENDBRANCH   7   8
ENDBRANCH   1   7
TORSDOF 3
ENDMDL
