MODEL 1
REMARK VINA RESULT:      -7.4      0.000      0.000
REMARK  3 active torsions:
REMARK  status: ('A' for Active; 'I' for Inactive)
REMARK    1  A    between atoms: N_3  and  C_9 
REMARK    2  A    between atoms: C_6  and  C_9 
REMARK    3  A    between atoms: C_15  and  C_18 
ROOT
HETATM    1 Cl   UNK N   1      29.135  15.287   2.368  0.00  0.00    -0.084 Cl
HETATM    2  O   UNK N   1      30.087  18.814   9.653  0.00  0.00    -0.271 OA
HETATM    3  N   UNK N   1      30.400  17.625   7.775  0.00  0.00    -0.315 N 
HETATM    4  N   UNK N   1      27.659  19.059   7.300  0.00  0.00    -0.380 N 
ATOM      5  HN  UNK N   1      27.119  19.914   7.434  1.00  0.00     0.160 HD
HETATM    6  C   UNK N   1      29.954  17.088   6.503  0.00  0.00     0.049 A 
HETATM    7  C   UNK N   1      29.615  18.350   8.625  0.00  0.00     0.242 C 
HETATM    8  C   UNK N   1      28.811  17.543   5.726  0.00  0.00     0.020 A 
HETATM    9  C   UNK N   1      28.156  18.419   8.471  0.00  0.00     0.223 C 
HETATM   10  C   UNK N   1      30.777  16.086   5.933  0.00  0.00     0.032 A 
HETATM   11  C   UNK N   1      27.830  18.660   6.089  0.00  0.00     0.051 C 
HETATM   12  C   UNK N   1      28.617  16.944   4.466  0.00  0.00     0.040 A 
HETATM   13  C   UNK N   1      30.530  15.526   4.690  0.00  0.00     0.026 A 
HETATM   14  C   UNK N   1      29.447  15.959   3.953  0.00  0.00     0.035 A 
ENDROOT
BRANCH  11  15
HETATM   15  C   UNK N   1      26.867  19.261   5.082  0.00  0.00    -0.009 A 
HETATM   16  C   UNK N   1      25.542  18.778   5.035  0.00  0.00     0.014 A 
HETATM   17  C   UNK N   1      24.644  19.224   4.062  0.00  0.00     0.001 A 
HETATM   18  C   UNK N   1      25.054  20.153   3.105  0.00  0.00     0.000 A 
HETATM   19  C   UNK N   1      26.357  20.648   3.134  0.00  0.00     0.001 A 
HETATM   20  C   UNK N   1      27.251  20.206   4.113  0.00  0.00     0.014 A 
ENDBRANCH  11  15
BRANCH   3  21
HETATM   21  C   UNK N   1      31.722  17.211   8.250  0.00  0.00     0.137 C 
BRANCH  21  22
HETATM   22  C   UNK N   1      32.828  18.229   8.049  0.00  0.00     0.004 A 
HETATM   23  C   UNK N   1      34.124  17.643   8.583  0.00  0.00     0.007 A 
HETATM   24  C   UNK N   1      33.845  17.621   7.099  0.00  0.00     0.007 A 
ENDBRANCH  21  22
ENDBRANCH   3  21
TORSDOF 3
ENDMDL
MODEL 2
REMARK VINA RESULT:      -7.1     10.545     12.323
REMARK  3 active torsions:
REMARK  status: ('A' for Active; 'I' for Inactive)
REMARK    1  A    between atoms: N_3  and  C_9 
REMARK    2  A    between atoms: C_6  and  C_9 
REMARK    3  A    between atoms: C_15  and  C_18 
ROOT
HETATM    1 Cl   UNK N   1      27.780  21.453  -9.062  0.00  0.00    -0.084 Cl
HETATM    2  O   UNK N   1      30.869  22.788  -1.639  0.00  0.00    -0.271 OA
HETATM    3  N   UNK N   1      30.510  22.033  -3.722  0.00  0.00    -0.315 N 
HETATM    4  N   UNK N   1      28.310  24.223  -3.337  0.00  0.00    -0.380 N 
ATOM      5  HN  UNK N   1      28.088  25.137  -2.941  1.00  0.00     0.160 HD
HETATM    6  C   UNK N   1      29.733  21.948  -4.944  0.00  0.00     0.049 A 
HETATM    7  C   UNK N   1      30.127  22.723  -2.608  0.00  0.00     0.242 C 
HETATM    8  C   UNK N   1      28.683  22.863  -5.365  0.00  0.00     0.020 A 
HETATM    9  C   UNK N   1      28.755  23.217  -2.432  0.00  0.00     0.223 C 
HETATM   10  C   UNK N   1      30.109  20.923  -5.846  0.00  0.00     0.032 A 
HETATM   11  C   UNK N   1      28.163  24.087  -4.608  0.00  0.00     0.051 C 
HETATM   12  C   UNK N   1      28.125  22.650  -6.640  0.00  0.00     0.040 A 
HETATM   13  C   UNK N   1      29.515  20.756  -7.088  0.00  0.00     0.026 A 
HETATM   14  C   UNK N   1      28.521  21.625  -7.487  0.00  0.00     0.035 A 
ENDROOT
BRANCH  11  15
HETATM   15  C   UNK N   1      27.293  25.144  -5.262  0.00  0.00    -0.009 A 
HETATM   16  C   UNK N   1      27.915  26.224  -5.923  0.00  0.00     0.014 A 
HETATM   17  C   UNK N   1      27.165  27.277  -6.454  0.00  0.00     0.001 A 
HETATM   18  C   UNK N   1      25.775  27.281  -6.323  0.00  0.00     0.000 A 
HETATM   19  C   UNK N   1      25.138  26.222  -5.677  0.00  0.00     0.001 A 
HETATM   20  C   UNK N   1      25.890  25.167  -5.154  0.00  0.00     0.014 A 
ENDBRANCH  11  15
BRANCH   3  21
HETATM   21  C   UNK N   1      31.696  21.177  -3.623  0.00  0.00     0.137 C 
BRANCH  21  22
HETATM   22  C   UNK N   1      33.002  21.835  -4.024  0.00  0.00     0.004 A 
HETATM   23  C   UNK N   1      34.147  20.947  -3.567  0.00  0.00     0.007 A 
HETATM   24  C   UNK N   1      33.697  20.911  -5.008  0.00  0.00     0.007 A 
ENDBRANCH  21  22
ENDBRANCH   3  21
TORSDOF 3
ENDMDL
MODEL 3
REMARK VINA RESULT:      -6.6      2.129      6.631
REMARK  3 active torsions:
REMARK  status: ('A' for Active; 'I' for Inactive)
REMARK    1  A    between atoms: N_3  and  C_9 
REMARK    2  A    between atoms: C_6  and  C_9 
REMARK    3  A    between atoms: C_15  and  C_18 
ROOT
HETATM    1 Cl   UNK N   1      33.436  15.847   3.460  0.00  0.00    -0.084 Cl
HETATM    2  O   UNK N   1      27.986  18.667   8.824  0.00  0.00    -0.271 OA
HETATM    3  N   UNK N   1      29.023  18.015   6.943  0.00  0.00    -0.315 N 
HETATM    4  N   UNK N   1      31.045  17.257   9.207  0.00  0.00    -0.380 N 
ATOM      5  HN  UNK N   1      31.156  16.899  10.155  1.00  0.00     0.160 HD
HETATM    6  C   UNK N   1      30.177  17.525   6.213  0.00  0.00     0.049 A 
HETATM    7  C   UNK N   1      29.020  18.312   8.275  0.00  0.00     0.242 C 
HETATM    8  C   UNK N   1      31.351  16.881   6.784  0.00  0.00     0.020 A 
HETATM    9  C   UNK N   1      30.262  18.436   9.049  0.00  0.00     0.223 C 
HETATM   10  C   UNK N   1      30.097  17.607   4.802  0.00  0.00     0.032 A 
HETATM   11  C   UNK N   1      31.625  16.603   8.264  0.00  0.00     0.051 C 
HETATM   12  C   UNK N   1      32.313  16.392   5.880  0.00  0.00     0.040 A 
HETATM   13  C   UNK N   1      31.083  17.116   3.961  0.00  0.00     0.026 A 
HETATM   14  C   UNK N   1      32.194  16.503   4.503  0.00  0.00     0.035 A 
ENDROOT
BRANCH  11  15
HETATM   15  C   UNK N   1      32.720  15.659   8.728  0.00  0.00    -0.009 A 
HETATM   16  C   UNK N   1      33.991  16.190   9.033  0.00  0.00     0.014 A 
HETATM   17  C   UNK N   1      35.062  15.355   9.367  0.00  0.00     0.001 A 
HETATM   18  C   UNK N   1      34.889  13.971   9.390  0.00  0.00     0.000 A 
HETATM   19  C   UNK N   1      33.640  13.424   9.097  0.00  0.00     0.001 A 
HETATM   20  C   UNK N   1      32.569  14.261   8.771  0.00  0.00     0.014 A 
ENDBRANCH  11  15
BRANCH   3  21
HETATM   21  C   UNK N   1      27.840  18.378   6.158  0.00  0.00     0.137 C 
BRANCH  21  22
HETATM   22  C   UNK N   1      27.710  19.853   5.833  0.00  0.00     0.004 A 
HETATM   23  C   UNK N   1      27.368  19.992   4.359  0.00  0.00     0.007 A 
HETATM   24  C   UNK N   1      26.276  20.102   5.397  0.00  0.00     0.007 A 
ENDBRANCH  21  22
ENDBRANCH   3  21
TORSDOF 3
ENDMDL
MODEL 4
REMARK VINA RESULT:      -6.6     10.444     13.472
REMARK  3 active torsions:
REMARK  status: ('A' for Active; 'I' for Inactive)
REMARK    1  A    between atoms: N_3  and  C_9 
REMARK    2  A    between atoms: C_6  and  C_9 
REMARK    3  A    between atoms: C_15  and  C_18 
ROOT
HETATM    1 Cl   UNK N   1      33.756  26.330  -5.343  0.00  0.00    -0.084 Cl
HETATM    2  O   UNK N   1      26.336  23.946  -2.960  0.00  0.00    -0.271 OA
HETATM    3  N   UNK N   1      28.055  25.093  -3.837  0.00  0.00    -0.315 N 
HETATM    4  N   UNK N   1      29.362  22.421  -2.866  0.00  0.00    -0.380 N 
ATOM      5  HN  UNK N   1      29.248  21.411  -2.769  1.00  0.00     0.160 HD
HETATM    6  C   UNK N   1      29.468  25.295  -4.097  0.00  0.00     0.049 A 
HETATM    7  C   UNK N   1      27.545  24.075  -3.082  0.00  0.00     0.242 C 
HETATM    8  C   UNK N   1      30.518  24.293  -3.988  0.00  0.00     0.020 A 
HETATM    9  C   UNK N   1      28.395  23.244  -2.220  0.00  0.00     0.223 C 
HETATM   10  C   UNK N   1      29.829  26.572  -4.591  0.00  0.00     0.032 A 
HETATM   11  C   UNK N   1      30.363  22.832  -3.561  0.00  0.00     0.051 C 
HETATM   12  C   UNK N   1      31.812  24.681  -4.385  0.00  0.00     0.040 A 
HETATM   13  C   UNK N   1      31.126  26.899  -4.958  0.00  0.00     0.026 A 
HETATM   14  C   UNK N   1      32.120  25.948  -4.856  0.00  0.00     0.035 A 
ENDROOT
BRANCH  11  15
HETATM   15  C   UNK N   1      31.453  21.798  -3.775  0.00  0.00    -0.009 A 
HETATM   16  C   UNK N   1      32.481  21.684  -2.816  0.00  0.00     0.014 A 
HETATM   17  C   UNK N   1      33.562  20.820  -3.013  0.00  0.00     0.001 A 
HETATM   18  C   UNK N   1      33.647  20.061  -4.181  0.00  0.00     0.000 A 
HETATM   19  C   UNK N   1      32.640  20.154  -5.141  0.00  0.00     0.001 A 
HETATM   20  C   UNK N   1      31.556  21.013  -4.938  0.00  0.00     0.014 A 
ENDBRANCH  11  15
BRANCH   3  21
HETATM   21  C   UNK N   1      27.138  26.150  -4.269  0.00  0.00     0.137 C 
BRANCH  21  22
HETATM   22  C   UNK N   1      26.467  25.916  -5.609  0.00  0.00     0.004 A 
HETATM   23  C   UNK N   1      25.191  26.738  -5.657  0.00  0.00     0.007 A 
HETATM   24  C   UNK N   1      26.437  27.244  -6.345  0.00  0.00     0.007 A 
ENDBRANCH  21  22
ENDBRANCH   3  21
TORSDOF 3
ENDMDL
MODEL 5
REMARK VINA RESULT:      -6.6     11.015     14.023
REMARK  3 active torsions:
REMARK  status: ('A' for Active; 'I' for Inactive)
REMARK    1  A    between atoms: N_3  and  C_9 
REMARK    2  A    between atoms: C_6  and  C_9 
REMARK    3  A    between atoms: C_15  and  C_18 
ROOT
HETATM    1 Cl   UNK N   1      37.517  15.955  16.193  0.00  0.00    -0.084 Cl
HETATM    2  O   UNK N   1      33.735   9.856  12.331  0.00  0.00    -0.271 OA
HETATM    3  N   UNK N   1      34.916  11.705  12.807  0.00  0.00    -0.315 N 
HETATM    4  N   UNK N   1      34.288  10.481  15.617  0.00  0.00    -0.380 N 
ATOM      5  HN  UNK N   1      34.193   9.624  16.163  1.00  0.00     0.160 HD
HETATM    6  C   UNK N   1      35.452  12.688  13.729  0.00  0.00     0.049 A 
HETATM    7  C   UNK N   1      34.096  10.673  13.165  0.00  0.00     0.242 C 
HETATM    8  C   UNK N   1      35.580  12.539  15.171  0.00  0.00     0.020 A 
HETATM    9  C   UNK N   1      33.442  10.619  14.479  0.00  0.00     0.223 C 
HETATM   10  C   UNK N   1      35.981  13.862  13.143  0.00  0.00     0.032 A 
HETATM   11  C   UNK N   1      35.162  11.335  16.018  0.00  0.00     0.051 C 
HETATM   12  C   UNK N   1      36.222  13.582  15.865  0.00  0.00     0.040 A 
HETATM   13  C   UNK N   1      36.595  14.862  13.880  0.00  0.00     0.026 A 
HETATM   14  C   UNK N   1      36.718  14.720  15.247  0.00  0.00     0.035 A 
ENDROOT
BRANCH  11  15
HETATM   15  C   UNK N   1      35.615  11.150  17.455  0.00  0.00    -0.009 A 
HETATM   16  C   UNK N   1      36.443  10.052  17.771  0.00  0.00     0.014 A 
HETATM   17  C   UNK N   1      36.806   9.776  19.093  0.00  0.00     0.001 A 
HETATM   18  C   UNK N   1      36.337  10.584  20.129  0.00  0.00     0.000 A 
HETATM   19  C   UNK N   1      35.520  11.677  19.841  0.00  0.00     0.001 A 
HETATM   20  C   UNK N   1      35.165  11.955  18.518  0.00  0.00     0.014 A 
ENDBRANCH  11  15
BRANCH   3  21
HETATM   21  C   UNK N   1      35.130  11.943  11.377  0.00  0.00     0.137 C 
BRANCH  21  22
HETATM   22  C   UNK N   1      36.495  11.540  10.853  0.00  0.00     0.004 A 
HETATM   23  C   UNK N   1      36.324  10.981   9.450  0.00  0.00     0.007 A 
HETATM   24  C   UNK N   1      36.794  12.404   9.640  0.00  0.00     0.007 A 
ENDBRANCH  21  22
ENDBRANCH   3  21
TORSDOF 3
ENDMDL
MODEL 6
REMARK VINA RESULT:      -6.5      3.035      6.179
REMARK  3 active torsions:
REMARK  status: ('A' for Active; 'I' for Inactive)
REMARK    1  A    between atoms: N_3  and  C_9 
REMARK    2  A    between atoms: C_6  and  C_9 
REMARK    3  A    between atoms: C_15  and  C_18 
ROOT
HETATM    1 Cl   UNK N   1      31.923  16.600   8.648  0.00  0.00    -0.084 Cl
HETATM    2  O   UNK N   1      26.017  18.465   3.350  0.00  0.00    -0.271 OA
HETATM    3  N   UNK N   1      27.345  18.378   5.159  0.00  0.00    -0.315 N 
HETATM    4  N   UNK N   1      28.767  16.498   3.102  0.00  0.00    -0.380 N 
ATOM      5  HN  UNK N   1      29.010  16.348   2.123  1.00  0.00     0.160 HD
HETATM    6  C   UNK N   1      28.454  17.831   5.915  0.00  0.00     0.049 A 
HETATM    7  C   UNK N   1      26.928  17.908   3.946  0.00  0.00     0.242 C 
HETATM    8  C   UNK N   1      29.544  17.023   5.388  0.00  0.00     0.020 A 
HETATM    9  C   UNK N   1      27.383  16.617   3.414  0.00  0.00     0.223 C 
HETATM   10  C   UNK N   1      28.518  18.205   7.279  0.00  0.00     0.032 A 
HETATM   11  C   UNK N   1      29.740  16.565   3.941  0.00  0.00     0.051 C 
HETATM   12  C   UNK N   1      30.574  16.678   6.284  0.00  0.00     0.040 A 
HETATM   13  C   UNK N   1      29.555  17.826   8.117  0.00  0.00     0.026 A 
HETATM   14  C   UNK N   1      30.588  17.062   7.616  0.00  0.00     0.035 A 
ENDROOT
BRANCH  11  15
HETATM   15  C   UNK N   1      31.053  15.995   3.435  0.00  0.00    -0.009 A 
HETATM   16  C   UNK N   1      31.197  14.594   3.346  0.00  0.00     0.014 A 
HETATM   17  C   UNK N   1      32.416  14.014   2.983  0.00  0.00     0.001 A 
HETATM   18  C   UNK N   1      33.522  14.822   2.716  0.00  0.00     0.000 A 
HETATM   19  C   UNK N   1      33.402  16.209   2.793  0.00  0.00     0.001 A 
HETATM   20  C   UNK N   1      32.180  16.786   3.149  0.00  0.00     0.014 A 
ENDBRANCH  11  15
BRANCH   3  21
HETATM   21  C   UNK N   1      26.513  19.384   5.825  0.00  0.00     0.137 C 
BRANCH  21  22
HETATM   22  C   UNK N   1      26.732  20.812   5.361  0.00  0.00     0.004 A 
HETATM   23  C   UNK N   1      26.281  21.750   6.468  0.00  0.00     0.007 A 
HETATM   24  C   UNK N   1      27.750  21.445   6.293  0.00  0.00     0.007 A 
ENDBRANCH  21  22
ENDBRANCH   3  21
TORSDOF 3
ENDMDL
MODEL 7
REMARK VINA RESULT:      -6.4      9.620     11.731
REMARK  3 active torsions:
REMARK  status: ('A' for Active; 'I' for Inactive)
REMARK    1  A    between atoms: N_3  and  C_9 
REMARK    2  A    between atoms: C_6  and  C_9 
REMARK    3  A    between atoms: C_15  and  C_18 
ROOT
HETATM    1 Cl   UNK N   1      33.226   9.332  11.105  0.00  0.00    -0.084 Cl
HETATM    2  O   UNK N   1      37.337  14.725  15.626  0.00  0.00    -0.271 OA
HETATM    3  N   UNK N   1      36.129  12.962  14.939  0.00  0.00    -0.315 N 
HETATM    4  N   UNK N   1      36.887  14.426  12.280  0.00  0.00    -0.380 N 
ATOM      5  HN  UNK N   1      37.608  14.943  11.776  1.00  0.00     0.160 HD
HETATM    6  C   UNK N   1      35.425  12.201  13.924  0.00  0.00     0.049 A 
HETATM    7  C   UNK N   1      36.715  14.177  14.728  0.00  0.00     0.242 C 
HETATM    8  C   UNK N   1      35.565  12.349  12.483  0.00  0.00     0.020 A 
HETATM    9  C   UNK N   1      36.449  14.971  13.521  0.00  0.00     0.223 C 
HETATM   10  C   UNK N   1      34.596  11.156  14.398  0.00  0.00     0.032 A 
HETATM   11  C   UNK N   1      36.458  13.341  11.736  0.00  0.00     0.051 C 
HETATM   12  C   UNK N   1      34.858  11.435  11.677  0.00  0.00     0.040 A 
HETATM   13  C   UNK N   1      33.916  10.292  13.554  0.00  0.00     0.026 A 
HETATM   14  C   UNK N   1      34.050  10.431  12.188  0.00  0.00     0.035 A 
ENDROOT
BRANCH  11  15
HETATM   15  C   UNK N   1      36.766  13.211  10.255  0.00  0.00    -0.009 A 
HETATM   16  C   UNK N   1      37.858  12.412   9.855  0.00  0.00     0.014 A 
HETATM   17  C   UNK N   1      38.247  12.338   8.515  0.00  0.00     0.001 A 
HETATM   18  C   UNK N   1      37.563  13.074   7.546  0.00  0.00     0.000 A 
HETATM   19  C   UNK N   1      36.478  13.867   7.918  0.00  0.00     0.001 A 
HETATM   20  C   UNK N   1      36.086  13.933   9.258  0.00  0.00     0.014 A 
ENDBRANCH  11  15
BRANCH   3  21
HETATM   21  C   UNK N   1      36.049  12.472  16.317  0.00  0.00     0.137 C 
BRANCH  21  22
HETATM   22  C   UNK N   1      34.853  12.966  17.110  0.00  0.00     0.004 A 
HETATM   23  C   UNK N   1      35.071  12.622  18.573  0.00  0.00     0.007 A 
HETATM   24  C   UNK N   1      35.352  14.021  18.081  0.00  0.00     0.007 A 
ENDBRANCH  21  22
ENDBRANCH   3  21
TORSDOF 3
ENDMDL
MODEL 8
REMARK VINA RESULT:      -6.4      6.180     10.540
REMARK  3 active torsions:
REMARK  status: ('A' for Active; 'I' for Inactive)
REMARK    1  A    between atoms: N_3  and  C_9 
REMARK    2  A    between atoms: C_6  and  C_9 
REMARK    3  A    between atoms: C_15  and  C_18 
ROOT
HETATM    1 Cl   UNK N   1      33.745   9.456   9.977  0.00  0.00    -0.084 Cl
HETATM    2  O   UNK N   1      35.294  17.458  10.015  0.00  0.00    -0.271 OA
HETATM    3  N   UNK N   1      34.482  15.420   9.538  0.00  0.00    -0.315 N 
HETATM    4  N   UNK N   1      36.279  14.933  12.052  0.00  0.00    -0.380 N 
ATOM      5  HN  UNK N   1      36.594  15.303  12.950  1.00  0.00     0.160 HD
HETATM    6  C   UNK N   1      34.433  13.981   9.713  0.00  0.00     0.049 A 
HETATM    7  C   UNK N   1      35.358  16.248  10.180  0.00  0.00     0.242 C 
HETATM    8  C   UNK N   1      34.961  13.230  10.843  0.00  0.00     0.020 A 
HETATM    9  C   UNK N   1      36.530  15.734  10.901  0.00  0.00     0.223 C 
HETATM   10  C   UNK N   1      33.718  13.261   8.726  0.00  0.00     0.032 A 
HETATM   11  C   UNK N   1      35.692  13.789  12.065  0.00  0.00     0.051 C 
HETATM   12  C   UNK N   1      34.716  11.844  10.857  0.00  0.00     0.040 A 
HETATM   13  C   UNK N   1      33.517  11.891   8.789  0.00  0.00     0.026 A 
HETATM   14  C   UNK N   1      34.015  11.181   9.861  0.00  0.00     0.035 A 
ENDROOT
BRANCH  11  15
HETATM   15  C   UNK N   1      35.926  12.971  13.323  0.00  0.00    -0.009 A 
HETATM   16  C   UNK N   1      35.026  13.108  14.400  0.00  0.00     0.014 A 
HETATM   17  C   UNK N   1      35.251  12.457  15.617  0.00  0.00     0.001 A 
HETATM   18  C   UNK N   1      36.388  11.666  15.788  0.00  0.00     0.000 A 
HETATM   19  C   UNK N   1      37.289  11.513  14.735  0.00  0.00     0.001 A 
HETATM   20  C   UNK N   1      37.058  12.159  13.517  0.00  0.00     0.014 A 
ENDBRANCH  11  15
BRANCH   3  21
HETATM   21  C   UNK N   1      33.656  15.992   8.472  0.00  0.00     0.137 C 
BRANCH  21  22
HETATM   22  C   UNK N   1      32.240  16.353   8.876  0.00  0.00     0.004 A 
HETATM   23  C   UNK N   1      31.941  17.757   8.378  0.00  0.00     0.007 A 
HETATM   24  C   UNK N   1      31.438  16.562   7.603  0.00  0.00     0.007 A 
ENDBRANCH  21  22
ENDBRANCH   3  21
TORSDOF 3
ENDMDL
MODEL 9
REMARK VINA RESULT:      -6.4      6.220     10.603
REMARK  3 active torsions:
REMARK  status: ('A' for Active; 'I' for Inactive)
REMARK    1  A    between atoms: N_3  and  C_9 
REMARK    2  A    between atoms: C_6  and  C_9 
REMARK    3  A    between atoms: C_15  and  C_18 
ROOT
HETATM    1 Cl   UNK N   1      33.942   9.451  10.148  0.00  0.00    -0.084 Cl
HETATM    2  O   UNK N   1      35.234  17.498  10.048  0.00  0.00    -0.271 OA
HETATM    3  N   UNK N   1      34.502  15.425   9.593  0.00  0.00    -0.315 N 
HETATM    4  N   UNK N   1      36.234  15.053  12.173  0.00  0.00    -0.380 N 
ATOM      5  HN  UNK N   1      36.508  15.452  13.071  1.00  0.00     0.160 HD
HETATM    6  C   UNK N   1      34.494  13.989   9.801  0.00  0.00     0.049 A 
HETATM    7  C   UNK N   1      35.331  16.295  10.242  0.00  0.00     0.242 C 
HETATM    8  C   UNK N   1      35.009  13.281  10.963  0.00  0.00     0.020 A 
HETATM    9  C   UNK N   1      36.495  15.835  11.011  0.00  0.00     0.223 C 
HETATM   10  C   UNK N   1      33.833  13.225   8.809  0.00  0.00     0.032 A 
HETATM   11  C   UNK N   1      35.684  13.891  12.194  0.00  0.00     0.051 C 
HETATM   12  C   UNK N   1      34.808  11.888  11.002  0.00  0.00     0.040 A 
HETATM   13  C   UNK N   1      33.673  11.851   8.898  0.00  0.00     0.026 A 
HETATM   14  C   UNK N   1      34.160  11.181  10.000  0.00  0.00     0.035 A 
ENDROOT
BRANCH  11  15
HETATM   15  C   UNK N   1      35.904  13.109  13.477  0.00  0.00    -0.009 A 
HETATM   16  C   UNK N   1      37.078  12.338  13.610  0.00  0.00     0.014 A 
HETATM   17  C   UNK N   1      37.284  11.521  14.725  0.00  0.00     0.001 A 
HETATM   18  C   UNK N   1      36.314  11.445  15.725  0.00  0.00     0.000 A 
HETATM   19  C   UNK N   1      35.147  12.201  15.617  0.00  0.00     0.001 A 
HETATM   20  C   UNK N   1      34.947  13.023  14.504  0.00  0.00     0.014 A 
ENDBRANCH  11  15
BRANCH   3  21
HETATM   21  C   UNK N   1      33.692  15.946   8.489  0.00  0.00     0.137 C 
BRANCH  21  22
HETATM   22  C   UNK N   1      32.272  16.331   8.857  0.00  0.00     0.004 A 
HETATM   23  C   UNK N   1      32.017  17.747   8.370  0.00  0.00     0.007 A 
HETATM   24  C   UNK N   1      31.513  16.574   7.564  0.00  0.00     0.007 A 
ENDBRANCH  21  22
ENDBRANCH   3  21
TORSDOF 3
ENDMDL
