REMARK  3 active torsions:
REMARK  status: ('A' for Active; 'I' for Inactive)
REMARK    1  A    between atoms: N_3  and  C_9 
REMARK    2  A    between atoms: C_6  and  C_9 
REMARK    3  A    between atoms: C_15  and  C_18 
ROOT
HETATM    1 Cl   UNK N   1       3.195  -4.675   0.003  0.00  0.00    -0.084 Cl
HETATM    2  O   UNK N   1       3.326   3.454  -0.567  0.00  0.00    -0.271 OA
HETATM    3  N   UNK N   1       2.680   1.320  -0.305  0.00  0.00    -0.315 N 
HETATM    4  N   UNK N   1       5.789   1.125  -0.596  0.00  0.00    -0.380 N 
ATOM      5  HN  UNK N   1       6.687   1.554  -0.371  1.00  0.00     0.160 HD
HETATM    6  C   UNK N   1       2.929  -0.109  -0.305  0.00  0.00     0.049 A 
HETATM    7  C   UNK N   1       3.603   2.266  -0.648  0.00  0.00     0.242 C 
HETATM    8  C   UNK N   1       4.230  -0.759  -0.246  0.00  0.00     0.020 A 
HETATM    9  C   UNK N   1       4.859   1.919  -1.326  0.00  0.00     0.223 C 
HETATM   10  C   UNK N   1       1.781  -0.937  -0.266  0.00  0.00     0.032 A 
HETATM   11  C   UNK N   1       5.601  -0.082  -0.193  0.00  0.00     0.051 C 
HETATM   12  C   UNK N   1       4.237  -2.164  -0.156  0.00  0.00     0.040 A 
HETATM   13  C   UNK N   1       1.851  -2.319  -0.187  0.00  0.00     0.026 A 
HETATM   14  C   UNK N   1       3.084  -2.934  -0.129  0.00  0.00     0.035 A 
ENDROOT
BRANCH  11  15
HETATM   15  C   UNK N   1       6.869  -0.831   0.176  0.00  0.00    -0.009 A 
HETATM   16  C   UNK N   1       8.101  -0.145   0.133  0.00  0.00     0.014 A 
HETATM   17  C   UNK N   1       9.308  -0.811   0.364  0.00  0.00     0.001 A 
HETATM   18  C   UNK N   1       9.311  -2.181   0.629  0.00  0.00     0.000 A 
HETATM   19  C   UNK N   1       8.105  -2.879   0.681  0.00  0.00     0.001 A 
HETATM   20  C   UNK N   1       6.899  -2.209   0.457  0.00  0.00     0.014 A 
ENDBRANCH  11  15
BRANCH   3  21
HETATM   21  C   UNK N   1       1.298   1.758  -0.093  0.00  0.00     0.137 C 
BRANCH  21  22
HETATM   22  C   UNK N   1       1.096   2.720   1.062  0.00  0.00     0.004 A 
HETATM   23  C   UNK N   1       0.579   4.036   0.506  0.00  0.00     0.007 A 
HETATM   24  C   UNK N   1      -0.384   3.053   1.128  0.00  0.00     0.007 A 
ENDBRANCH  21  22
ENDBRANCH   3  21
TORSDOF 3
