REMARK  3 active torsions:
REMARK  status: ('A' for Active; 'I' for Inactive)
REMARK    1  A    between atoms: N_7  and  C_13 
REMARK    2  A    between atoms: C_12  and  C_18 
REMARK    3  A    between atoms: C_13  and  C_19 
ROOT
HETATM    1 Cl   UNK N   1       3.337  -4.390   0.716  0.00  0.00    -0.084 Cl
HETATM    2  S   UNK N   1       3.901   3.893  -0.136  0.00  0.00    -0.063 SA
HETATM    3  N   UNK N   1       3.027   1.617   0.425  0.00  0.00    -0.331 N 
HETATM    4  N   UNK N   1       6.175   1.330   0.518  0.00  0.00    -0.382 N 
ATOM      5  HN  UNK N   1       7.106   1.661   0.265  1.00  0.00     0.160 HD
HETATM    6  C   UNK N   1       3.235   0.187   0.569  0.00  0.00     0.048 A 
HETATM    7  C   UNK N   1       4.512  -0.512   0.459  0.00  0.00     0.020 A 
HETATM    8  C   UNK N   1       5.916   0.094   0.260  0.00  0.00     0.054 C 
HETATM    9  C   UNK N   1       4.110   2.538   0.319  0.00  0.00     0.098 C 
HETATM   10  C   UNK N   1       5.305   2.284   1.118  0.00  0.00     0.189 C 
HETATM   11  C   UNK N   1       2.070  -0.592   0.760  0.00  0.00     0.032 A 
HETATM   12  C   UNK N   1       4.462  -1.919   0.517  0.00  0.00     0.040 A 
HETATM   13  C   UNK N   1       2.092  -1.976   0.819  0.00  0.00     0.026 A 
HETATM   14  C   UNK N   1       3.290  -2.641   0.685  0.00  0.00     0.035 A 
ENDROOT
BRANCH   8  15
HETATM   15  C   UNK N   1       7.138  -0.755  -0.098  0.00  0.00     0.030 A 
HETATM   16  C   UNK N   1       8.416  -0.156  -0.295  0.00  0.00     0.128 A 
HETATM   17  F   UNK N   1       8.590   1.188  -0.237  0.00  0.00    -0.205 F 
HETATM   18  C   UNK N   1       9.542  -0.947  -0.551  0.00  0.00     0.043 A 
HETATM   19  C   UNK N   1       9.435  -2.333  -0.615  0.00  0.00     0.003 A 
HETATM   20  C   UNK N   1       8.195  -2.939  -0.438  0.00  0.00     0.001 A 
HETATM   21  C   UNK N   1       7.066  -2.158  -0.186  0.00  0.00     0.017 A 
ENDBRANCH   8  15
BRANCH   3  22
HETATM   22  C   UNK N   1       1.684   2.160   0.639  0.00  0.00     0.247 C 
BRANCH  22  23
HETATM   23  C   UNK N   1       0.788   2.174  -0.597  0.00  0.00     0.403 C 
HETATM   24  F   UNK N   1       0.558   0.896  -1.064  0.00  0.00    -0.169 F 
HETATM   25  F   UNK N   1      -0.422   2.739  -0.239  0.00  0.00    -0.169 F 
HETATM   26  F   UNK N   1       1.356   2.935  -1.599  0.00  0.00    -0.169 F 
ENDBRANCH  22  23
ENDBRANCH   3  22
TORSDOF 3
