MODEL 1
REMARK VINA RESULT:      -7.0      0.000      0.000
REMARK  3 active torsions:
REMARK  status: ('A' for Active; 'I' for Inactive)
REMARK    1  A    between atoms: N_7  and  C_13 
REMARK    2  A    between atoms: C_12  and  C_18 
REMARK    3  A    between atoms: C_13  and  C_19 
ROOT
HETATM    1 Cl   UNK N   1      27.927  18.181   9.376  0.00  0.00    -0.084 Cl
HETATM    2  S   UNK N   1      32.846  16.019   2.990  0.00  0.00    -0.063 SA
HETATM    3  N   UNK N   1      31.865  16.174   5.286  0.00  0.00    -0.331 N 
HETATM    4  N   UNK N   1      29.468  16.818   3.328  0.00  0.00    -0.382 N 
ATOM      5  HN  UNK N   1      29.119  17.111   2.415  1.00  0.00     0.160 HD
HETATM    6  C   UNK N   1      30.805  16.610   6.177  0.00  0.00     0.048 A 
HETATM    7  C   UNK N   1      29.541  17.220   5.776  0.00  0.00     0.020 A 
HETATM    8  C   UNK N   1      29.007  17.456   4.349  0.00  0.00     0.054 C 
HETATM    9  C   UNK N   1      31.707  16.145   3.870  0.00  0.00     0.098 C 
HETATM   10  C   UNK N   1      30.408  15.750   3.334  0.00  0.00     0.189 C 
HETATM   11  C   UNK N   1      31.071  16.493   7.561  0.00  0.00     0.032 A 
HETATM   12  C   UNK N   1      28.707  17.675   6.817  0.00  0.00     0.040 A 
HETATM   13  C   UNK N   1      30.201  16.953   8.537  0.00  0.00     0.026 A 
HETATM   14  C   UNK N   1      29.022  17.556   8.162  0.00  0.00     0.035 A 
ENDROOT
BRANCH   8  15
HETATM   15  C   UNK N   1      27.789  18.336   4.058  0.00  0.00     0.030 A 
HETATM   16  C   UNK N   1      26.521  17.758   3.759  0.00  0.00     0.128 A 
HETATM   17  F   UNK N   1      26.355  16.416   3.657  0.00  0.00    -0.205 F 
HETATM   18  C   UNK N   1      25.396  18.569   3.565  0.00  0.00     0.043 A 
HETATM   19  C   UNK N   1      25.495  19.954   3.664  0.00  0.00     0.003 A 
HETATM   20  C   UNK N   1      26.726  20.540   3.943  0.00  0.00     0.001 A 
HETATM   21  C   UNK N   1      27.853  19.740   4.134  0.00  0.00     0.017 A 
ENDBRANCH   8  15
BRANCH   3  22
HETATM   22  C   UNK N   1      33.040  15.513   5.858  0.00  0.00     0.247 C 
BRANCH  22  23
HETATM   23  C   UNK N   1      34.198  16.445   6.209  0.00  0.00     0.403 C 
HETATM   24  F   UNK N   1      34.408  16.493   7.572  0.00  0.00    -0.169 F 
HETATM   25  F   UNK N   1      35.339  15.952   5.603  0.00  0.00    -0.169 F 
HETATM   26  F   UNK N   1      33.956  17.719   5.735  0.00  0.00    -0.169 F 
ENDBRANCH  22  23
ENDBRANCH   3  22
TORSDOF 3
ENDMDL
MODEL 2
REMARK VINA RESULT:      -6.9      3.414      4.844
REMARK  3 active torsions:
REMARK  status: ('A' for Active; 'I' for Inactive)
REMARK    1  A    between atoms: N_7  and  C_13 
REMARK    2  A    between atoms: C_12  and  C_18 
REMARK    3  A    between atoms: C_13  and  C_19 
ROOT
HETATM    1 Cl   UNK N   1      25.545  14.970   1.166  0.00  0.00    -0.084 Cl
HETATM    2  S   UNK N   1      28.496  18.519   8.119  0.00  0.00    -0.063 SA
HETATM    3  N   UNK N   1      28.344  17.145   6.034  0.00  0.00    -0.331 N 
HETATM    4  N   UNK N   1      26.268  19.494   5.619  0.00  0.00    -0.382 N 
ATOM      5  HN  UNK N   1      25.673  20.232   5.995  1.00  0.00     0.160 HD
HETATM    6  C   UNK N   1      27.639  16.766   4.823  0.00  0.00     0.048 A 
HETATM    7  C   UNK N   1      26.435  17.402   4.294  0.00  0.00     0.020 A 
HETATM    8  C   UNK N   1      25.701  18.647   4.830  0.00  0.00     0.054 C 
HETATM    9  C   UNK N   1      28.017  18.321   6.771  0.00  0.00     0.098 C 
HETATM   10  C   UNK N   1      27.633  19.514   6.022  0.00  0.00     0.189 C 
HETATM   11  C   UNK N   1      28.136  15.628   4.147  0.00  0.00     0.032 A 
HETATM   12  C   UNK N   1      25.851  16.793   3.165  0.00  0.00     0.040 A 
HETATM   13  C   UNK N   1      27.518  15.085   3.032  0.00  0.00     0.026 A 
HETATM   14  C   UNK N   1      26.366  15.663   2.548  0.00  0.00     0.035 A 
ENDROOT
BRANCH   8  15
HETATM   15  C   UNK N   1      24.310  19.058   4.342  0.00  0.00     0.030 A 
HETATM   16  C   UNK N   1      24.149  20.065   3.347  0.00  0.00     0.128 A 
HETATM   17  F   UNK N   1      25.209  20.741   2.839  0.00  0.00    -0.205 F 
HETATM   18  C   UNK N   1      22.878  20.384   2.855  0.00  0.00     0.043 A 
HETATM   19  C   UNK N   1      21.748  19.722   3.326  0.00  0.00     0.003 A 
HETATM   20  C   UNK N   1      21.880  18.744   4.307  0.00  0.00     0.001 A 
HETATM   21  C   UNK N   1      23.143  18.422   4.807  0.00  0.00     0.017 A 
ENDBRANCH   8  15
BRANCH   3  22
HETATM   22  C   UNK N   1      29.582  16.442   6.380  0.00  0.00     0.247 C 
BRANCH  22  23
HETATM   23  C   UNK N   1      30.847  17.011   5.743  0.00  0.00     0.403 C 
HETATM   24  F   UNK N   1      30.546  17.971   4.798  0.00  0.00    -0.169 F 
HETATM   25  F   UNK N   1      31.601  17.596   6.743  0.00  0.00    -0.169 F 
HETATM   26  F   UNK N   1      31.589  16.005   5.156  0.00  0.00    -0.169 F 
ENDBRANCH  22  23
ENDBRANCH   3  22
TORSDOF 3
ENDMDL
MODEL 3
REMARK VINA RESULT:      -6.9      9.088     11.158
REMARK  3 active torsions:
REMARK  status: ('A' for Active; 'I' for Inactive)
REMARK    1  A    between atoms: N_7  and  C_13 
REMARK    2  A    between atoms: C_12  and  C_18 
REMARK    3  A    between atoms: C_13  and  C_19 
ROOT
HETATM    1 Cl   UNK N   1      20.855   9.853   5.686  0.00  0.00    -0.084 Cl
HETATM    2  S   UNK N   1      21.283  18.166   6.295  0.00  0.00    -0.063 SA
HETATM    3  N   UNK N   1      20.715  15.870   5.479  0.00  0.00    -0.331 N 
HETATM    4  N   UNK N   1      21.208  15.535   8.584  0.00  0.00    -0.382 N 
ATOM      5  HN  UNK N   1      21.603  15.869   9.463  1.00  0.00     0.160 HD
HETATM    6  C   UNK N   1      20.699  14.431   5.673  0.00  0.00     0.048 A 
HETATM    7  C   UNK N   1      21.080  13.723   6.892  0.00  0.00     0.020 A 
HETATM    8  C   UNK N   1      21.490  14.322   8.253  0.00  0.00     0.054 C 
HETATM    9  C   UNK N   1      20.957  16.781   6.548  0.00  0.00     0.098 C 
HETATM   10  C   UNK N   1      20.403  16.460   7.860  0.00  0.00     0.189 C 
HETATM   11  C   UNK N   1      20.350  13.657   4.542  0.00  0.00     0.032 A 
HETATM   12  C   UNK N   1      21.100  12.316   6.818  0.00  0.00     0.040 A 
HETATM   13  C   UNK N   1      20.381  12.272   4.540  0.00  0.00     0.026 A 
HETATM   14  C   UNK N   1      20.769  11.601   5.678  0.00  0.00     0.035 A 
ENDROOT
BRANCH   8  15
HETATM   15  C   UNK N   1      22.114  13.482   9.370  0.00  0.00     0.030 A 
HETATM   16  C   UNK N   1      21.312  12.939  10.415  0.00  0.00     0.128 A 
HETATM   17  F   UNK N   1      19.983  13.196  10.501  0.00  0.00    -0.205 F 
HETATM   18  C   UNK N   1      21.879  12.113  11.392  0.00  0.00     0.043 A 
HETATM   19  C   UNK N   1      23.235  11.803  11.359  0.00  0.00     0.003 A 
HETATM   20  C   UNK N   1      24.040  12.331  10.354  0.00  0.00     0.001 A 
HETATM   21  C   UNK N   1      23.484  13.159   9.378  0.00  0.00     0.017 A 
ENDBRANCH   8  15
BRANCH   3  22
HETATM   22  C   UNK N   1      20.230  16.416   4.209  0.00  0.00     0.247 C 
BRANCH  22  23
HETATM   23  C   UNK N   1      21.299  16.604   3.136  0.00  0.00     0.403 C 
HETATM   24  F   UNK N   1      21.040  15.823   2.028  0.00  0.00    -0.169 F 
HETATM   25  F   UNK N   1      21.287  17.933   2.753  0.00  0.00    -0.169 F 
HETATM   26  F   UNK N   1      22.548  16.295   3.636  0.00  0.00    -0.169 F 
ENDBRANCH  22  23
ENDBRANCH   3  22
TORSDOF 3
ENDMDL
MODEL 4
REMARK VINA RESULT:      -6.7     11.305     13.848
REMARK  3 active torsions:
REMARK  status: ('A' for Active; 'I' for Inactive)
REMARK    1  A    between atoms: N_7  and  C_13 
REMARK    2  A    between atoms: C_12  and  C_18 
REMARK    3  A    between atoms: C_13  and  C_19 
ROOT
HETATM    1 Cl   UNK N   1      29.743  19.024  -7.806  0.00  0.00    -0.084 Cl
HETATM    2  S   UNK N   1      28.706  26.599  -4.460  0.00  0.00    -0.063 SA
HETATM    3  N   UNK N   1      28.251  24.444  -5.646  0.00  0.00    -0.331 N 
HETATM    4  N   UNK N   1      30.614  23.794  -3.647  0.00  0.00    -0.382 N 
ATOM      5  HN  UNK N   1      31.387  24.098  -3.055  1.00  0.00     0.160 HD
HETATM    6  C   UNK N   1      28.660  23.103  -6.025  0.00  0.00     0.048 A 
HETATM    7  C   UNK N   1      29.850  22.400  -5.554  0.00  0.00     0.020 A 
HETATM    8  C   UNK N   1      30.877  22.866  -4.501  0.00  0.00     0.054 C 
HETATM    9  C   UNK N   1      28.905  25.176  -4.612  0.00  0.00     0.098 C 
HETATM   10  C   UNK N   1      29.363  24.441  -3.437  0.00  0.00     0.189 C 
HETATM   11  C   UNK N   1      27.858  22.463  -6.999  0.00  0.00     0.032 A 
HETATM   12  C   UNK N   1      30.114  21.150  -6.146  0.00  0.00     0.040 A 
HETATM   13  C   UNK N   1      28.170  21.224  -7.534  0.00  0.00     0.026 A 
HETATM   14  C   UNK N   1      29.307  20.571  -7.115  0.00  0.00     0.035 A 
ENDROOT
BRANCH   8  15
HETATM   15  C   UNK N   1      32.215  22.156  -4.284  0.00  0.00     0.030 A 
HETATM   16  C   UNK N   1      33.313  22.373  -5.167  0.00  0.00     0.128 A 
HETATM   17  F   UNK N   1      33.200  23.161  -6.265  0.00  0.00    -0.205 F 
HETATM   18  C   UNK N   1      34.554  21.776  -4.920  0.00  0.00     0.043 A 
HETATM   19  C   UNK N   1      34.741  20.962  -3.807  0.00  0.00     0.003 A 
HETATM   20  C   UNK N   1      33.680  20.726  -2.938  0.00  0.00     0.001 A 
HETATM   21  C   UNK N   1      32.437  21.314  -3.178  0.00  0.00     0.017 A 
ENDBRANCH   8  15
BRANCH   3  22
HETATM   22  C   UNK N   1      26.985  24.968  -6.162  0.00  0.00     0.247 C 
BRANCH  22  23
HETATM   23  C   UNK N   1      25.747  24.569  -5.363  0.00  0.00     0.403 C 
HETATM   24  F   UNK N   1      26.050  24.375  -4.031  0.00  0.00    -0.169 F 
HETATM   25  F   UNK N   1      24.827  25.596  -5.463  0.00  0.00    -0.169 F 
HETATM   26  F   UNK N   1      25.187  23.418  -5.880  0.00  0.00    -0.169 F 
ENDBRANCH  22  23
ENDBRANCH   3  22
TORSDOF 3
ENDMDL
MODEL 5
REMARK VINA RESULT:      -6.7      2.551      6.602
REMARK  3 active torsions:
REMARK  status: ('A' for Active; 'I' for Inactive)
REMARK    1  A    between atoms: N_7  and  C_13 
REMARK    2  A    between atoms: C_12  and  C_18 
REMARK    3  A    between atoms: C_13  and  C_19 
ROOT
HETATM    1 Cl   UNK N   1      29.392  18.526   9.948  0.00  0.00    -0.084 Cl
HETATM    2  S   UNK N   1      32.681  14.853   3.215  0.00  0.00    -0.063 SA
HETATM    3  N   UNK N   1      31.226  16.272   4.674  0.00  0.00    -0.331 N 
HETATM    4  N   UNK N   1      33.950  15.995   6.257  0.00  0.00    -0.382 N 
ATOM      5  HN  UNK N   1      34.831  15.511   6.434  1.00  0.00     0.160 HD
HETATM    6  C   UNK N   1      30.930  16.858   5.969  0.00  0.00     0.048 A 
HETATM    7  C   UNK N   1      31.782  16.805   7.153  0.00  0.00     0.020 A 
HETATM    8  C   UNK N   1      33.199  16.210   7.282  0.00  0.00     0.054 C 
HETATM    9  C   UNK N   1      32.498  15.703   4.368  0.00  0.00     0.098 C 
HETATM   10  C   UNK N   1      33.687  16.357   4.906  0.00  0.00     0.189 C 
HETATM   11  C   UNK N   1      29.661  17.469   6.096  0.00  0.00     0.032 A 
HETATM   12  C   UNK N   1      31.241  17.342   8.338  0.00  0.00     0.040 A 
HETATM   13  C   UNK N   1      29.192  17.989   7.292  0.00  0.00     0.026 A 
HETATM   14  C   UNK N   1      29.980  17.913   8.418  0.00  0.00     0.035 A 
ENDROOT
BRANCH   8  15
HETATM   15  C   UNK N   1      33.880  15.985   8.634  0.00  0.00     0.030 A 
HETATM   16  C   UNK N   1      34.693  16.996   9.223  0.00  0.00     0.128 A 
HETATM   17  F   UNK N   1      34.948  18.167   8.587  0.00  0.00    -0.205 F 
HETATM   18  C   UNK N   1      35.253  16.810  10.492  0.00  0.00     0.043 A 
HETATM   19  C   UNK N   1      35.024  15.636  11.203  0.00  0.00     0.003 A 
HETATM   20  C   UNK N   1      34.244  14.630  10.642  0.00  0.00     0.001 A 
HETATM   21  C   UNK N   1      33.684  14.805   9.375  0.00  0.00     0.017 A 
ENDBRANCH   8  15
BRANCH   3  22
HETATM   22  C   UNK N   1      30.287  16.484   3.571  0.00  0.00     0.247 C 
BRANCH  22  23
HETATM   23  C   UNK N   1      29.205  15.416   3.430  0.00  0.00     0.403 C 
HETATM   24  F   UNK N   1      27.946  15.951   3.607  0.00  0.00    -0.169 F 
HETATM   25  F   UNK N   1      29.288  14.893   2.152  0.00  0.00    -0.169 F 
HETATM   26  F   UNK N   1      29.405  14.399   4.341  0.00  0.00    -0.169 F 
ENDBRANCH  22  23
ENDBRANCH   3  22
TORSDOF 3
ENDMDL
MODEL 6
REMARK VINA RESULT:      -6.7     11.850     14.672
REMARK  3 active torsions:
REMARK  status: ('A' for Active; 'I' for Inactive)
REMARK    1  A    between atoms: N_7  and  C_13 
REMARK    2  A    between atoms: C_12  and  C_18 
REMARK    3  A    between atoms: C_13  and  C_19 
ROOT
HETATM    1 Cl   UNK N   1      26.054  20.784  -8.181  0.00  0.00    -0.084 Cl
HETATM    2  S   UNK N   1      28.921  27.943  -4.989  0.00  0.00    -0.063 SA
HETATM    3  N   UNK N   1      27.386  26.217  -5.950  0.00  0.00    -0.331 N 
HETATM    4  N   UNK N   1      29.682  24.570  -4.531  0.00  0.00    -0.382 N 
ATOM      5  HN  UNK N   1      30.625  24.508  -4.148  1.00  0.00     0.160 HD
HETATM    6  C   UNK N   1      27.128  24.848  -6.361  0.00  0.00     0.048 A 
HETATM    7  C   UNK N   1      28.012  23.706  -6.151  0.00  0.00     0.020 A 
HETATM    8  C   UNK N   1      29.350  23.664  -5.386  0.00  0.00     0.054 C 
HETATM    9  C   UNK N   1      28.495  26.569  -5.127  0.00  0.00     0.098 C 
HETATM   10  C   UNK N   1      28.878  25.647  -4.063  0.00  0.00     0.189 C 
HETATM   11  C   UNK N   1      25.938  24.636  -7.095  0.00  0.00     0.032 A 
HETATM   12  C   UNK N   1      27.612  22.489  -6.739  0.00  0.00     0.040 A 
HETATM   13  C   UNK N   1      25.598  23.408  -7.639  0.00  0.00     0.026 A 
HETATM   14  C   UNK N   1      26.443  22.335  -7.470  0.00  0.00     0.035 A 
ENDROOT
BRANCH   8  15
HETATM   15  C   UNK N   1      30.305  22.470  -5.458  0.00  0.00     0.030 A 
HETATM   16  C   UNK N   1      30.393  21.535  -4.387  0.00  0.00     0.128 A 
HETATM   17  F   UNK N   1      29.688  21.696  -3.240  0.00  0.00    -0.205 F 
HETATM   18  C   UNK N   1      31.216  20.407  -4.491  0.00  0.00     0.043 A 
HETATM   19  C   UNK N   1      31.960  20.177  -5.644  0.00  0.00     0.003 A 
HETATM   20  C   UNK N   1      31.899  21.083  -6.698  0.00  0.00     0.001 A 
HETATM   21  C   UNK N   1      31.085  22.213  -6.602  0.00  0.00     0.017 A 
ENDBRANCH   8  15
BRANCH   3  22
HETATM   22  C   UNK N   1      26.353  27.229  -6.178  0.00  0.00     0.247 C 
BRANCH  22  23
HETATM   23  C   UNK N   1      25.356  27.404  -5.035  0.00  0.00     0.403 C 
HETATM   24  F   UNK N   1      25.490  28.641  -4.438  0.00  0.00    -0.169 F 
HETATM   25  F   UNK N   1      24.082  27.302  -5.563  0.00  0.00    -0.169 F 
HETATM   26  F   UNK N   1      25.526  26.414  -4.088  0.00  0.00    -0.169 F 
ENDBRANCH  22  23
ENDBRANCH   3  22
TORSDOF 3
ENDMDL
MODEL 7
REMARK VINA RESULT:      -6.6      3.157      6.992
REMARK  3 active torsions:
REMARK  status: ('A' for Active; 'I' for Inactive)
REMARK    1  A    between atoms: N_7  and  C_13 
REMARK    2  A    between atoms: C_12  and  C_18 
REMARK    3  A    between atoms: C_13  and  C_19 
ROOT
HETATM    1 Cl   UNK N   1      32.722  14.665   3.371  0.00  0.00    -0.084 Cl
HETATM    2  S   UNK N   1      27.387  20.059   6.849  0.00  0.00    -0.063 SA
HETATM    3  N   UNK N   1      28.363  18.332   5.325  0.00  0.00    -0.331 N 
HETATM    4  N   UNK N   1      29.923  17.989   8.054  0.00  0.00    -0.382 N 
ATOM      5  HN  UNK N   1      30.228  18.355   8.956  1.00  0.00     0.160 HD
HETATM    6  C   UNK N   1      29.421  17.393   4.997  0.00  0.00     0.048 A 
HETATM    7  C   UNK N   1      30.555  17.044   5.847  0.00  0.00     0.020 A 
HETATM    8  C   UNK N   1      30.842  17.506   7.290  0.00  0.00     0.054 C 
HETATM    9  C   UNK N   1      28.229  18.908   6.622  0.00  0.00     0.098 C 
HETATM   10  C   UNK N   1      28.529  18.067   7.778  0.00  0.00     0.189 C 
HETATM   11  C   UNK N   1      29.370  16.832   3.700  0.00  0.00     0.032 A 
HETATM   12  C   UNK N   1      31.527  16.198   5.278  0.00  0.00     0.040 A 
HETATM   13  C   UNK N   1      30.357  15.995   3.204  0.00  0.00     0.026 A 
HETATM   14  C   UNK N   1      31.444  15.687   3.991  0.00  0.00     0.035 A 
ENDROOT
BRANCH   8  15
HETATM   15  C   UNK N   1      32.191  17.277   7.977  0.00  0.00     0.030 A 
HETATM   16  C   UNK N   1      32.452  16.078   8.700  0.00  0.00     0.128 A 
HETATM   17  F   UNK N   1      31.503  15.123   8.864  0.00  0.00    -0.205 F 
HETATM   18  C   UNK N   1      33.712  15.845   9.264  0.00  0.00     0.043 A 
HETATM   19  C   UNK N   1      34.733  16.780   9.127  0.00  0.00     0.003 A 
HETATM   20  C   UNK N   1      34.497  17.964   8.435  0.00  0.00     0.001 A 
HETATM   21  C   UNK N   1      33.243  18.206   7.873  0.00  0.00     0.017 A 
ENDBRANCH   8  15
BRANCH   3  22
HETATM   22  C   UNK N   1      27.258  18.509   4.380  0.00  0.00     0.247 C 
BRANCH  22  23
HETATM   23  C   UNK N   1      26.080  17.560   4.577  0.00  0.00     0.403 C 
HETATM   24  F   UNK N   1      24.967  18.231   5.042  0.00  0.00    -0.169 F 
HETATM   25  F   UNK N   1      25.777  16.996   3.352  0.00  0.00    -0.169 F 
HETATM   26  F   UNK N   1      26.411  16.553   5.461  0.00  0.00    -0.169 F 
ENDBRANCH  22  23
ENDBRANCH   3  22
TORSDOF 3
ENDMDL
MODEL 8
REMARK VINA RESULT:      -6.6      3.343      7.116
REMARK  3 active torsions:
REMARK  status: ('A' for Active; 'I' for Inactive)
REMARK    1  A    between atoms: N_7  and  C_13 
REMARK    2  A    between atoms: C_12  and  C_18 
REMARK    3  A    between atoms: C_13  and  C_19 
ROOT
HETATM    1 Cl   UNK N   1      32.496  14.936   3.233  0.00  0.00    -0.084 Cl
HETATM    2  S   UNK N   1      27.449  19.684   7.886  0.00  0.00    -0.063 SA
HETATM    3  N   UNK N   1      28.329  18.282   6.010  0.00  0.00    -0.331 N 
HETATM    4  N   UNK N   1      29.901  17.299   8.572  0.00  0.00    -0.382 N 
ATOM      5  HN  UNK N   1      30.231  17.450   9.524  1.00  0.00     0.160 HD
HETATM    6  C   UNK N   1      29.340  17.391   5.468  0.00  0.00     0.048 A 
HETATM    7  C   UNK N   1      30.466  16.821   6.202  0.00  0.00     0.020 A 
HETATM    8  C   UNK N   1      30.789  16.952   7.704  0.00  0.00     0.054 C 
HETATM    9  C   UNK N   1      28.235  18.573   7.402  0.00  0.00     0.098 C 
HETATM   10  C   UNK N   1      28.508  17.493   8.346  0.00  0.00     0.189 C 
HETATM   11  C   UNK N   1      29.250  17.122   4.083  0.00  0.00     0.032 A 
HETATM   12  C   UNK N   1      31.392  16.075   5.446  0.00  0.00     0.040 A 
HETATM   13  C   UNK N   1      30.192  16.370   3.400  0.00  0.00     0.026 A 
HETATM   14  C   UNK N   1      31.272  15.856   4.082  0.00  0.00     0.035 A 
ENDROOT
BRANCH   8  15
HETATM   15  C   UNK N   1      32.132  16.525   8.300  0.00  0.00     0.030 A 
HETATM   16  C   UNK N   1      33.206  17.453   8.431  0.00  0.00     0.128 A 
HETATM   17  F   UNK N   1      33.105  18.728   7.979  0.00  0.00    -0.205 F 
HETATM   18  C   UNK N   1      34.406  17.073   9.042  0.00  0.00     0.043 A 
HETATM   19  C   UNK N   1      34.573  15.782   9.536  0.00  0.00     0.003 A 
HETATM   20  C   UNK N   1      33.543  14.855   9.408  0.00  0.00     0.001 A 
HETATM   21  C   UNK N   1      32.344  15.225   8.796  0.00  0.00     0.017 A 
ENDBRANCH   8  15
BRANCH   3  22
HETATM   22  C   UNK N   1      27.224  18.704   5.146  0.00  0.00     0.247 C 
BRANCH  22  23
HETATM   23  C   UNK N   1      27.430  20.041   4.439  0.00  0.00     0.403 C 
HETATM   24  F   UNK N   1      27.111  19.954   3.099  0.00  0.00    -0.169 F 
HETATM   25  F   UNK N   1      26.596  20.970   5.034  0.00  0.00    -0.169 F 
HETATM   26  F   UNK N   1      28.737  20.465   4.575  0.00  0.00    -0.169 F 
ENDBRANCH  22  23
ENDBRANCH   3  22
TORSDOF 3
ENDMDL
MODEL 9
REMARK VINA RESULT:      -6.6      2.847      6.246
REMARK  3 active torsions:
REMARK  status: ('A' for Active; 'I' for Inactive)
REMARK    1  A    between atoms: N_7  and  C_13 
REMARK    2  A    between atoms: C_12  and  C_18 
REMARK    3  A    between atoms: C_13  and  C_19 
ROOT
HETATM    1 Cl   UNK N   1      27.710  20.789   5.340  0.00  0.00    -0.084 Cl
HETATM    2  S   UNK N   1      28.086  12.499   4.459  0.00  0.00    -0.063 SA
HETATM    3  N   UNK N   1      27.380  14.885   4.203  0.00  0.00    -0.331 N 
HETATM    4  N   UNK N   1      30.432  15.019   5.019  0.00  0.00    -0.382 N 
ATOM      5  HN  UNK N   1      31.262  14.593   5.432  1.00  0.00     0.160 HD
HETATM    6  C   UNK N   1      27.608  16.299   4.439  0.00  0.00     0.048 A 
HETATM    7  C   UNK N   1      28.801  16.890   5.038  0.00  0.00     0.020 A 
HETATM    8  C   UNK N   1      30.103  16.182   5.465  0.00  0.00     0.054 C 
HETATM    9  C   UNK N   1      28.400  13.907   4.388  0.00  0.00     0.098 C 
HETATM   10  C   UNK N   1      29.765  14.263   4.013  0.00  0.00     0.189 C 
HETATM   11  C   UNK N   1      26.532  17.161   4.121  0.00  0.00     0.032 A 
HETATM   12  C   UNK N   1      28.758  18.277   5.281  0.00  0.00     0.040 A 
HETATM   13  C   UNK N   1      26.559  18.523   4.378  0.00  0.00     0.026 A 
HETATM   14  C   UNK N   1      27.670  19.079   4.970  0.00  0.00     0.035 A 
ENDROOT
BRANCH   8  15
HETATM   15  C   UNK N   1      31.175  16.869   6.315  0.00  0.00     0.030 A 
HETATM   16  C   UNK N   1      30.937  17.181   7.685  0.00  0.00     0.128 A 
HETATM   17  F   UNK N   1      29.738  16.943   8.273  0.00  0.00    -0.205 F 
HETATM   18  C   UNK N   1      31.948  17.743   8.473  0.00  0.00     0.043 A 
HETATM   19  C   UNK N   1      33.204  18.005   7.935  0.00  0.00     0.003 A 
HETATM   20  C   UNK N   1      33.455  17.720   6.596  0.00  0.00     0.001 A 
HETATM   21  C   UNK N   1      32.452  17.163   5.801  0.00  0.00     0.017 A 
ENDBRANCH   8  15
BRANCH   3  22
HETATM   22  C   UNK N   1      26.150  14.472   3.524  0.00  0.00     0.247 C 
BRANCH  22  23
HETATM   23  C   UNK N   1      26.235  14.433   2.000  0.00  0.00     0.403 C 
HETATM   24  F   UNK N   1      27.419  14.980   1.550  0.00  0.00    -0.169 F 
HETATM   25  F   UNK N   1      26.180  13.109   1.604  0.00  0.00    -0.169 F 
HETATM   26  F   UNK N   1      25.172  15.111   1.437  0.00  0.00    -0.169 F 
ENDBRANCH  22  23
ENDBRANCH   3  22
TORSDOF 3
ENDMDL
