REMARK  1 active torsions:
REMARK  status: ('A' for Active; 'I' for Inactive)
REMARK    1  A    between atoms: C_11  and  C_14 
ROOT
HETATM    1 Cl   UNK N   1      -0.228  -0.837   0.000  0.00  0.00    -0.084 Cl
HETATM    2  N   UNK N   1       5.532  -2.533  -0.000  0.00  0.00    -0.293 N 
HETATM    3  N   UNK N   1       6.044   0.507   0.003  0.00  0.00    -0.381 N 
ATOM      4  HN  UNK N   1       6.453   1.442   0.002  1.00  0.00     0.160 HD
HETATM    5  N   UNK N   1       7.721  -2.852   0.002  0.00  0.00    -0.286 N 
ATOM      6  HN  UNK N   1       8.722  -2.659   0.004  1.00  0.00     0.188 HD
HETATM    7  N   UNK N   1       7.154  -4.044  -0.001  0.00  0.00    -0.294 N 
ATOM      8  HN  UNK N   1       7.637  -4.942  -0.003  1.00  0.00     0.187 HD
HETATM    9  C   UNK N   1       4.184  -2.030  -0.000  0.00  0.00     0.054 A 
HETATM   10  C   UNK N   1       3.822  -0.643  -0.000  0.00  0.00     0.020 A 
HETATM   11  C   UNK N   1       4.753   0.567  -0.000  0.00  0.00     0.051 A 
HETATM   12  C   UNK N   1       6.736  -1.937   0.002  0.00  0.00     0.121 A 
HETATM   13  C   UNK N   1       7.065  -0.503   0.006  0.00  0.00     0.198 A 
HETATM   14  C   UNK N   1       3.152  -3.000  -0.000  0.00  0.00     0.032 A 
HETATM   15  C   UNK N   1       2.444  -0.357  -0.000  0.00  0.00     0.040 A 
HETATM   16  C   UNK N   1       5.824  -3.855  -0.002  0.00  0.00     0.206 A 
HETATM   17  C   UNK N   1       1.806  -2.656   0.000  0.00  0.00     0.026 A 
HETATM   18  C   UNK N   1       1.454  -1.322   0.000  0.00  0.00     0.035 A 
ENDROOT
BRANCH  11  19
HETATM   19  C   UNK N   1       4.209   1.986  -0.002  0.00  0.00    -0.009 A 
HETATM   20  C   UNK N   1       5.123   3.059  -0.000  0.00  0.00     0.014 A 
HETATM   21  C   UNK N   1       4.682   4.384  -0.000  0.00  0.00     0.001 A 
HETATM   22  C   UNK N   1       3.316   4.666  -0.001  0.00  0.00     0.000 A 
HETATM   23  C   UNK N   1       2.393   3.623  -0.003  0.00  0.00     0.001 A 
HETATM   24  C   UNK N   1       2.837   2.300  -0.003  0.00  0.00     0.014 A 
ENDBRANCH  11  19
TORSDOF 1
