MODEL 1
REMARK VINA RESULT:      -7.3      0.000      0.000
REMARK  1 active torsions:
REMARK  status: ('A' for Active; 'I' for Inactive)
REMARK    1  A    between atoms: C_11  and  C_14 
ROOT
HETATM    1 Cl   UNK N   1      24.533  15.015   6.835  0.00  0.00    -0.084 Cl
HETATM    2  N   UNK N   1      20.849  18.228   3.348  0.00  0.00    -0.293 N 
HETATM    3  N   UNK N   1      23.270  20.130   3.176  0.00  0.00    -0.381 N 
ATOM      4  HN  UNK N   1      23.916  20.893   2.976  1.00  0.00     0.160 HD
HETATM    5  N   UNK N   1      19.730  19.613   2.035  0.00  0.00    -0.286 N 
ATOM      6  HN  UNK N   1      19.511  20.418   1.449  1.00  0.00     0.188 HD
HETATM    7  N   UNK N   1      18.922  18.609   2.321  0.00  0.00    -0.294 N 
ATOM      8  HN  UNK N   1      17.962  18.497   1.997  1.00  0.00     0.187 HD
HETATM    9  C   UNK N   1      21.803  17.530   4.168  0.00  0.00     0.054 A 
HETATM   10  C   UNK N   1      23.136  17.977   4.444  0.00  0.00     0.020 A 
HETATM   11  C   UNK N   1      23.819  19.249   3.946  0.00  0.00     0.051 A 
HETATM   12  C   UNK N   1      20.898  19.380   2.659  0.00  0.00     0.121 A 
HETATM   13  C   UNK N   1      22.007  20.338   2.524  0.00  0.00     0.198 A 
HETATM   14  C   UNK N   1      21.366  16.308   4.737  0.00  0.00     0.032 A 
HETATM   15  C   UNK N   1      23.915  17.148   5.273  0.00  0.00     0.040 A 
HETATM   16  C   UNK N   1      19.598  17.765   3.118  0.00  0.00     0.206 A 
HETATM   17  C   UNK N   1      22.182  15.531   5.550  0.00  0.00     0.026 A 
HETATM   18  C   UNK N   1      23.466  15.959   5.817  0.00  0.00     0.035 A 
ENDROOT
BRANCH  11  19
HETATM   19  C   UNK N   1      25.249  19.584   4.332  0.00  0.00    -0.009 A 
HETATM   20  C   UNK N   1      26.301  18.992   3.605  0.00  0.00     0.014 A 
HETATM   21  C   UNK N   1      27.636  19.261   3.915  0.00  0.00     0.001 A 
HETATM   22  C   UNK N   1      27.949  20.129   4.962  0.00  0.00     0.000 A 
HETATM   23  C   UNK N   1      26.927  20.727   5.695  0.00  0.00     0.001 A 
HETATM   24  C   UNK N   1      25.594  20.456   5.382  0.00  0.00     0.014 A 
ENDBRANCH  11  19
TORSDOF 1
ENDMDL
MODEL 2
REMARK VINA RESULT:      -7.1      6.615      9.145
REMARK  1 active torsions:
REMARK  status: ('A' for Active; 'I' for Inactive)
REMARK    1  A    between atoms: C_11  and  C_14 
ROOT
HETATM    1 Cl   UNK N   1      32.927  15.335   3.618  0.00  0.00    -0.084 Cl
HETATM    2  N   UNK N   1      28.806  18.356   6.771  0.00  0.00    -0.293 N 
HETATM    3  N   UNK N   1      30.615  17.608   9.152  0.00  0.00    -0.381 N 
ATOM      4  HN  UNK N   1      31.041  17.485  10.071  1.00  0.00     0.160 HD
HETATM    5  N   UNK N   1      27.462  19.402   8.183  0.00  0.00    -0.286 N 
ATOM      6  HN  UNK N   1      27.079  19.773   9.052  1.00  0.00     0.188 HD
HETATM    7  N   UNK N   1      26.940  19.535   6.978  0.00  0.00    -0.294 N 
ATOM      8  HN  UNK N   1      26.079  20.028   6.745  1.00  0.00     0.187 HD
HETATM    9  C   UNK N   1      29.842  17.615   6.103  0.00  0.00     0.054 A 
HETATM   10  C   UNK N   1      30.974  17.016   6.748  0.00  0.00     0.020 A 
HETATM   11  C   UNK N   1      31.319  17.031   8.235  0.00  0.00     0.051 A 
HETATM   12  C   UNK N   1      28.593  18.686   8.056  0.00  0.00     0.121 A 
HETATM   13  C   UNK N   1      29.402  18.373   9.243  0.00  0.00     0.198 A 
HETATM   14  C   UNK N   1      29.713  17.480   4.699  0.00  0.00     0.032 A 
HETATM   15  C   UNK N   1      31.878  16.332   5.915  0.00  0.00     0.040 A 
HETATM   16  C   UNK N   1      27.753  18.902   6.117  0.00  0.00     0.206 A 
HETATM   17  C   UNK N   1      30.640  16.791   3.928  0.00  0.00     0.026 A 
HETATM   18  C   UNK N   1      31.731  16.214   4.545  0.00  0.00     0.035 A 
ENDROOT
BRANCH  11  19
HETATM   19  C   UNK N   1      32.565  16.342   8.767  0.00  0.00    -0.009 A 
HETATM   20  C   UNK N   1      33.739  17.105   8.931  0.00  0.00     0.014 A 
HETATM   21  C   UNK N   1      34.915  16.526   9.414  0.00  0.00     0.001 A 
HETATM   22  C   UNK N   1      34.943  15.171   9.743  0.00  0.00     0.000 A 
HETATM   23  C   UNK N   1      33.796  14.396   9.589  0.00  0.00     0.001 A 
HETATM   24  C   UNK N   1      32.622  14.978   9.106  0.00  0.00     0.014 A 
ENDBRANCH  11  19
TORSDOF 1
ENDMDL
MODEL 3
REMARK VINA RESULT:      -7.0      4.822      7.570
REMARK  1 active torsions:
REMARK  status: ('A' for Active; 'I' for Inactive)
REMARK    1  A    between atoms: C_11  and  C_14 
ROOT
HETATM    1 Cl   UNK N   1      28.609  15.274   1.991  0.00  0.00    -0.084 Cl
HETATM    2  N   UNK N   1      29.798  17.302   7.516  0.00  0.00    -0.293 N 
HETATM    3  N   UNK N   1      27.549  19.308   6.865  0.00  0.00    -0.381 N 
ATOM      4  HN  UNK N   1      26.855  20.056   6.878  1.00  0.00     0.160 HD
HETATM    5  N   UNK N   1      30.008  18.258   9.500  0.00  0.00    -0.286 N 
ATOM      6  HN  UNK N   1      29.854  18.889  10.286  1.00  0.00     0.188 HD
HETATM    7  N   UNK N   1      30.895  17.283   9.442  0.00  0.00    -0.294 N 
ATOM      8  HN  UNK N   1      31.553  17.021  10.176  1.00  0.00     0.187 HD
HETATM    9  C   UNK N   1      29.441  16.888   6.185  0.00  0.00     0.054 A 
HETATM   10  C   UNK N   1      28.423  17.494   5.379  0.00  0.00     0.020 A 
HETATM   11  C   UNK N   1      27.520  18.672   5.740  0.00  0.00     0.051 A 
HETATM   12  C   UNK N   1      29.344  18.269   8.331  0.00  0.00     0.121 A 
HETATM   13  C   UNK N   1      28.280  19.259   8.099  0.00  0.00     0.198 A 
HETATM   14  C   UNK N   1      30.168  15.796   5.652  0.00  0.00     0.032 A 
HETATM   15  C   UNK N   1      28.226  16.940   4.100  0.00  0.00     0.040 A 
HETATM   16  C   UNK N   1      30.771  16.699   8.239  0.00  0.00     0.206 A 
HETATM   17  C   UNK N   1      29.928  15.292   4.380  0.00  0.00     0.026 A 
HETATM   18  C   UNK N   1      28.949  15.872   3.601  0.00  0.00     0.035 A 
ENDROOT
BRANCH  11  19
HETATM   19  C   UNK N   1      26.481  19.202   4.766  0.00  0.00    -0.009 A 
HETATM   20  C   UNK N   1      26.877  20.163   3.814  0.00  0.00     0.014 A 
HETATM   21  C   UNK N   1      25.966  20.688   2.895  0.00  0.00     0.001 A 
HETATM   22  C   UNK N   1      24.638  20.264   2.908  0.00  0.00     0.000 A 
HETATM   23  C   UNK N   1      24.222  19.315   3.839  0.00  0.00     0.001 A 
HETATM   24  C   UNK N   1      25.135  18.792   4.756  0.00  0.00     0.014 A 
ENDBRANCH  11  19
TORSDOF 1
ENDMDL
MODEL 4
REMARK VINA RESULT:      -6.7     11.322     13.202
REMARK  1 active torsions:
REMARK  status: ('A' for Active; 'I' for Inactive)
REMARK    1  A    between atoms: C_11  and  C_14 
ROOT
HETATM    1 Cl   UNK N   1      33.561  26.538  -4.830  0.00  0.00    -0.084 Cl
HETATM    2  N   UNK N   1      27.784  27.684  -3.660  0.00  0.00    -0.293 N 
HETATM    3  N   UNK N   1      27.540  24.612  -3.740  0.00  0.00    -0.381 N 
ATOM      4  HN  UNK N   1      27.219  23.644  -3.720  1.00  0.00     0.160 HD
HETATM    5  N   UNK N   1      25.617  27.796  -3.232  0.00  0.00    -0.286 N 
ATOM      6  HN  UNK N   1      24.654  27.510  -3.056  1.00  0.00     0.188 HD
HETATM    7  N   UNK N   1      26.070  29.035  -3.271  0.00  0.00    -0.294 N 
ATOM      8  HN  UNK N   1      25.522  29.883  -3.130  1.00  0.00     0.187 HD
HETATM    9  C   UNK N   1      29.145  27.311  -3.940  0.00  0.00     0.054 A 
HETATM   10  C   UNK N   1      29.616  25.965  -4.089  0.00  0.00     0.020 A 
HETATM   11  C   UNK N   1      28.807  24.674  -3.987  0.00  0.00     0.051 A 
HETATM   12  C   UNK N   1      26.657  26.978  -3.469  0.00  0.00     0.121 A 
HETATM   13  C   UNK N   1      26.457  25.521  -3.488  0.00  0.00     0.198 A 
HETATM   14  C   UNK N   1      30.073  28.372  -4.075  0.00  0.00     0.032 A 
HETATM   15  C   UNK N   1      30.988  25.810  -4.362  0.00  0.00     0.040 A 
HETATM   16  C   UNK N   1      27.387  28.972  -3.530  0.00  0.00     0.206 A 
HETATM   17  C   UNK N   1      31.418  28.157  -4.345  0.00  0.00     0.026 A 
HETATM   18  C   UNK N   1      31.875  26.863  -4.489  0.00  0.00     0.035 A 
ENDROOT
BRANCH  11  19
HETATM   19  C   UNK N   1      29.459  23.314  -4.173  0.00  0.00    -0.009 A 
HETATM   20  C   UNK N   1      30.066  22.698  -3.060  0.00  0.00     0.014 A 
HETATM   21  C   UNK N   1      30.681  21.449  -3.171  0.00  0.00     0.001 A 
HETATM   22  C   UNK N   1      30.704  20.788  -4.399  0.00  0.00     0.000 A 
HETATM   23  C   UNK N   1      30.111  21.376  -5.514  0.00  0.00     0.001 A 
HETATM   24  C   UNK N   1      29.497  22.624  -5.399  0.00  0.00     0.014 A 
ENDBRANCH  11  19
TORSDOF 1
ENDMDL
MODEL 5
REMARK VINA RESULT:      -6.6     11.593     12.968
REMARK  1 active torsions:
REMARK  status: ('A' for Active; 'I' for Inactive)
REMARK    1  A    between atoms: C_11  and  C_14 
ROOT
HETATM    1 Cl   UNK N   1      26.693  22.708  -8.514  0.00  0.00    -0.084 Cl
HETATM    2  N   UNK N   1      30.996  21.051  -4.667  0.00  0.00    -0.293 N 
HETATM    3  N   UNK N   1      30.144  23.616  -3.184  0.00  0.00    -0.381 N 
ATOM      4  HN  UNK N   1      30.043  24.397  -2.535  1.00  0.00     0.160 HD
HETATM    5  N   UNK N   1      32.504  20.698  -3.088  0.00  0.00    -0.286 N 
ATOM      6  HN  UNK N   1      33.062  20.824  -2.244  1.00  0.00     0.188 HD
HETATM    7  N   UNK N   1      32.608  19.707  -3.954  0.00  0.00    -0.294 N 
ATOM      8  HN  UNK N   1      33.262  18.926  -3.902  1.00  0.00     0.187 HD
HETATM    9  C   UNK N   1      29.948  21.529  -5.530  0.00  0.00     0.054 A 
HETATM   10  C   UNK N   1      29.183  22.722  -5.314  0.00  0.00     0.020 A 
HETATM   11  C   UNK N   1      29.306  23.717  -4.162  0.00  0.00     0.051 A 
HETATM   12  C   UNK N   1      31.527  21.513  -3.523  0.00  0.00     0.121 A 
HETATM   13  C   UNK N   1      31.179  22.718  -2.754  0.00  0.00     0.198 A 
HETATM   14  C   UNK N   1      29.669  20.743  -6.674  0.00  0.00     0.032 A 
HETATM   15  C   UNK N   1      28.200  23.017  -6.277  0.00  0.00     0.040 A 
HETATM   16  C   UNK N   1      31.693  19.917  -4.915  0.00  0.00     0.206 A 
HETATM   17  C   UNK N   1      28.684  21.085  -7.591  0.00  0.00     0.026 A 
HETATM   18  C   UNK N   1      27.946  22.233  -7.387  0.00  0.00     0.035 A 
ENDROOT
BRANCH  11  19
HETATM   19  C   UNK N   1      28.415  24.945  -4.077  0.00  0.00    -0.009 A 
HETATM   20  C   UNK N   1      28.942  26.190  -4.474  0.00  0.00     0.014 A 
HETATM   21  C   UNK N   1      28.171  27.353  -4.416  0.00  0.00     0.001 A 
HETATM   22  C   UNK N   1      26.855  27.297  -3.959  0.00  0.00     0.000 A 
HETATM   23  C   UNK N   1      26.311  26.078  -3.560  0.00  0.00     0.001 A 
HETATM   24  C   UNK N   1      27.084  24.918  -3.619  0.00  0.00     0.014 A 
ENDBRANCH  11  19
TORSDOF 1
ENDMDL
MODEL 6
REMARK VINA RESULT:      -6.5     17.538     19.687
REMARK  1 active torsions:
REMARK  status: ('A' for Active; 'I' for Inactive)
REMARK    1  A    between atoms: C_11  and  C_14 
ROOT
HETATM    1 Cl   UNK N   1      34.923  11.466  19.961  0.00  0.00    -0.084 Cl
HETATM    2  N   UNK N   1      36.493  13.082  14.395  0.00  0.00    -0.293 N 
HETATM    3  N   UNK N   1      37.199  10.093  14.123  0.00  0.00    -0.381 N 
ATOM      4  HN  UNK N   1      37.500   9.172  13.802  1.00  0.00     0.160 HD
HETATM    5  N   UNK N   1      37.145  13.376  12.301  0.00  0.00    -0.286 N 
ATOM      6  HN  UNK N   1      37.503  13.177  11.368  1.00  0.00     0.188 HD
HETATM    7  N   UNK N   1      36.751  14.551  12.755  0.00  0.00    -0.294 N 
ATOM      8  HN  UNK N   1      36.749  15.429  12.236  1.00  0.00     0.187 HD
HETATM    9  C   UNK N   1      36.144  12.600  15.705  0.00  0.00     0.054 A 
HETATM   10  C   UNK N   1      36.274  11.241  16.144  0.00  0.00     0.020 A 
HETATM   11  C   UNK N   1      36.793  10.046  15.349  0.00  0.00     0.051 A 
HETATM   12  C   UNK N   1      36.989  12.486  13.297  0.00  0.00     0.121 A 
HETATM   13  C   UNK N   1      37.348  11.075  13.086  0.00  0.00     0.198 A 
HETATM   14  C   UNK N   1      35.636  13.560  16.612  0.00  0.00     0.032 A 
HETATM   15  C   UNK N   1      35.878  10.972  17.468  0.00  0.00     0.040 A 
HETATM   16  C   UNK N   1      36.353  14.377  14.026  0.00  0.00     0.206 A 
HETATM   17  C   UNK N   1      35.260  13.234  17.909  0.00  0.00     0.026 A 
HETATM   18  C   UNK N   1      35.383  11.928  18.336  0.00  0.00     0.035 A 
ENDROOT
BRANCH  11  19
HETATM   19  C   UNK N   1      36.872   8.658  15.964  0.00  0.00    -0.009 A 
HETATM   20  C   UNK N   1      38.116   8.202  16.443  0.00  0.00     0.014 A 
HETATM   21  C   UNK N   1      38.250   6.936  17.017  0.00  0.00     0.001 A 
HETATM   22  C   UNK N   1      37.141   6.096  17.122  0.00  0.00     0.000 A 
HETATM   23  C   UNK N   1      35.900   6.524  16.656  0.00  0.00     0.001 A 
HETATM   24  C   UNK N   1      35.770   7.790  16.083  0.00  0.00     0.014 A 
ENDBRANCH  11  19
TORSDOF 1
ENDMDL
MODEL 7
REMARK VINA RESULT:      -6.5     10.994     13.681
REMARK  1 active torsions:
REMARK  status: ('A' for Active; 'I' for Inactive)
REMARK    1  A    between atoms: C_11  and  C_14 
ROOT
HETATM    1 Cl   UNK N   1      33.139  11.139   6.580  0.00  0.00    -0.084 Cl
HETATM    2  N   UNK N   1      35.625  13.974  11.252  0.00  0.00    -0.293 N 
HETATM    3  N   UNK N   1      34.541  16.486   9.832  0.00  0.00    -0.381 N 
ATOM      4  HN  UNK N   1      34.287  17.435   9.556  1.00  0.00     0.160 HD
HETATM    5  N   UNK N   1      36.435  15.282  12.842  0.00  0.00    -0.286 N 
ATOM      6  HN  UNK N   1      36.666  16.120  13.374  1.00  0.00     0.188 HD
HETATM    7  N   UNK N   1      36.748  14.040  13.162  0.00  0.00    -0.294 N 
ATOM      8  HN  UNK N   1      37.267  13.743  13.988  1.00  0.00     0.187 HD
HETATM    9  C   UNK N   1      35.000  13.386  10.098  0.00  0.00     0.054 A 
HETATM   10  C   UNK N   1      34.321  14.114   9.067  0.00  0.00     0.020 A 
HETATM   11  C   UNK N   1      34.117  15.624   8.968  0.00  0.00     0.051 A 
HETATM   12  C   UNK N   1      35.755  15.240  11.683  0.00  0.00     0.121 A 
HETATM   13  C   UNK N   1      35.268  16.486  11.071  0.00  0.00     0.198 A 
HETATM   14  C   UNK N   1      35.074  11.975   9.994  0.00  0.00     0.032 A 
HETATM   15  C   UNK N   1      33.775  13.351   8.018  0.00  0.00     0.040 A 
HETATM   16  C   UNK N   1      36.257  13.242  12.200  0.00  0.00     0.206 A 
HETATM   17  C   UNK N   1      34.515  11.275   8.932  0.00  0.00     0.026 A 
HETATM   18  C   UNK N   1      33.860  11.974   7.938  0.00  0.00     0.035 A 
ENDROOT
BRANCH  11  19
HETATM   19  C   UNK N   1      33.370  16.248   7.801  0.00  0.00    -0.009 A 
HETATM   20  C   UNK N   1      34.114  16.750   6.714  0.00  0.00     0.014 A 
HETATM   21  C   UNK N   1      33.483  17.336   5.615  0.00  0.00     0.001 A 
HETATM   22  C   UNK N   1      32.092  17.434   5.578  0.00  0.00     0.000 A 
HETATM   23  C   UNK N   1      31.334  16.946   6.640  0.00  0.00     0.001 A 
HETATM   24  C   UNK N   1      31.968  16.361   7.737  0.00  0.00     0.014 A 
ENDBRANCH  11  19
TORSDOF 1
ENDMDL
MODEL 8
REMARK VINA RESULT:      -6.3     12.239     14.155
REMARK  1 active torsions:
REMARK  status: ('A' for Active; 'I' for Inactive)
REMARK    1  A    between atoms: C_11  and  C_14 
ROOT
HETATM    1 Cl   UNK N   1      29.657  26.481 -10.069  0.00  0.00    -0.084 Cl
HETATM    2  N   UNK N   1      26.842  27.484  -4.861  0.00  0.00    -0.293 N 
HETATM    3  N   UNK N   1      27.185  24.440  -4.513  0.00  0.00    -0.381 N 
ATOM      4  HN  UNK N   1      27.179  23.475  -4.182  1.00  0.00     0.160 HD
HETATM    5  N   UNK N   1      25.834  27.546  -2.893  0.00  0.00    -0.286 N 
ATOM      6  HN  UNK N   1      25.437  27.241  -2.005  1.00  0.00     0.188 HD
HETATM    7  N   UNK N   1      25.857  28.781  -3.357  0.00  0.00    -0.294 N 
ATOM      8  HN  UNK N   1      25.479  29.607  -2.894  1.00  0.00     0.187 HD
HETATM    9  C   UNK N   1      27.520  27.145  -6.084  0.00  0.00     0.054 A 
HETATM   10  C   UNK N   1      27.934  25.824  -6.458  0.00  0.00     0.020 A 
HETATM   11  C   UNK N   1      27.754  24.529  -5.670  0.00  0.00     0.051 A 
HETATM   12  C   UNK N   1      26.431  26.760  -3.806  0.00  0.00     0.121 A 
HETATM   13  C   UNK N   1      26.557  25.315  -3.563  0.00  0.00     0.198 A 
HETATM   14  C   UNK N   1      27.789  28.216  -6.970  0.00  0.00     0.032 A 
HETATM   15  C   UNK N   1      28.586  25.702  -7.699  0.00  0.00     0.040 A 
HETATM   16  C   UNK N   1      26.469  28.748  -4.553  0.00  0.00     0.206 A 
HETATM   17  C   UNK N   1      28.437  28.033  -8.185  0.00  0.00     0.026 A 
HETATM   18  C   UNK N   1      28.837  26.763  -8.549  0.00  0.00     0.035 A 
ENDROOT
BRANCH  11  19
HETATM   19  C   UNK N   1      28.251  23.198  -6.209  0.00  0.00    -0.009 A 
HETATM   20  C   UNK N   1      29.417  22.637  -5.650  0.00  0.00     0.014 A 
HETATM   21  C   UNK N   1      29.922  21.417  -6.105  0.00  0.00     0.001 A 
HETATM   22  C   UNK N   1      29.272  20.731  -7.131  0.00  0.00     0.000 A 
HETATM   23  C   UNK N   1      28.118  21.264  -7.699  0.00  0.00     0.001 A 
HETATM   24  C   UNK N   1      27.616  22.483  -7.242  0.00  0.00     0.014 A 
ENDBRANCH  11  19
TORSDOF 1
ENDMDL
MODEL 9
REMARK VINA RESULT:      -6.3     17.041     18.992
REMARK  1 active torsions:
REMARK  status: ('A' for Active; 'I' for Inactive)
REMARK    1  A    between atoms: C_11  and  C_14 
ROOT
HETATM    1 Cl   UNK N   1      35.874   6.967  14.939  0.00  0.00    -0.084 Cl
HETATM    2  N   UNK N   1      35.260  11.748  18.519  0.00  0.00    -0.293 N 
HETATM    3  N   UNK N   1      35.665  13.306  15.891  0.00  0.00    -0.381 N 
ATOM      4  HN  UNK N   1      35.775  14.021  15.170  1.00  0.00     0.160 HD
HETATM    5  N   UNK N   1      35.071  13.680  19.579  0.00  0.00    -0.286 N 
ATOM      6  HN  UNK N   1      35.033  14.685  19.750  1.00  0.00     0.188 HD
HETATM    7  N   UNK N   1      34.938  12.727  20.482  0.00  0.00    -0.294 N 
ATOM      8  HN  UNK N   1      34.779  12.859  21.480  1.00  0.00     0.187 HD
HETATM    9  C   UNK N   1      35.419  10.666  17.584  0.00  0.00     0.054 A 
HETATM   10  C   UNK N   1      35.643  10.821  16.176  0.00  0.00     0.020 A 
HETATM   11  C   UNK N   1      35.759  12.121  15.384  0.00  0.00     0.051 A 
HETATM   12  C   UNK N   1      35.267  13.085  18.390  0.00  0.00     0.121 A 
HETATM   13  C   UNK N   1      35.450  13.902  17.180  0.00  0.00     0.198 A 
HETATM   14  C   UNK N   1      35.344   9.357  18.118  0.00  0.00     0.032 A 
HETATM   15  C   UNK N   1      35.773   9.635  15.430  0.00  0.00     0.040 A 
HETATM   16  C   UNK N   1      35.051  11.551  19.843  0.00  0.00     0.206 A 
HETATM   17  C   UNK N   1      35.480   8.221  17.330  0.00  0.00     0.026 A 
HETATM   18  C   UNK N   1      35.696   8.366  15.975  0.00  0.00     0.035 A 
ENDROOT
BRANCH  11  19
HETATM   19  C   UNK N   1      36.001  12.117  13.884  0.00  0.00    -0.009 A 
HETATM   20  C   UNK N   1      34.893  12.235  13.021  0.00  0.00     0.014 A 
HETATM   21  C   UNK N   1      35.054  12.235  11.634  0.00  0.00     0.001 A 
HETATM   22  C   UNK N   1      36.328  12.117  11.078  0.00  0.00     0.000 A 
HETATM   23  C   UNK N   1      37.439  11.999  11.910  0.00  0.00     0.001 A 
HETATM   24  C   UNK N   1      37.275  11.999  13.296  0.00  0.00     0.014 A 
ENDBRANCH  11  19
TORSDOF 1
ENDMDL
