MODEL 1
REMARK VINA RESULT:      -6.0      0.000      0.000
REMARK  2 active torsions:
REMARK  status: ('A' for Active; 'I' for Inactive)
REMARK    1  A    between atoms: N_1  and  C_2 
REMARK    2  A    between atoms: C_2  and  C_10 
ROOT
HETATM    1  C   UNK N   1      27.425  26.113  -4.430  0.00  0.00     0.186 C 
HETATM    2  C   UNK N   1      26.385  26.616  -3.403  0.00  0.00     0.047 C 
HETATM    3  C   UNK N   1      28.311  27.317  -4.822  0.00  0.00     0.047 C 
HETATM    4  C   UNK N   1      25.556  27.775  -3.958  0.00  0.00     0.003 C 
HETATM    5  C   UNK N   1      27.484  28.472  -5.386  0.00  0.00     0.003 C 
HETATM    6  C   UNK N   1      26.467  28.933  -4.351  0.00  0.00     0.000 C 
ENDROOT
BRANCH   1   7
HETATM    7  N   UNK N   1      26.714  25.584  -5.627  0.00  0.00     0.102 N 
HETATM    8  C   UNK N   1      27.619  25.146  -6.705  0.00  0.00     0.274 C 
HETATM    9  C   UNK N   1      26.813  24.668  -7.910  0.00  0.00     0.030 C 
HETATM   10  C   UNK N   1      25.859  23.525  -7.545  0.00  0.00     0.003 C 
HETATM   11  C   UNK N   1      25.775  23.274  -6.041  0.00  0.00     0.030 C 
HETATM   12  C   UNK N   1      25.660  24.599  -5.280  0.00  0.00     0.274 C 
ENDBRANCH   1   7
BRANCH   1  13
HETATM   13  C   UNK N   1      28.324  25.082  -3.741  0.00  0.00    -0.020 A 
HETATM   14  C   UNK N   1      27.796  24.043  -2.954  0.00  0.00     0.010 A 
HETATM   15  C   UNK N   1      28.638  23.113  -2.338  0.00  0.00     0.001 A 
HETATM   16  C   UNK N   1      30.022  23.214  -2.495  0.00  0.00     0.000 A 
HETATM   17  C   UNK N   1      30.563  24.239  -3.273  0.00  0.00     0.001 A 
HETATM   18  C   UNK N   1      29.720  25.164  -3.897  0.00  0.00     0.010 A 
ENDBRANCH   1  13
TORSDOF 2
ENDMDL
MODEL 2
REMARK VINA RESULT:      -5.9     11.525     13.786
REMARK  2 active torsions:
REMARK  status: ('A' for Active; 'I' for Inactive)
REMARK    1  A    between atoms: N_1  and  C_2 
REMARK    2  A    between atoms: C_2  and  C_10 
ROOT
HETATM    1  C   UNK N   1      29.182  16.765   4.848  0.00  0.00     0.186 C 
HETATM    2  C   UNK N   1      28.495  15.567   5.545  0.00  0.00     0.047 C 
HETATM    3  C   UNK N   1      28.781  16.726   3.355  0.00  0.00     0.047 C 
HETATM    4  C   UNK N   1      28.872  14.238   4.889  0.00  0.00     0.003 C 
HETATM    5  C   UNK N   1      29.165  15.402   2.698  0.00  0.00     0.003 C 
HETATM    6  C   UNK N   1      28.478  14.248   3.416  0.00  0.00     0.000 C 
ENDROOT
BRANCH   1   7
HETATM    7  N   UNK N   1      30.659  16.631   4.988  0.00  0.00     0.102 N 
HETATM    8  C   UNK N   1      31.412  17.718   4.340  0.00  0.00     0.274 C 
HETATM    9  C   UNK N   1      32.914  17.481   4.486  0.00  0.00     0.030 C 
HETATM   10  C   UNK N   1      33.336  17.369   5.955  0.00  0.00     0.003 C 
HETATM   11  C   UNK N   1      32.150  17.304   6.915  0.00  0.00     0.030 C 
HETATM   12  C   UNK N   1      31.078  16.347   6.383  0.00  0.00     0.274 C 
ENDBRANCH   1   7
BRANCH   1  13
HETATM   13  C   UNK N   1      28.620  18.058   5.445  0.00  0.00    -0.020 A 
HETATM   14  C   UNK N   1      28.482  18.238   6.833  0.00  0.00     0.010 A 
HETATM   15  C   UNK N   1      27.968  19.429   7.352  0.00  0.00     0.001 A 
HETATM   16  C   UNK N   1      27.577  20.455   6.489  0.00  0.00     0.000 A 
HETATM   17  C   UNK N   1      27.707  20.293   5.109  0.00  0.00     0.001 A 
HETATM   18  C   UNK N   1      28.230  19.105   4.590  0.00  0.00     0.010 A 
ENDBRANCH   1  13
TORSDOF 2
ENDMDL
MODEL 3
REMARK VINA RESULT:      -5.7      1.533      4.573
REMARK  2 active torsions:
REMARK  status: ('A' for Active; 'I' for Inactive)
REMARK    1  A    between atoms: N_1  and  C_2 
REMARK    2  A    between atoms: C_2  and  C_10 
ROOT
HETATM    1  C   UNK N   1      27.059  26.884  -6.587  0.00  0.00     0.186 C 
HETATM    2  C   UNK N   1      25.635  26.540  -7.080  0.00  0.00     0.047 C 
HETATM    3  C   UNK N   1      27.886  27.318  -7.819  0.00  0.00     0.047 C 
HETATM    4  C   UNK N   1      25.656  25.458  -8.161  0.00  0.00     0.003 C 
HETATM    5  C   UNK N   1      27.914  26.234  -8.895  0.00  0.00     0.003 C 
HETATM    6  C   UNK N   1      26.495  25.917  -9.348  0.00  0.00     0.000 C 
ENDROOT
BRANCH   1   7
HETATM    7  N   UNK N   1      27.664  25.676  -5.960  0.00  0.00     0.102 N 
HETATM    8  C   UNK N   1      28.956  25.938  -5.301  0.00  0.00     0.274 C 
HETATM    9  C   UNK N   1      29.531  24.644  -4.730  0.00  0.00     0.030 C 
HETATM   10  C   UNK N   1      28.572  23.981  -3.735  0.00  0.00     0.003 C 
HETATM   11  C   UNK N   1      27.194  24.639  -3.704  0.00  0.00     0.030 C 
HETATM   12  C   UNK N   1      26.699  24.918  -5.126  0.00  0.00     0.274 C 
ENDBRANCH   1   7
BRANCH   1  13
HETATM   13  C   UNK N   1      26.967  28.087  -5.645  0.00  0.00    -0.020 A 
HETATM   14  C   UNK N   1      26.104  28.098  -4.534  0.00  0.00     0.010 A 
HETATM   15  C   UNK N   1      26.041  29.208  -3.688  0.00  0.00     0.001 A 
HETATM   16  C   UNK N   1      26.835  30.328  -3.945  0.00  0.00     0.000 A 
HETATM   17  C   UNK N   1      27.697  30.334  -5.043  0.00  0.00     0.001 A 
HETATM   18  C   UNK N   1      27.767  29.220  -5.884  0.00  0.00     0.010 A 
ENDBRANCH   1  13
TORSDOF 2
ENDMDL
MODEL 4
REMARK VINA RESULT:      -5.7      1.673      4.637
REMARK  2 active torsions:
REMARK  status: ('A' for Active; 'I' for Inactive)
REMARK    1  A    between atoms: N_1  and  C_2 
REMARK    2  A    between atoms: C_2  and  C_10 
ROOT
HETATM    1  C   UNK N   1      27.037  27.372  -5.617  0.00  0.00     0.186 C 
HETATM    2  C   UNK N   1      27.860  28.677  -5.528  0.00  0.00     0.047 C 
HETATM    3  C   UNK N   1      25.603  27.693  -5.134  0.00  0.00     0.047 C 
HETATM    4  C   UNK N   1      27.852  29.256  -4.112  0.00  0.00     0.003 C 
HETATM    5  C   UNK N   1      25.595  28.262  -3.717  0.00  0.00     0.003 C 
HETATM    6  C   UNK N   1      26.422  29.539  -3.667  0.00  0.00     0.000 C 
ENDROOT
BRANCH   1   7
HETATM    7  N   UNK N   1      27.658  26.341  -4.739  0.00  0.00     0.102 N 
HETATM    8  C   UNK N   1      26.731  25.263  -4.351  0.00  0.00     0.274 C 
HETATM    9  C   UNK N   1      27.429  24.278  -3.415  0.00  0.00     0.030 C 
HETATM   10  C   UNK N   1      28.685  23.673  -4.052  0.00  0.00     0.003 C 
HETATM   11  C   UNK N   1      29.067  24.341  -5.371  0.00  0.00     0.030 C 
HETATM   12  C   UNK N   1      28.966  25.865  -5.251  0.00  0.00     0.274 C 
ENDBRANCH   1   7
BRANCH   1  13
HETATM   13  C   UNK N   1      26.947  26.957  -7.088  0.00  0.00    -0.020 A 
HETATM   14  C   UNK N   1      27.877  27.404  -8.045  0.00  0.00     0.010 A 
HETATM   15  C   UNK N   1      27.774  27.008  -9.381  0.00  0.00     0.001 A 
HETATM   16  C   UNK N   1      26.735  26.165  -9.782  0.00  0.00     0.000 A 
HETATM   17  C   UNK N   1      25.804  25.712  -8.846  0.00  0.00     0.001 A 
HETATM   18  C   UNK N   1      25.912  26.101  -7.507  0.00  0.00     0.010 A 
ENDBRANCH   1  13
TORSDOF 2
ENDMDL
MODEL 5
REMARK VINA RESULT:      -5.6      1.343      4.217
REMARK  2 active torsions:
REMARK  status: ('A' for Active; 'I' for Inactive)
REMARK    1  A    between atoms: N_1  and  C_2 
REMARK    2  A    between atoms: C_2  and  C_10 
ROOT
HETATM    1  C   UNK N   1      26.761  26.117  -5.421  0.00  0.00     0.186 C 
HETATM    2  C   UNK N   1      26.467  27.457  -6.135  0.00  0.00     0.047 C 
HETATM    3  C   UNK N   1      25.909  26.082  -4.131  0.00  0.00     0.047 C 
HETATM    4  C   UNK N   1      26.755  28.655  -5.229  0.00  0.00     0.003 C 
HETATM    5  C   UNK N   1      26.203  27.274  -3.222  0.00  0.00     0.003 C 
HETATM    6  C   UNK N   1      25.911  28.572  -3.962  0.00  0.00     0.000 C 
ENDROOT
BRANCH   1   7
HETATM    7  N   UNK N   1      28.210  26.050  -5.083  0.00  0.00     0.102 N 
HETATM    8  C   UNK N   1      28.524  25.069  -4.029  0.00  0.00     0.274 C 
HETATM    9  C   UNK N   1      30.017  25.099  -3.708  0.00  0.00     0.030 C 
HETATM   10  C   UNK N   1      30.875  24.814  -4.945  0.00  0.00     0.003 C 
HETATM   11  C   UNK N   1      30.065  24.781  -6.240  0.00  0.00     0.030 C 
HETATM   12  C   UNK N   1      29.074  25.949  -6.285  0.00  0.00     0.274 C 
ENDBRANCH   1   7
BRANCH   1  13
HETATM   13  C   UNK N   1      26.283  24.975  -6.322  0.00  0.00    -0.020 A 
HETATM   14  C   UNK N   1      26.161  23.656  -5.849  0.00  0.00     0.010 A 
HETATM   15  C   UNK N   1      25.720  22.632  -6.692  0.00  0.00     0.001 A 
HETATM   16  C   UNK N   1      25.403  22.911  -8.023  0.00  0.00     0.000 A 
HETATM   17  C   UNK N   1      25.519  24.214  -8.509  0.00  0.00     0.001 A 
HETATM   18  C   UNK N   1      25.951  25.241  -7.663  0.00  0.00     0.010 A 
ENDBRANCH   1  13
TORSDOF 2
ENDMDL
MODEL 6
REMARK VINA RESULT:      -5.6     13.411     16.052
REMARK  2 active torsions:
REMARK  status: ('A' for Active; 'I' for Inactive)
REMARK    1  A    between atoms: N_1  and  C_2 
REMARK    2  A    between atoms: C_2  and  C_10 
ROOT
HETATM    1  C   UNK N   1      32.466  16.314   7.785  0.00  0.00     0.186 C 
HETATM    2  C   UNK N   1      33.465  17.068   8.693  0.00  0.00     0.047 C 
HETATM    3  C   UNK N   1      32.260  14.906   8.390  0.00  0.00     0.047 C 
HETATM    4  C   UNK N   1      34.786  16.309   8.833  0.00  0.00     0.003 C 
HETATM    5  C   UNK N   1      33.577  14.145   8.521  0.00  0.00     0.003 C 
HETATM    6  C   UNK N   1      34.537  14.921   9.413  0.00  0.00     0.000 C 
ENDROOT
BRANCH   1   7
HETATM    7  N   UNK N   1      33.037  16.207   6.413  0.00  0.00     0.102 N 
HETATM    8  C   UNK N   1      32.337  15.231   5.559  0.00  0.00     0.274 C 
HETATM    9  C   UNK N   1      33.013  15.146   4.192  0.00  0.00     0.030 C 
HETATM   10  C   UNK N   1      33.055  16.506   3.488  0.00  0.00     0.003 C 
HETATM   11  C   UNK N   1      32.615  17.659   4.388  0.00  0.00     0.030 C 
HETATM   12  C   UNK N   1      33.250  17.530   5.776  0.00  0.00     0.274 C 
ENDBRANCH   1   7
BRANCH   1  13
HETATM   13  C   UNK N   1      31.121  17.043   7.839  0.00  0.00    -0.020 A 
HETATM   14  C   UNK N   1      30.059  16.709   6.978  0.00  0.00     0.010 A 
HETATM   15  C   UNK N   1      28.840  17.388   7.050  0.00  0.00     0.001 A 
HETATM   16  C   UNK N   1      28.667  18.417   7.978  0.00  0.00     0.000 A 
HETATM   17  C   UNK N   1      29.710  18.761   8.840  0.00  0.00     0.001 A 
HETATM   18  C   UNK N   1      30.927  18.075   8.775  0.00  0.00     0.010 A 
ENDBRANCH   1  13
TORSDOF 2
ENDMDL
MODEL 7
REMARK VINA RESULT:      -5.6     11.066     13.626
REMARK  2 active torsions:
REMARK  status: ('A' for Active; 'I' for Inactive)
REMARK    1  A    between atoms: N_1  and  C_2 
REMARK    2  A    between atoms: C_2  and  C_10 
ROOT
HETATM    1  C   UNK N   1      28.696  17.073   5.517  0.00  0.00     0.186 C 
HETATM    2  C   UNK N   1      30.051  16.980   4.778  0.00  0.00     0.047 C 
HETATM    3  C   UNK N   1      28.064  15.662   5.507  0.00  0.00     0.047 C 
HETATM    4  C   UNK N   1      29.885  16.442   3.356  0.00  0.00     0.003 C 
HETATM    5  C   UNK N   1      27.890  15.127   4.087  0.00  0.00     0.003 C 
HETATM    6  C   UNK N   1      29.241  15.059   3.389  0.00  0.00     0.000 C 
ENDROOT
BRANCH   1   7
HETATM    7  N   UNK N   1      27.814  18.037   4.803  0.00  0.00     0.102 N 
HETATM    8  C   UNK N   1      26.390  17.907   5.158  0.00  0.00     0.274 C 
HETATM    9  C   UNK N   1      25.551  18.894   4.348  0.00  0.00     0.030 C 
HETATM   10  C   UNK N   1      26.004  20.343   4.564  0.00  0.00     0.003 C 
HETATM   11  C   UNK N   1      27.305  20.451   5.355  0.00  0.00     0.030 C 
HETATM   12  C   UNK N   1      28.329  19.428   4.851  0.00  0.00     0.274 C 
ENDBRANCH   1   7
BRANCH   1  13
HETATM   13  C   UNK N   1      28.967  17.448   6.977  0.00  0.00    -0.020 A 
HETATM   14  C   UNK N   1      27.931  17.547   7.923  0.00  0.00     0.010 A 
HETATM   15  C   UNK N   1      28.205  17.889   9.251  0.00  0.00     0.001 A 
HETATM   16  C   UNK N   1      29.519  18.143   9.648  0.00  0.00     0.000 A 
HETATM   17  C   UNK N   1      30.559  18.049   8.722  0.00  0.00     0.001 A 
HETATM   18  C   UNK N   1      30.286  17.699   7.396  0.00  0.00     0.010 A 
ENDBRANCH   1  13
TORSDOF 2
ENDMDL
MODEL 8
REMARK VINA RESULT:      -5.5     23.428     25.986
REMARK  2 active torsions:
REMARK  status: ('A' for Active; 'I' for Inactive)
REMARK    1  A    between atoms: N_1  and  C_2 
REMARK    2  A    between atoms: C_2  and  C_10 
ROOT
HETATM    1  C   UNK N   1      35.623  11.613  14.552  0.00  0.00     0.186 C 
HETATM    2  C   UNK N   1      34.104  11.423  14.336  0.00  0.00     0.047 C 
HETATM    3  C   UNK N   1      36.228  12.086  13.210  0.00  0.00     0.047 C 
HETATM    4  C   UNK N   1      33.813  10.437  13.203  0.00  0.00     0.003 C 
HETATM    5  C   UNK N   1      35.944  11.097  12.080  0.00  0.00     0.003 C 
HETATM    6  C   UNK N   1      34.441  10.929  11.904  0.00  0.00     0.000 C 
ENDROOT
BRANCH   1   7
HETATM    7  N   UNK N   1      36.226  10.314  14.960  0.00  0.00     0.102 N 
HETATM    8  C   UNK N   1      37.696  10.353  15.063  0.00  0.00     0.274 C 
HETATM    9  C   UNK N   1      38.236   8.974  15.435  0.00  0.00     0.030 C 
HETATM   10  C   UNK N   1      37.643   8.462  16.752  0.00  0.00     0.003 C 
HETATM   11  C   UNK N   1      36.504   9.335  17.274  0.00  0.00     0.030 C 
HETATM   12  C   UNK N   1      35.550   9.712  16.135  0.00  0.00     0.274 C 
ENDBRANCH   1   7
BRANCH   1  13
HETATM   13  C   UNK N   1      35.829  12.736  15.572  0.00  0.00    -0.020 A 
HETATM   14  C   UNK N   1      35.106  12.787  16.778  0.00  0.00     0.010 A 
HETATM   15  C   UNK N   1      35.314  13.822  17.694  0.00  0.00     0.001 A 
HETATM   16  C   UNK N   1      36.244  14.826  17.413  0.00  0.00     0.000 A 
HETATM   17  C   UNK N   1      36.970  14.790  16.222  0.00  0.00     0.001 A 
HETATM   18  C   UNK N   1      36.768  13.750  15.310  0.00  0.00     0.010 A 
ENDBRANCH   1  13
TORSDOF 2
ENDMDL
MODEL 9
REMARK VINA RESULT:      -5.4     10.919     13.611
REMARK  2 active torsions:
REMARK  status: ('A' for Active; 'I' for Inactive)
REMARK    1  A    between atoms: N_1  and  C_2 
REMARK    2  A    between atoms: C_2  and  C_10 
ROOT
HETATM    1  C   UNK N   1      29.058  17.593   5.707  0.00  0.00     0.186 C 
HETATM    2  C   UNK N   1      30.176  17.733   4.648  0.00  0.00     0.047 C 
HETATM    3  C   UNK N   1      29.737  17.559   7.096  0.00  0.00     0.047 C 
HETATM    4  C   UNK N   1      31.201  16.603   4.754  0.00  0.00     0.003 C 
HETATM    5  C   UNK N   1      30.754  16.425   7.205  0.00  0.00     0.003 C 
HETATM    6  C   UNK N   1      31.831  16.592   6.142  0.00  0.00     0.000 C 
ENDROOT
BRANCH   1   7
HETATM    7  N   UNK N   1      28.313  16.326   5.467  0.00  0.00     0.102 N 
HETATM    8  C   UNK N   1      27.178  16.127   6.386  0.00  0.00     0.274 C 
HETATM    9  C   UNK N   1      26.501  14.787   6.107  0.00  0.00     0.030 C 
HETATM   10  C   UNK N   1      26.012  14.683   4.658  0.00  0.00     0.003 C 
HETATM   11  C   UNK N   1      26.497  15.834   3.779  0.00  0.00     0.030 C 
HETATM   12  C   UNK N   1      27.980  16.119   4.036  0.00  0.00     0.274 C 
ENDBRANCH   1   7
BRANCH   1  13
HETATM   13  C   UNK N   1      28.180  18.846   5.651  0.00  0.00    -0.020 A 
HETATM   14  C   UNK N   1      27.701  19.365   4.435  0.00  0.00     0.010 A 
HETATM   15  C   UNK N   1      26.899  20.509   4.412  0.00  0.00     0.001 A 
HETATM   16  C   UNK N   1      26.570  21.155   5.605  0.00  0.00     0.000 A 
HETATM   17  C   UNK N   1      27.037  20.654   6.821  0.00  0.00     0.001 A 
HETATM   18  C   UNK N   1      27.832  19.504   6.845  0.00  0.00     0.010 A 
ENDBRANCH   1  13
TORSDOF 2
ENDMDL
