REMARK  2 active torsions:
REMARK  status: ('A' for Active; 'I' for Inactive)
REMARK    1  A    between atoms: N_1  and  C_2 
REMARK    2  A    between atoms: C_2  and  C_10 
ROOT
HETATM    1  C   UNK N   1       4.134  -0.486  -0.009  0.00  0.00     0.186 C 
HETATM    2  C   UNK N   1       4.742  -1.286  -1.184  0.00  0.00     0.047 C 
HETATM    3  C   UNK N   1       4.367  -1.306   1.281  0.00  0.00     0.047 C 
HETATM    4  C   UNK N   1       4.141  -2.689  -1.285  0.00  0.00     0.003 C 
HETATM    5  C   UNK N   1       3.759  -2.704   1.184  0.00  0.00     0.003 C 
HETATM    6  C   UNK N   1       4.375  -3.456   0.012  0.00  0.00     0.000 C 
ENDROOT
BRANCH   1   7
HETATM    7  N   UNK N   1       2.675  -0.302  -0.246  0.00  0.00     0.102 N 
HETATM    8  C   UNK N   1       1.955   0.251   0.915  0.00  0.00     0.274 C 
HETATM    9  C   UNK N   1       0.463   0.361   0.608  0.00  0.00     0.030 C 
HETATM   10  C   UNK N   1       0.194   1.231  -0.625  0.00  0.00     0.003 C 
HETATM   11  C   UNK N   1       1.467   1.606  -1.381  0.00  0.00     0.030 C 
HETATM   12  C   UNK N   1       2.385   0.388  -1.527  0.00  0.00     0.274 C 
ENDBRANCH   1   7
BRANCH   1  13
HETATM   13  C   UNK N   1       4.907   0.828   0.132  0.00  0.00    -0.020 A 
HETATM   14  C   UNK N   1       4.258   2.076   0.133  0.00  0.00     0.010 A 
HETATM   15  C   UNK N   1       4.987   3.261   0.266  0.00  0.00     0.001 A 
HETATM   16  C   UNK N   1       6.377   3.215   0.392  0.00  0.00     0.000 A 
HETATM   17  C   UNK N   1       7.037   1.985   0.393  0.00  0.00     0.001 A 
HETATM   18  C   UNK N   1       6.307   0.799   0.269  0.00  0.00     0.010 A 
ENDBRANCH   1  13
TORSDOF 2
