MODEL 1
REMARK VINA RESULT:      -7.6      0.000      0.000
REMARK  3 active torsions:
REMARK  status: ('A' for Active; 'I' for Inactive)
REMARK       I    between atoms: N_4  and  C_16 
REMARK    1  A    between atoms: N_4  and  C_21 
REMARK    2  A    between atoms: N_4  and  C_22 
REMARK    3  A    between atoms: C_8  and  C_16 
ROOT
HETATM    1  N   UNK N   1      19.649  16.527   8.497  0.00  0.00     0.094 N 
HETATM    2  N   UNK N   1      22.347  11.640  10.930  0.00  0.00    -0.365 N 
HETATM    3  C   UNK N   1      20.597  15.496   8.993  0.00  0.00     0.260 C 
HETATM    4  C   UNK N   1      21.598  15.032   7.918  0.00  0.00    -0.017 C 
HETATM    5  C   UNK N   1      19.966  14.269   9.733  0.00  0.00     0.081 C 
HETATM    6  C   UNK N   1      20.478  16.390   6.167  0.00  0.00     0.129 C 
HETATM    7  C   UNK N   1      19.252  16.353   7.101  0.00  0.00     0.290 C 
HETATM    8  C   UNK N   1      21.071  13.300  10.106  0.00  0.00    -0.027 A 
HETATM    9  C   UNK N   1      22.572  13.998   8.314  0.00  0.00    -0.015 A 
HETATM   10  C   UNK N   1      22.223  13.231   9.397  0.00  0.00     0.009 A 
HETATM   11  C   UNK N   1      21.551  15.466   6.656  0.00  0.00    -0.001 C 
HETATM   12  C   UNK N   1      22.974  12.227   9.890  0.00  0.00     0.043 A 
HETATM   13  C   UNK N   1      18.453  16.634   9.324  0.00  0.00     0.310 C 
HETATM   14  C   UNK N   1      21.154  12.297  11.069  0.00  0.00     0.096 A 
HETATM   15  C   UNK N   1      23.777  13.687   7.654  0.00  0.00     0.013 A 
HETATM   16  C   UNK N   1      24.196  11.896   9.301  0.00  0.00     0.030 A 
HETATM   17  C   UNK N   1      24.597  12.641   8.161  0.00  0.00     0.003 A 
HETATM   18  H   UNK N   1      22.679  10.894  11.479  0.00  0.00     0.165 HD
ENDROOT
BRANCH   6  19
HETATM   19  C   UNK N   1      21.074  17.683   5.613  0.00  0.00     0.229 C 
HETATM   20  O   UNK N   1      21.722  18.368   6.399  0.00  0.00    -0.273 OA
HETATM   21  N   UNK N   1      20.971  18.101   4.311  0.00  0.00    -0.352 N 
BRANCH  21  22
HETATM   22  C   UNK N   1      20.234  17.353   3.317  0.00  0.00     0.121 C 
HETATM   23  C   UNK N   1      21.157  16.410   2.566  0.00  0.00     0.026 C 
ENDBRANCH  21  22
BRANCH  21  24
HETATM   24  C   UNK N   1      21.584  19.355   3.919  0.00  0.00     0.121 C 
HETATM   25  C   UNK N   1      20.581  20.266   3.233  0.00  0.00     0.026 C 
ENDBRANCH  21  24
ENDBRANCH   6  19
TORSDOF 3
ENDMDL
MODEL 2
REMARK VINA RESULT:      -7.0     14.518     16.770
REMARK  3 active torsions:
REMARK  status: ('A' for Active; 'I' for Inactive)
REMARK       I    between atoms: N_4  and  C_16 
REMARK    1  A    between atoms: N_4  and  C_21 
REMARK    2  A    between atoms: N_4  and  C_22 
REMARK    3  A    between atoms: C_8  and  C_16 
ROOT
HETATM    1  N   UNK N   1      36.154  10.738  13.053  0.00  0.00     0.094 N 
HETATM    2  N   UNK N   1      36.106   9.959  19.091  0.00  0.00    -0.365 N 
HETATM    3  C   UNK N   1      35.885  10.779  14.514  0.00  0.00     0.260 C 
HETATM    4  C   UNK N   1      35.894  12.208  15.087  0.00  0.00    -0.017 C 
HETATM    5  C   UNK N   1      36.739   9.815  15.405  0.00  0.00     0.081 C 
HETATM    6  C   UNK N   1      36.608  13.170  12.912  0.00  0.00     0.129 C 
HETATM    7  C   UNK N   1      37.107  11.747  12.591  0.00  0.00     0.290 C 
HETATM    8  C   UNK N   1      36.373  10.041  16.859  0.00  0.00    -0.027 A 
HETATM    9  C   UNK N   1      35.649  12.348  16.535  0.00  0.00    -0.015 A 
HETATM   10  C   UNK N   1      35.896  11.232  17.294  0.00  0.00     0.009 A 
HETATM   11  C   UNK N   1      36.192  13.279  14.347  0.00  0.00    -0.001 C 
HETATM   12  C   UNK N   1      35.751  11.177  18.631  0.00  0.00     0.043 A 
HETATM   13  C   UNK N   1      36.592   9.423  12.599  0.00  0.00     0.310 C 
HETATM   14  C   UNK N   1      36.505   9.245  17.994  0.00  0.00     0.096 A 
HETATM   15  C   UNK N   1      35.255  13.522  17.208  0.00  0.00     0.013 A 
HETATM   16  C   UNK N   1      35.328  12.297  19.350  0.00  0.00     0.030 A 
HETATM   17  C   UNK N   1      35.080  13.488  18.618  0.00  0.00     0.003 A 
HETATM   18  H   UNK N   1      36.082   9.647  20.025  0.00  0.00     0.165 HD
ENDROOT
BRANCH   6  19
HETATM   19  C   UNK N   1      35.664  13.954  12.003  0.00  0.00     0.229 C 
HETATM   20  O   UNK N   1      34.513  14.099  12.403  0.00  0.00    -0.273 OA
HETATM   21  N   UNK N   1      36.021  14.533  10.812  0.00  0.00    -0.352 N 
BRANCH  21  22
HETATM   22  C   UNK N   1      37.357  14.420  10.270  0.00  0.00     0.121 C 
HETATM   23  C   UNK N   1      37.351  13.567   9.014  0.00  0.00     0.026 C 
ENDBRANCH  21  22
BRANCH  21  24
HETATM   24  C   UNK N   1      35.021  15.250  10.045  0.00  0.00     0.121 C 
HETATM   25  C   UNK N   1      35.176  16.752  10.207  0.00  0.00     0.026 C 
ENDBRANCH  21  24
ENDBRANCH   6  19
TORSDOF 3
ENDMDL
MODEL 3
REMARK VINA RESULT:      -6.7      1.965      3.660
REMARK  3 active torsions:
REMARK  status: ('A' for Active; 'I' for Inactive)
REMARK       I    between atoms: N_4  and  C_16 
REMARK    1  A    between atoms: N_4  and  C_21 
REMARK    2  A    between atoms: N_4  and  C_22 
REMARK    3  A    between atoms: C_8  and  C_16 
ROOT
HETATM    1  N   UNK N   1      24.571  14.356   6.075  0.00  0.00     0.094 N 
HETATM    2  N   UNK N   1      23.810  11.912  11.600  0.00  0.00    -0.365 N 
HETATM    3  C   UNK N   1      24.075  13.671   7.297  0.00  0.00     0.260 C 
HETATM    4  C   UNK N   1      22.702  14.191   7.763  0.00  0.00    -0.017 C 
HETATM    5  C   UNK N   1      25.075  13.583   8.498  0.00  0.00     0.081 C 
HETATM    6  C   UNK N   1      22.688  15.966   6.027  0.00  0.00     0.129 C 
HETATM    7  C   UNK N   1      24.217  15.773   5.998  0.00  0.00     0.290 C 
HETATM    8  C   UNK N   1      24.378  12.915   9.668  0.00  0.00    -0.027 A 
HETATM    9  C   UNK N   1      22.134  13.579   8.979  0.00  0.00    -0.015 A 
HETATM   10  C   UNK N   1      23.033  12.973   9.820  0.00  0.00     0.009 A 
HETATM   11  C   UNK N   1      22.075  15.206   7.163  0.00  0.00    -0.001 C 
HETATM   12  C   UNK N   1      22.705  12.382  10.984  0.00  0.00     0.043 A 
HETATM   13  C   UNK N   1      26.011  14.212   5.895  0.00  0.00     0.310 C 
HETATM   14  C   UNK N   1      24.861  12.247  10.791  0.00  0.00     0.096 A 
HETATM   15  C   UNK N   1      20.785  13.615   9.382  0.00  0.00     0.013 A 
HETATM   16  C   UNK N   1      21.378  12.353  11.419  0.00  0.00     0.030 A 
HETATM   17  C   UNK N   1      20.407  12.987  10.600  0.00  0.00     0.003 A 
HETATM   18  H   UNK N   1      23.852  11.427  12.455  0.00  0.00     0.165 HD
ENDROOT
BRANCH   6  19
HETATM   19  C   UNK N   1      21.809  15.899   4.780  0.00  0.00     0.229 C 
HETATM   20  O   UNK N   1      21.501  14.779   4.387  0.00  0.00    -0.273 OA
HETATM   21  N   UNK N   1      21.316  16.988   4.108  0.00  0.00    -0.352 N 
BRANCH  21  22
HETATM   22  C   UNK N   1      21.621  18.344   4.506  0.00  0.00     0.121 C 
HETATM   23  C   UNK N   1      22.976  18.765   3.966  0.00  0.00     0.026 C 
ENDBRANCH  21  22
BRANCH  21  24
HETATM   24  C   UNK N   1      20.492  16.781   2.932  0.00  0.00     0.121 C 
HETATM   25  C   UNK N   1      19.832  18.075   2.489  0.00  0.00     0.026 C 
ENDBRANCH  21  24
ENDBRANCH   6  19
TORSDOF 3
ENDMDL
MODEL 4
REMARK VINA RESULT:      -6.5     14.151     16.830
REMARK  3 active torsions:
REMARK  status: ('A' for Active; 'I' for Inactive)
REMARK       I    between atoms: N_4  and  C_16 
REMARK    1  A    between atoms: N_4  and  C_21 
REMARK    2  A    between atoms: N_4  and  C_22 
REMARK    3  A    between atoms: C_8  and  C_16 
ROOT
HETATM    1  N   UNK N   1      35.742  12.431  13.963  0.00  0.00     0.094 N 
HETATM    2  N   UNK N   1      35.256  12.795  20.021  0.00  0.00    -0.365 N 
HETATM    3  C   UNK N   1      35.756  12.201  15.431  0.00  0.00     0.260 C 
HETATM    4  C   UNK N   1      35.056  10.892  15.841  0.00  0.00    -0.017 C 
HETATM    5  C   UNK N   1      35.279  13.393  16.326  0.00  0.00     0.081 C 
HETATM    6  C   UNK N   1      34.318  10.455  13.510  0.00  0.00     0.129 C 
HETATM    7  C   UNK N   1      34.526  11.967  13.296  0.00  0.00     0.290 C 
HETATM    8  C   UNK N   1      35.301  12.954  17.778  0.00  0.00    -0.027 A 
HETATM    9  C   UNK N   1      35.007  10.583  17.282  0.00  0.00    -0.015 A 
HETATM   10  C   UNK N   1      35.156  11.654  18.128  0.00  0.00     0.009 A 
HETATM   11  C   UNK N   1      34.437  10.100  14.961  0.00  0.00    -0.001 C 
HETATM   12  C   UNK N   1      35.118  11.570  19.471  0.00  0.00     0.043 A 
HETATM   13  C   UNK N   1      35.977  13.826  13.610  0.00  0.00     0.310 C 
HETATM   14  C   UNK N   1      35.363  13.667  18.972  0.00  0.00     0.096 A 
HETATM   15  C   UNK N   1      34.762   9.323  17.861  0.00  0.00     0.013 A 
HETATM   16  C   UNK N   1      34.915  10.342  20.104  0.00  0.00     0.030 A 
HETATM   17  C   UNK N   1      34.731   9.203  19.277  0.00  0.00     0.003 A 
HETATM   18  H   UNK N   1      35.278  13.016  20.980  0.00  0.00     0.165 HD
ENDROOT
BRANCH   6  19
HETATM   19  C   UNK N   1      34.954   9.385  12.626  0.00  0.00     0.229 C 
HETATM   20  O   UNK N   1      35.941   8.814  13.081  0.00  0.00    -0.273 OA
HETATM   21  N   UNK N   1      34.482   8.997  11.399  0.00  0.00    -0.352 N 
BRANCH  21  22
HETATM   22  C   UNK N   1      33.322   9.610  10.790  0.00  0.00     0.121 C 
HETATM   23  C   UNK N   1      32.394   8.549  10.224  0.00  0.00     0.026 C 
ENDBRANCH  21  22
BRANCH  21  24
HETATM   24  C   UNK N   1      35.187   7.967  10.661  0.00  0.00     0.121 C 
HETATM   25  C   UNK N   1      36.063   8.570   9.576  0.00  0.00     0.026 C 
ENDBRANCH  21  24
ENDBRANCH   6  19
TORSDOF 3
ENDMDL
MODEL 5
REMARK VINA RESULT:      -6.5     17.437     19.430
REMARK  3 active torsions:
REMARK  status: ('A' for Active; 'I' for Inactive)
REMARK       I    between atoms: N_4  and  C_16 
REMARK    1  A    between atoms: N_4  and  C_21 
REMARK    2  A    between atoms: N_4  and  C_22 
REMARK    3  A    between atoms: C_8  and  C_16 
ROOT
HETATM    1  N   UNK N   1      36.436   7.644  18.225  0.00  0.00     0.094 N 
HETATM    2  N   UNK N   1      37.908  11.874  14.101  0.00  0.00    -0.365 N 
HETATM    3  C   UNK N   1      36.745   8.893  17.483  0.00  0.00     0.260 C 
HETATM    4  C   UNK N   1      35.640   9.958  17.611  0.00  0.00    -0.017 C 
HETATM    5  C   UNK N   1      37.186   8.724  15.990  0.00  0.00     0.081 C 
HETATM    6  C   UNK N   1      34.165   8.401  18.862  0.00  0.00     0.129 C 
HETATM    7  C   UNK N   1      35.018   7.285  18.228  0.00  0.00     0.290 C 
HETATM    8  C   UNK N   1      37.396  10.099  15.383  0.00  0.00    -0.027 A 
HETATM    9  C   UNK N   1      35.852  11.230  16.896  0.00  0.00    -0.015 A 
HETATM   10  C   UNK N   1      36.736  11.187  15.847  0.00  0.00     0.009 A 
HETATM   11  C   UNK N   1      34.495   9.733  18.261  0.00  0.00    -0.001 C 
HETATM   12  C   UNK N   1      37.040  12.241  15.066  0.00  0.00     0.043 A 
HETATM   13  C   UNK N   1      37.216   6.504  17.756  0.00  0.00     0.310 C 
HETATM   14  C   UNK N   1      38.130  10.537  14.284  0.00  0.00     0.096 A 
HETATM   15  C   UNK N   1      35.193  12.451  17.144  0.00  0.00     0.013 A 
HETATM   16  C   UNK N   1      36.447  13.486  15.287  0.00  0.00     0.030 A 
HETATM   17  C   UNK N   1      35.505  13.584  16.344  0.00  0.00     0.003 A 
HETATM   18  H   UNK N   1      38.303  12.451  13.407  0.00  0.00     0.165 HD
ENDROOT
BRANCH   6  19
HETATM   19  C   UNK N   1      33.918   8.520  20.364  0.00  0.00     0.229 C 
HETATM   20  O   UNK N   1      34.908   8.476  21.087  0.00  0.00    -0.273 OA
HETATM   21  N   UNK N   1      32.691   8.711  20.946  0.00  0.00    -0.352 N 
BRANCH  21  22
HETATM   22  C   UNK N   1      31.472   8.782  20.170  0.00  0.00     0.121 C 
HETATM   23  C   UNK N   1      30.760   7.441  20.172  0.00  0.00     0.026 C 
ENDBRANCH  21  22
BRANCH  21  24
HETATM   24  C   UNK N   1      32.598   8.804  22.390  0.00  0.00     0.121 C 
HETATM   25  C   UNK N   1      32.513  10.251  22.843  0.00  0.00     0.026 C 
ENDBRANCH  21  24
ENDBRANCH   6  19
TORSDOF 3
ENDMDL
MODEL 6
REMARK VINA RESULT:      -6.4      7.876      9.403
REMARK  3 active torsions:
REMARK  status: ('A' for Active; 'I' for Inactive)
REMARK       I    between atoms: N_4  and  C_16 
REMARK    1  A    between atoms: N_4  and  C_21 
REMARK    2  A    between atoms: N_4  and  C_22 
REMARK    3  A    between atoms: C_8  and  C_16 
ROOT
HETATM    1  N   UNK N   1      29.291  18.089   8.354  0.00  0.00     0.094 N 
HETATM    2  N   UNK N   1      34.403  15.224   6.698  0.00  0.00    -0.365 N 
HETATM    3  C   UNK N   1      30.534  17.617   7.690  0.00  0.00     0.260 C 
HETATM    4  C   UNK N   1      30.337  17.310   6.194  0.00  0.00    -0.017 C 
HETATM    5  C   UNK N   1      31.304  16.455   8.401  0.00  0.00     0.081 C 
HETATM    6  C   UNK N   1      27.892  17.721   6.343  0.00  0.00     0.129 C 
HETATM    7  C   UNK N   1      28.069  17.462   7.852  0.00  0.00     0.290 C 
HETATM    8  C   UNK N   1      32.500  16.068   7.551  0.00  0.00    -0.027 A 
HETATM    9  C   UNK N   1      31.513  16.822   5.451  0.00  0.00    -0.015 A 
HETATM   10  C   UNK N   1      32.507  16.257   6.210  0.00  0.00     0.009 A 
HETATM   11  C   UNK N   1      29.146  17.390   5.593  0.00  0.00    -0.001 C 
HETATM   12  C   UNK N   1      33.644  15.738   5.707  0.00  0.00     0.043 A 
HETATM   13  C   UNK N   1      29.340  17.945   9.805  0.00  0.00     0.310 C 
HETATM   14  C   UNK N   1      33.694  15.417   7.853  0.00  0.00     0.096 A 
HETATM   15  C   UNK N   1      31.681  16.824   4.052  0.00  0.00     0.013 A 
HETATM   16  C   UNK N   1      33.883  15.744   4.332  0.00  0.00     0.030 A 
HETATM   17  C   UNK N   1      32.877  16.295   3.495  0.00  0.00     0.003 A 
HETATM   18  H   UNK N   1      35.286  14.799   6.610  0.00  0.00     0.165 HD
ENDROOT
BRANCH   6  19
HETATM   19  C   UNK N   1      27.227  18.974   5.777  0.00  0.00     0.229 C 
HETATM   20  O   UNK N   1      27.743  20.048   6.069  0.00  0.00    -0.273 OA
HETATM   21  N   UNK N   1      26.135  18.977   4.947  0.00  0.00    -0.352 N 
BRANCH  21  22
HETATM   22  C   UNK N   1      25.468  17.759   4.546  0.00  0.00     0.121 C 
HETATM   23  C   UNK N   1      23.989  17.826   4.881  0.00  0.00     0.026 C 
ENDBRANCH  21  22
BRANCH  21  24
HETATM   24  C   UNK N   1      25.600  20.243   4.485  0.00  0.00     0.121 C 
HETATM   25  C   UNK N   1      25.938  20.481   3.023  0.00  0.00     0.026 C 
ENDBRANCH  21  24
ENDBRANCH   6  19
TORSDOF 3
ENDMDL
MODEL 7
REMARK VINA RESULT:      -6.2     16.281     17.541
REMARK  3 active torsions:
REMARK  status: ('A' for Active; 'I' for Inactive)
REMARK       I    between atoms: N_4  and  C_16 
REMARK    1  A    between atoms: N_4  and  C_21 
REMARK    2  A    between atoms: N_4  and  C_22 
REMARK    3  A    between atoms: C_8  and  C_16 
ROOT
HETATM    1  N   UNK N   1      27.524  22.454  -7.795  0.00  0.00     0.094 N 
HETATM    2  N   UNK N   1      31.948  19.864  -4.510  0.00  0.00    -0.365 N 
HETATM    3  C   UNK N   1      28.426  21.952  -6.727  0.00  0.00     0.260 C 
HETATM    4  C   UNK N   1      28.886  23.058  -5.759  0.00  0.00    -0.017 C 
HETATM    5  C   UNK N   1      29.639  21.080  -7.194  0.00  0.00     0.081 C 
HETATM    6  C   UNK N   1      27.774  24.821  -7.109  0.00  0.00     0.129 C 
HETATM    7  C   UNK N   1      27.843  23.802  -8.264  0.00  0.00     0.290 C 
HETATM    8  C   UNK N   1      30.476  20.715  -5.983  0.00  0.00    -0.027 A 
HETATM    9  C   UNK N   1      29.797  22.657  -4.671  0.00  0.00    -0.015 A 
HETATM   10  C   UNK N   1      30.502  21.498  -4.877  0.00  0.00     0.009 A 
HETATM   11  C   UNK N   1      28.560  24.342  -5.927  0.00  0.00    -0.001 C 
HETATM   12  C   UNK N   1      31.394  20.987  -4.008  0.00  0.00     0.043 A 
HETATM   13  C   UNK N   1      27.454  21.554  -8.941  0.00  0.00     0.310 C 
HETATM   14  C   UNK N   1      31.388  19.690  -5.747  0.00  0.00     0.096 A 
HETATM   15  C   UNK N   1      30.054  23.376  -3.487  0.00  0.00     0.013 A 
HETATM   16  C   UNK N   1      31.664  21.635  -2.800  0.00  0.00     0.030 A 
HETATM   17  C   UNK N   1      30.981  22.853  -2.544  0.00  0.00     0.003 A 
HETATM   18  H   UNK N   1      32.616  19.286  -4.076  0.00  0.00     0.165 HD
ENDROOT
BRANCH   6  19
HETATM   19  C   UNK N   1      26.484  25.510  -6.671  0.00  0.00     0.229 C 
HETATM   20  O   UNK N   1      25.443  24.880  -6.835  0.00  0.00    -0.273 OA
HETATM   21  N   UNK N   1      26.415  26.745  -6.081  0.00  0.00    -0.352 N 
BRANCH  21  22
HETATM   22  C   UNK N   1      27.590  27.554  -5.842  0.00  0.00     0.121 C 
HETATM   23  C   UNK N   1      27.851  28.474  -7.021  0.00  0.00     0.026 C 
ENDBRANCH  21  22
BRANCH  21  24
HETATM   24  C   UNK N   1      25.119  27.285  -5.716  0.00  0.00     0.121 C 
HETATM   25  C   UNK N   1      25.172  27.977  -4.365  0.00  0.00     0.026 C 
ENDBRANCH  21  24
ENDBRANCH   6  19
TORSDOF 3
ENDMDL
MODEL 8
REMARK VINA RESULT:      -6.2     15.934     17.359
REMARK  3 active torsions:
REMARK  status: ('A' for Active; 'I' for Inactive)
REMARK       I    between atoms: N_4  and  C_16 
REMARK    1  A    between atoms: N_4  and  C_21 
REMARK    2  A    between atoms: N_4  and  C_22 
REMARK    3  A    between atoms: C_8  and  C_16 
ROOT
HETATM    1  N   UNK N   1      27.172  25.008  -5.056  0.00  0.00     0.094 N 
HETATM    2  N   UNK N   1      31.627  21.289  -3.212  0.00  0.00    -0.365 N 
HETATM    3  C   UNK N   1      28.340  24.097  -4.942  0.00  0.00     0.260 C 
HETATM    4  C   UNK N   1      28.262  22.896  -5.902  0.00  0.00    -0.017 C 
HETATM    5  C   UNK N   1      28.721  23.632  -3.496  0.00  0.00     0.081 C 
HETATM    6  C   UNK N   1      25.985  23.537  -6.657  0.00  0.00     0.129 C 
HETATM    7  C   UNK N   1      25.908  24.328  -5.336  0.00  0.00     0.290 C 
HETATM    8  C   UNK N   1      29.887  22.666  -3.584  0.00  0.00    -0.027 A 
HETATM    9  C   UNK N   1      29.373  21.927  -5.852  0.00  0.00    -0.015 A 
HETATM   10  C   UNK N   1      30.104  21.915  -4.691  0.00  0.00     0.009 A 
HETATM   11  C   UNK N   1      27.208  22.672  -6.691  0.00  0.00    -0.001 C 
HETATM   12  C   UNK N   1      31.139  21.087  -4.454  0.00  0.00     0.043 A 
HETATM   13  C   UNK N   1      27.006  25.859  -3.883  0.00  0.00     0.310 C 
HETATM   14  C   UNK N   1      30.846  22.267  -2.657  0.00  0.00     0.096 A 
HETATM   15  C   UNK N   1      29.708  20.984  -6.844  0.00  0.00     0.013 A 
HETATM   16  C   UNK N   1      31.541  20.155  -5.414  0.00  0.00     0.030 A 
HETATM   17  C   UNK N   1      30.805  20.107  -6.627  0.00  0.00     0.003 A 
HETATM   18  H   UNK N   1      32.389  20.830  -2.791  0.00  0.00     0.165 HD
ENDROOT
BRANCH   6  19
HETATM   19  C   UNK N   1      25.709  24.156  -8.025  0.00  0.00     0.229 C 
HETATM   20  O   UNK N   1      24.738  23.720  -8.638  0.00  0.00    -0.273 OA
HETATM   21  N   UNK N   1      26.435  25.174  -8.588  0.00  0.00    -0.352 N 
BRANCH  21  22
HETATM   22  C   UNK N   1      27.588  25.751  -7.934  0.00  0.00     0.121 C 
HETATM   23  C   UNK N   1      27.400  27.246  -7.743  0.00  0.00     0.026 C 
ENDBRANCH  21  22
BRANCH  21  24
HETATM   24  C   UNK N   1      26.065  25.667  -9.901  0.00  0.00     0.121 C 
HETATM   25  C   UNK N   1      27.024  25.166 -10.966  0.00  0.00     0.026 C 
ENDBRANCH  21  24
ENDBRANCH   6  19
TORSDOF 3
ENDMDL
MODEL 9
REMARK VINA RESULT:      -6.1      8.362     11.280
REMARK  3 active torsions:
REMARK  status: ('A' for Active; 'I' for Inactive)
REMARK       I    between atoms: N_4  and  C_16 
REMARK    1  A    between atoms: N_4  and  C_21 
REMARK    2  A    between atoms: N_4  and  C_22 
REMARK    3  A    between atoms: C_8  and  C_16 
ROOT
HETATM    1  N   UNK N   1      30.124  17.575   8.915  0.00  0.00     0.094 N 
HETATM    2  N   UNK N   1      26.376  18.062   4.142  0.00  0.00    -0.365 N 
HETATM    3  C   UNK N   1      29.259  17.352   7.728  0.00  0.00     0.260 C 
HETATM    4  C   UNK N   1      29.974  16.590   6.597  0.00  0.00    -0.017 C 
HETATM    5  C   UNK N   1      28.510  18.608   7.168  0.00  0.00     0.081 C 
HETATM    6  C   UNK N   1      32.135  16.628   7.820  0.00  0.00     0.129 C 
HETATM    7  C   UNK N   1      31.530  17.816   8.594  0.00  0.00     0.290 C 
HETATM    8  C   UNK N   1      27.734  18.203   5.930  0.00  0.00    -0.027 A 
HETATM    9  C   UNK N   1      29.197  16.333   5.370  0.00  0.00    -0.015 A 
HETATM   10  C   UNK N   1      28.124  17.161   5.156  0.00  0.00     0.009 A 
HETATM   11  C   UNK N   1      31.262  16.244   6.664  0.00  0.00    -0.001 C 
HETATM   12  C   UNK N   1      27.314  17.093   4.084  0.00  0.00     0.043 A 
HETATM   13  C   UNK N   1      29.639  18.651   9.771  0.00  0.00     0.310 C 
HETATM   14  C   UNK N   1      26.635  18.766   5.286  0.00  0.00     0.096 A 
HETATM   15  C   UNK N   1      29.489  15.374   4.379  0.00  0.00     0.013 A 
HETATM   16  C   UNK N   1      27.530  16.139   3.086  0.00  0.00     0.030 A 
HETATM   17  C   UNK N   1      28.642  15.270   3.242  0.00  0.00     0.003 A 
HETATM   18  H   UNK N   1      25.653  18.228   3.494  0.00  0.00     0.165 HD
ENDROOT
BRANCH   6  19
HETATM   19  C   UNK N   1      32.724  15.394   8.499  0.00  0.00     0.229 C 
HETATM   20  O   UNK N   1      32.082  14.352   8.396  0.00  0.00    -0.273 OA
HETATM   21  N   UNK N   1      33.919  15.362   9.171  0.00  0.00    -0.352 N 
BRANCH  21  22
HETATM   22  C   UNK N   1      34.743  16.539   9.335  0.00  0.00     0.121 C 
HETATM   23  C   UNK N   1      35.320  16.593  10.738  0.00  0.00     0.026 C 
ENDBRANCH  21  22
BRANCH  21  24
HETATM   24  C   UNK N   1      34.360  14.119   9.775  0.00  0.00     0.121 C 
HETATM   25  C   UNK N   1      35.372  13.408   8.893  0.00  0.00     0.026 C 
ENDBRANCH  21  24
ENDBRANCH   6  19
TORSDOF 3
ENDMDL
