MODEL 1
REMARK VINA RESULT:      -5.4      0.000      0.000
REMARK  8 active torsions:
REMARK  status: ('A' for Active; 'I' for Inactive)
REMARK    1  A    between atoms: N_2  and  C_9 
REMARK    2  A    between atoms: N_2  and  C_11 
REMARK    3  A    between atoms: N_2  and  C_12 
REMARK    4  A    between atoms: N_3  and  C_8 
REMARK    5  A    between atoms: N_3  and  C_13 
REMARK    6  A    between atoms: C_6  and  C_7 
REMARK    7  A    between atoms: C_6  and  C_8 
REMARK    8  A    between atoms: C_7  and  C_9 
ROOT
HETATM    1 Cl   UNK N   1      29.937  29.662  -8.866  0.00  0.00    -0.084 Cl
HETATM    2  N   UNK N   1      26.991  29.465  -4.691  0.00  0.00    -0.365 N 
ATOM      3  HN  UNK N   1      27.387  30.370  -4.435  1.00  0.00     0.165 HD
HETATM    4  C   UNK N   1      25.916  27.007  -5.379  0.00  0.00     0.042 A 
HETATM    5  C   UNK N   1      26.872  27.606  -6.209  0.00  0.00     0.017 A 
HETATM    6  C   UNK N   1      25.504  27.658  -4.214  0.00  0.00     0.047 A 
HETATM    7  C   UNK N   1      27.402  28.862  -5.838  0.00  0.00     0.046 A 
HETATM    8  C   UNK N   1      27.283  27.004  -7.405  0.00  0.00     0.018 A 
HETATM    9  C   UNK N   1      26.064  28.890  -3.877  0.00  0.00     0.090 A 
HETATM   10  C   UNK N   1      28.340  29.490  -6.661  0.00  0.00     0.054 A 
HETATM   11  C   UNK N   1      28.223  27.638  -8.221  0.00  0.00     0.025 A 
HETATM   12  C   UNK N   1      28.751  28.878  -7.848  0.00  0.00     0.036 A 
ENDROOT
BRANCH   4  13
HETATM   13  N   UNK N   1      25.287  25.807  -5.764  0.00  0.00    -0.385 N 
HETATM   14  H   UNK N   1      24.374  25.800  -6.132  0.00  0.00     0.160 HD
BRANCH  13  15
HETATM   15  C   UNK N   1      26.036  24.595  -5.597  0.00  0.00     0.077 C 
HETATM   16  C   UNK N   1      25.922  23.628  -6.763  0.00  0.00     0.032 C 
BRANCH  15  17
HETATM   17  C   UNK N   1      26.042  24.089  -4.157  0.00  0.00     0.026 C 
BRANCH  17  18
HETATM   18  C   UNK N   1      27.283  24.443  -3.363  0.00  0.00     0.032 C 
BRANCH  18  19
HETATM   19  C   UNK N   1      28.565  23.808  -3.919  0.00  0.00     0.272 C 
BRANCH  19  20
HETATM   20  N   UNK N   1      29.771  24.369  -3.295  0.00  0.00     0.087 N 
BRANCH  20  21
HETATM   21  C   UNK N   1      30.533  25.126  -4.297  0.00  0.00     0.268 C 
HETATM   22  C   UNK N   1      30.019  26.549  -4.400  0.00  0.00     0.037 C 
ENDBRANCH  20  21
BRANCH  20  23
HETATM   23  C   UNK N   1      30.510  23.238  -2.711  0.00  0.00     0.268 C 
HETATM   24  C   UNK N   1      30.262  21.883  -3.363  0.00  0.00     0.037 C 
ENDBRANCH  20  23
ENDBRANCH  19  20
ENDBRANCH  18  19
ENDBRANCH  17  18
ENDBRANCH  15  17
ENDBRANCH  13  15
ENDBRANCH   4  13
TORSDOF 8
ENDMDL
MODEL 2
REMARK VINA RESULT:      -5.3     11.415     14.378
REMARK  8 active torsions:
REMARK  status: ('A' for Active; 'I' for Inactive)
REMARK    1  A    between atoms: N_2  and  C_9 
REMARK    2  A    between atoms: N_2  and  C_11 
REMARK    3  A    between atoms: N_2  and  C_12 
REMARK    4  A    between atoms: N_3  and  C_8 
REMARK    5  A    between atoms: N_3  and  C_13 
REMARK    6  A    between atoms: C_6  and  C_7 
REMARK    7  A    between atoms: C_6  and  C_8 
REMARK    8  A    between atoms: C_7  and  C_9 
ROOT
HETATM    1 Cl   UNK N   1      30.436  16.741   8.963  0.00  0.00    -0.084 Cl
HETATM    2  N   UNK N   1      27.036  20.416   7.922  0.00  0.00    -0.365 N 
ATOM      3  HN  UNK N   1      27.037  20.625   8.920  1.00  0.00     0.165 HD
HETATM    4  C   UNK N   1      27.030  19.853   5.209  0.00  0.00     0.042 A 
HETATM    5  C   UNK N   1      27.829  19.098   6.076  0.00  0.00     0.017 A 
HETATM    6  C   UNK N   1      26.247  20.893   5.718  0.00  0.00     0.047 A 
HETATM    7  C   UNK N   1      27.818  19.407   7.454  0.00  0.00     0.046 A 
HETATM    8  C   UNK N   1      28.656  18.072   5.600  0.00  0.00     0.018 A 
HETATM    9  C   UNK N   1      26.255  21.155   7.087  0.00  0.00     0.090 A 
HETATM   10  C   UNK N   1      28.625  18.682   8.335  0.00  0.00     0.054 A 
HETATM   11  C   UNK N   1      29.458  17.351   6.489  0.00  0.00     0.025 A 
HETATM   12  C   UNK N   1      29.440  17.655   7.853  0.00  0.00     0.036 A 
ENDROOT
BRANCH   4  13
HETATM   13  N   UNK N   1      27.090  19.646   3.818  0.00  0.00    -0.385 N 
HETATM   14  H   UNK N   1      27.938  19.719   3.324  0.00  0.00     0.160 HD
BRANCH  13  15
HETATM   15  C   UNK N   1      25.861  19.323   3.152  0.00  0.00     0.077 C 
HETATM   16  C   UNK N   1      25.089  20.531   2.649  0.00  0.00     0.032 C 
BRANCH  15  17
HETATM   17  C   UNK N   1      25.134  18.136   3.779  0.00  0.00     0.026 C 
BRANCH  17  18
HETATM   18  C   UNK N   1      23.772  18.458   4.360  0.00  0.00     0.032 C 
BRANCH  18  19
HETATM   19  C   UNK N   1      22.663  17.517   3.872  0.00  0.00     0.272 C 
BRANCH  19  20
HETATM   20  N   UNK N   1      21.357  18.188   3.817  0.00  0.00     0.087 N 
BRANCH  20  21
HETATM   21  C   UNK N   1      20.503  17.515   2.829  0.00  0.00     0.268 C 
HETATM   22  C   UNK N   1      20.417  16.029   3.118  0.00  0.00     0.037 C 
ENDBRANCH  20  21
BRANCH  20  23
HETATM   23  C   UNK N   1      21.621  19.603   3.513  0.00  0.00     0.268 C 
HETATM   24  C   UNK N   1      21.225  20.062   2.114  0.00  0.00     0.037 C 
ENDBRANCH  20  23
ENDBRANCH  19  20
ENDBRANCH  18  19
ENDBRANCH  17  18
ENDBRANCH  15  17
ENDBRANCH  13  15
ENDBRANCH   4  13
TORSDOF 8
ENDMDL
MODEL 3
REMARK VINA RESULT:      -5.2      3.774      5.553
REMARK  8 active torsions:
REMARK  status: ('A' for Active; 'I' for Inactive)
REMARK    1  A    between atoms: N_2  and  C_9 
REMARK    2  A    between atoms: N_2  and  C_11 
REMARK    3  A    between atoms: N_2  and  C_12 
REMARK    4  A    between atoms: N_3  and  C_8 
REMARK    5  A    between atoms: N_3  and  C_13 
REMARK    6  A    between atoms: C_6  and  C_7 
REMARK    7  A    between atoms: C_6  and  C_8 
REMARK    8  A    between atoms: C_7  and  C_9 
ROOT
HETATM    1 Cl   UNK N   1      25.676  21.023  -9.728  0.00  0.00    -0.084 Cl
HETATM    2  N   UNK N   1      25.384  24.026  -5.599  0.00  0.00    -0.365 N 
ATOM      3  HN  UNK N   1      24.386  24.105  -5.794  1.00  0.00     0.165 HD
HETATM    4  C   UNK N   1      28.094  23.815  -5.065  0.00  0.00     0.042 A 
HETATM    5  C   UNK N   1      27.550  23.160  -6.177  0.00  0.00     0.017 A 
HETATM    6  C   UNK N   1      27.264  24.563  -4.227  0.00  0.00     0.047 A 
HETATM    7  C   UNK N   1      26.164  23.280  -6.426  0.00  0.00     0.046 A 
HETATM    8  C   UNK N   1      28.341  22.370  -7.020  0.00  0.00     0.018 A 
HETATM    9  C   UNK N   1      25.904  24.667  -4.517  0.00  0.00     0.090 A 
HETATM   10  C   UNK N   1      25.595  22.617  -7.516  0.00  0.00     0.054 A 
HETATM   11  C   UNK N   1      27.763  21.712  -8.109  0.00  0.00     0.025 A 
HETATM   12  C   UNK N   1      26.393  21.837  -8.356  0.00  0.00     0.036 A 
ENDROOT
BRANCH   4  13
HETATM   13  N   UNK N   1      29.449  23.638  -4.724  0.00  0.00    -0.385 N 
HETATM   14  H   UNK N   1      30.083  23.212  -5.345  0.00  0.00     0.160 HD
BRANCH  13  15
HETATM   15  C   UNK N   1      29.863  24.105  -3.433  0.00  0.00     0.077 C 
HETATM   16  C   UNK N   1      30.748  25.339  -3.472  0.00  0.00     0.032 C 
BRANCH  15  17
HETATM   17  C   UNK N   1      30.142  22.973  -2.448  0.00  0.00     0.026 C 
BRANCH  17  18
HETATM   18  C   UNK N   1      30.314  21.606  -3.080  0.00  0.00     0.032 C 
BRANCH  18  19
HETATM   19  C   UNK N   1      31.751  21.322  -3.537  0.00  0.00     0.272 C 
BRANCH  19  20
HETATM   20  N   UNK N   1      31.819  20.175  -4.454  0.00  0.00     0.087 N 
BRANCH  20  21
HETATM   21  C   UNK N   1      33.200  19.677  -4.511  0.00  0.00     0.268 C 
HETATM   22  C   UNK N   1      34.125  20.566  -3.703  0.00  0.00     0.037 C 
ENDBRANCH  20  21
BRANCH  20  23
HETATM   23  C   UNK N   1      31.296  20.637  -5.749  0.00  0.00     0.268 C 
HETATM   24  C   UNK N   1      31.935  20.005  -6.981  0.00  0.00     0.037 C 
ENDBRANCH  20  23
ENDBRANCH  19  20
ENDBRANCH  18  19
ENDBRANCH  17  18
ENDBRANCH  15  17
ENDBRANCH  13  15
ENDBRANCH   4  13
TORSDOF 8
ENDMDL
MODEL 4
REMARK VINA RESULT:      -5.1     12.057     13.991
REMARK  8 active torsions:
REMARK  status: ('A' for Active; 'I' for Inactive)
REMARK    1  A    between atoms: N_2  and  C_9 
REMARK    2  A    between atoms: N_2  and  C_11 
REMARK    3  A    between atoms: N_2  and  C_12 
REMARK    4  A    between atoms: N_3  and  C_8 
REMARK    5  A    between atoms: N_3  and  C_13 
REMARK    6  A    between atoms: C_6  and  C_7 
REMARK    7  A    between atoms: C_6  and  C_8 
REMARK    8  A    between atoms: C_7  and  C_9 
ROOT
HETATM    1 Cl   UNK N   1      20.535  21.304   0.821  0.00  0.00    -0.084 Cl
HETATM    2  N   UNK N   1      19.449  17.187   3.654  0.00  0.00    -0.365 N 
ATOM      3  HN  UNK N   1      18.559  17.147   3.158  1.00  0.00     0.165 HD
HETATM    4  C   UNK N   1      21.864  17.291   5.007  0.00  0.00     0.042 A 
HETATM    5  C   UNK N   1      21.567  18.256   4.035  0.00  0.00     0.017 A 
HETATM    6  C   UNK N   1      20.943  16.278   5.281  0.00  0.00     0.047 A 
HETATM    7  C   UNK N   1      20.331  18.178   3.357  0.00  0.00     0.046 A 
HETATM    8  C   UNK N   1      22.480  19.266   3.705  0.00  0.00     0.018 A 
HETATM    9  C   UNK N   1      19.728  16.246   4.598  0.00  0.00     0.090 A 
HETATM   10  C   UNK N   1      20.022  19.115   2.367  0.00  0.00     0.054 A 
HETATM   11  C   UNK N   1      22.161  20.200   2.715  0.00  0.00     0.025 A 
HETATM   12  C   UNK N   1      20.934  20.125   2.050  0.00  0.00     0.036 A 
ENDROOT
BRANCH   4  13
HETATM   13  N   UNK N   1      23.126  17.272   5.632  0.00  0.00    -0.385 N 
HETATM   14  H   UNK N   1      23.396  17.975   6.266  0.00  0.00     0.160 HD
BRANCH  13  15
HETATM   15  C   UNK N   1      23.999  16.182   5.305  0.00  0.00     0.077 C 
HETATM   16  C   UNK N   1      24.453  15.367   6.505  0.00  0.00     0.032 C 
BRANCH  15  17
HETATM   17  C   UNK N   1      24.966  16.509   4.170  0.00  0.00     0.026 C 
BRANCH  17  18
HETATM   18  C   UNK N   1      25.716  17.817   4.329  0.00  0.00     0.032 C 
BRANCH  18  19
HETATM   19  C   UNK N   1      27.239  17.662   4.238  0.00  0.00     0.272 C 
BRANCH  19  20
HETATM   20  N   UNK N   1      27.943  18.664   5.050  0.00  0.00     0.087 N 
BRANCH  20  21
HETATM   21  C   UNK N   1      28.804  17.983   6.027  0.00  0.00     0.268 C 
HETATM   22  C   UNK N   1      28.001  17.000   6.857  0.00  0.00     0.037 C 
ENDBRANCH  20  21
BRANCH  20  23
HETATM   23  C   UNK N   1      26.911  19.519   5.657  0.00  0.00     0.268 C 
HETATM   24  C   UNK N   1      27.249  21.003   5.739  0.00  0.00     0.037 C 
ENDBRANCH  20  23
ENDBRANCH  19  20
ENDBRANCH  18  19
ENDBRANCH  17  18
ENDBRANCH  15  17
ENDBRANCH  13  15
ENDBRANCH   4  13
TORSDOF 8
ENDMDL
MODEL 5
REMARK VINA RESULT:      -5.1     11.444     13.718
REMARK  8 active torsions:
REMARK  status: ('A' for Active; 'I' for Inactive)
REMARK    1  A    between atoms: N_2  and  C_9 
REMARK    2  A    between atoms: N_2  and  C_11 
REMARK    3  A    between atoms: N_2  and  C_12 
REMARK    4  A    between atoms: N_3  and  C_8 
REMARK    5  A    between atoms: N_3  and  C_13 
REMARK    6  A    between atoms: C_6  and  C_7 
REMARK    7  A    between atoms: C_6  and  C_8 
REMARK    8  A    between atoms: C_7  and  C_9 
ROOT
HETATM    1 Cl   UNK N   1      26.936  20.413   3.445  0.00  0.00    -0.084 Cl
HETATM    2  N   UNK N   1      21.935  20.734   2.427  0.00  0.00    -0.365 N 
ATOM      3  HN  UNK N   1      22.159  21.550   1.856  1.00  0.00     0.165 HD
HETATM    4  C   UNK N   1      21.322  18.523   3.978  0.00  0.00     0.042 A 
HETATM    5  C   UNK N   1      22.649  18.958   3.878  0.00  0.00     0.017 A 
HETATM    6  C   UNK N   1      20.317  19.202   3.286  0.00  0.00     0.047 A 
HETATM    7  C   UNK N   1      22.936  20.086   3.078  0.00  0.00     0.046 A 
HETATM    8  C   UNK N   1      23.691  18.282   4.527  0.00  0.00     0.018 A 
HETATM    9  C   UNK N   1      20.642  20.320   2.518  0.00  0.00     0.090 A 
HETATM   10  C   UNK N   1      24.256  20.525   2.946  0.00  0.00     0.054 A 
HETATM   11  C   UNK N   1      25.007  18.729   4.390  0.00  0.00     0.025 A 
HETATM   12  C   UNK N   1      25.288  19.849   3.602  0.00  0.00     0.036 A 
ENDROOT
BRANCH   4  13
HETATM   13  N   UNK N   1      21.007  17.344   4.680  0.00  0.00    -0.385 N 
HETATM   14  H   UNK N   1      21.210  17.247   5.639  0.00  0.00     0.160 HD
BRANCH  13  15
HETATM   15  C   UNK N   1      20.376  16.290   3.939  0.00  0.00     0.077 C 
HETATM   16  C   UNK N   1      19.182  15.664   4.639  0.00  0.00     0.032 C 
BRANCH  15  17
HETATM   17  C   UNK N   1      21.368  15.429   3.161  0.00  0.00     0.026 C 
BRANCH  17  18
HETATM   18  C   UNK N   1      21.278  15.558   1.653  0.00  0.00     0.032 C 
BRANCH  18  19
HETATM   19  C   UNK N   1      21.773  14.314   0.904  0.00  0.00     0.272 C 
BRANCH  19  20
HETATM   20  N   UNK N   1      22.998  13.764   1.500  0.00  0.00     0.087 N 
BRANCH  20  21
HETATM   21  C   UNK N   1      24.164  14.486   0.973  0.00  0.00     0.268 C 
HETATM   22  C   UNK N   1      25.306  14.464   1.970  0.00  0.00     0.037 C 
ENDBRANCH  20  21
BRANCH  20  23
HETATM   23  C   UNK N   1      23.003  12.323   1.204  0.00  0.00     0.268 C 
HETATM   24  C   UNK N   1      23.488  11.938  -0.189  0.00  0.00     0.037 C 
ENDBRANCH  20  23
ENDBRANCH  19  20
ENDBRANCH  18  19
ENDBRANCH  17  18
ENDBRANCH  15  17
ENDBRANCH  13  15
ENDBRANCH   4  13
TORSDOF 8
ENDMDL
MODEL 6
REMARK VINA RESULT:      -5.0     11.591     15.217
REMARK  8 active torsions:
REMARK  status: ('A' for Active; 'I' for Inactive)
REMARK    1  A    between atoms: N_2  and  C_9 
REMARK    2  A    between atoms: N_2  and  C_11 
REMARK    3  A    between atoms: N_2  and  C_12 
REMARK    4  A    between atoms: N_3  and  C_8 
REMARK    5  A    between atoms: N_3  and  C_13 
REMARK    6  A    between atoms: C_6  and  C_7 
REMARK    7  A    between atoms: C_6  and  C_8 
REMARK    8  A    between atoms: C_7  and  C_9 
ROOT
HETATM    1 Cl   UNK N   1      34.588  18.314   8.169  0.00  0.00    -0.084 Cl
HETATM    2  N   UNK N   1      29.581  18.381   9.206  0.00  0.00    -0.365 N 
ATOM      3  HN  UNK N   1      29.804  19.003   9.982  1.00  0.00     0.165 HD
HETATM    4  C   UNK N   1      28.966  16.690   7.100  0.00  0.00     0.042 A 
HETATM    5  C   UNK N   1      30.299  17.047   7.341  0.00  0.00     0.017 A 
HETATM    6  C   UNK N   1      27.954  17.196   7.918  0.00  0.00     0.047 A 
HETATM    7  C   UNK N   1      30.586  17.914   8.419  0.00  0.00     0.046 A 
HETATM    8  C   UNK N   1      31.338  16.590   6.520  0.00  0.00     0.018 A 
HETATM    9  C   UNK N   1      28.282  18.038   8.980  0.00  0.00     0.090 A 
HETATM   10  C   UNK N   1      31.905  18.303   8.664  0.00  0.00     0.054 A 
HETATM   11  C   UNK N   1      32.655  16.983   6.775  0.00  0.00     0.025 A 
HETATM   12  C   UNK N   1      32.937  17.836   7.846  0.00  0.00     0.036 A 
ENDROOT
BRANCH   4  13
HETATM   13  N   UNK N   1      28.627  15.912   5.976  0.00  0.00    -0.385 N 
HETATM   14  H   UNK N   1      28.801  14.944   5.950  0.00  0.00     0.160 HD
BRANCH  13  15
HETATM   15  C   UNK N   1      28.016  16.593   4.871  0.00  0.00     0.077 C 
HETATM   16  C   UNK N   1      28.801  17.792   4.368  0.00  0.00     0.032 C 
BRANCH  15  17
HETATM   17  C   UNK N   1      26.493  16.637   4.963  0.00  0.00     0.026 C 
BRANCH  17  18
HETATM   18  C   UNK N   1      25.813  17.455   3.882  0.00  0.00     0.032 C 
BRANCH  18  19
HETATM   19  C   UNK N   1      25.440  18.873   4.334  0.00  0.00     0.272 C 
BRANCH  19  20
HETATM   20  N   UNK N   1      26.189  19.899   3.595  0.00  0.00     0.087 N 
BRANCH  20  21
HETATM   21  C   UNK N   1      26.820  20.823   4.548  0.00  0.00     0.268 C 
HETATM   22  C   UNK N   1      26.625  20.342   5.973  0.00  0.00     0.037 C 
ENDBRANCH  20  21
BRANCH  20  23
HETATM   23  C   UNK N   1      25.234  20.544   2.681  0.00  0.00     0.268 C 
HETATM   24  C   UNK N   1      23.764  20.417   3.066  0.00  0.00     0.037 C 
ENDBRANCH  20  23
ENDBRANCH  19  20
ENDBRANCH  18  19
ENDBRANCH  17  18
ENDBRANCH  15  17
ENDBRANCH  13  15
ENDBRANCH   4  13
TORSDOF 8
ENDMDL
MODEL 7
REMARK VINA RESULT:      -5.0     11.834     15.672
REMARK  8 active torsions:
REMARK  status: ('A' for Active; 'I' for Inactive)
REMARK    1  A    between atoms: N_2  and  C_9 
REMARK    2  A    between atoms: N_2  and  C_11 
REMARK    3  A    between atoms: N_2  and  C_12 
REMARK    4  A    between atoms: N_3  and  C_8 
REMARK    5  A    between atoms: N_3  and  C_13 
REMARK    6  A    between atoms: C_6  and  C_7 
REMARK    7  A    between atoms: C_6  and  C_8 
REMARK    8  A    between atoms: C_7  and  C_9 
ROOT
HETATM    1 Cl   UNK N   1      33.205  13.946   2.679  0.00  0.00    -0.084 Cl
HETATM    2  N   UNK N   1      34.063  17.305   6.437  0.00  0.00    -0.365 N 
ATOM      3  HN  UNK N   1      34.999  17.418   6.050  1.00  0.00     0.165 HD
HETATM    4  C   UNK N   1      31.520  17.003   7.495  0.00  0.00     0.042 A 
HETATM    5  C   UNK N   1      31.899  16.262   6.369  0.00  0.00     0.017 A 
HETATM    6  C   UNK N   1      32.425  17.897   8.072  0.00  0.00     0.047 A 
HETATM    7  C   UNK N   1      33.200  16.437   5.846  0.00  0.00     0.046 A 
HETATM    8  C   UNK N   1      31.009  15.383   5.738  0.00  0.00     0.018 A 
HETATM    9  C   UNK N   1      33.704  18.029   7.534  0.00  0.00     0.090 A 
HETATM   10  C   UNK N   1      33.593  15.726   4.710  0.00  0.00     0.054 A 
HETATM   11  C   UNK N   1      31.412  14.675   4.603  0.00  0.00     0.025 A 
HETATM   12  C   UNK N   1      32.701  14.845   4.092  0.00  0.00     0.036 A 
ENDROOT
BRANCH   4  13
HETATM   13  N   UNK N   1      30.202  16.935   7.985  0.00  0.00    -0.385 N 
HETATM   14  H   UNK N   1      29.703  16.087   8.001  0.00  0.00     0.160 HD
BRANCH  13  15
HETATM   15  C   UNK N   1      29.618  18.156   8.459  0.00  0.00     0.077 C 
HETATM   16  C   UNK N   1      29.278  18.150   9.940  0.00  0.00     0.032 C 
BRANCH  15  17
HETATM   17  C   UNK N   1      28.681  18.806   7.444  0.00  0.00     0.026 C 
BRANCH  17  18
HETATM   18  C   UNK N   1      28.170  17.875   6.363  0.00  0.00     0.032 C 
BRANCH  18  19
HETATM   19  C   UNK N   1      28.741  18.184   4.973  0.00  0.00     0.272 C 
BRANCH  19  20
HETATM   20  N   UNK N   1      27.686  18.271   3.952  0.00  0.00     0.087 N 
BRANCH  20  21
HETATM   21  C   UNK N   1      26.576  19.084   4.466  0.00  0.00     0.268 C 
HETATM   22  C   UNK N   1      26.367  20.315   3.604  0.00  0.00     0.037 C 
ENDBRANCH  20  21
BRANCH  20  23
HETATM   23  C   UNK N   1      27.309  16.890   3.614  0.00  0.00     0.268 C 
HETATM   24  C   UNK N   1      28.410  16.040   2.989  0.00  0.00     0.037 C 
ENDBRANCH  20  23
ENDBRANCH  19  20
ENDBRANCH  18  19
ENDBRANCH  17  18
ENDBRANCH  15  17
ENDBRANCH  13  15
ENDBRANCH   4  13
TORSDOF 8
ENDMDL
MODEL 8
REMARK VINA RESULT:      -5.0     11.896     15.976
REMARK  8 active torsions:
REMARK  status: ('A' for Active; 'I' for Inactive)
REMARK    1  A    between atoms: N_2  and  C_9 
REMARK    2  A    between atoms: N_2  and  C_11 
REMARK    3  A    between atoms: N_2  and  C_12 
REMARK    4  A    between atoms: N_3  and  C_8 
REMARK    5  A    between atoms: N_3  and  C_13 
REMARK    6  A    between atoms: C_6  and  C_7 
REMARK    7  A    between atoms: C_6  and  C_8 
REMARK    8  A    between atoms: C_7  and  C_9 
ROOT
HETATM    1 Cl   UNK N   1      32.922  13.591   2.908  0.00  0.00    -0.084 Cl
HETATM    2  N   UNK N   1      34.308  17.114   6.345  0.00  0.00    -0.365 N 
ATOM      3  HN  UNK N   1      35.166  17.226   5.805  1.00  0.00     0.165 HD
HETATM    4  C   UNK N   1      31.981  16.815   7.817  0.00  0.00     0.042 A 
HETATM    5  C   UNK N   1      32.187  16.034   6.672  0.00  0.00     0.017 A 
HETATM    6  C   UNK N   1      32.947  17.746   8.203  0.00  0.00     0.047 A 
HETATM    7  C   UNK N   1      33.380  16.209   5.937  0.00  0.00     0.046 A 
HETATM    8  C   UNK N   1      31.226  15.116   6.231  0.00  0.00     0.018 A 
HETATM    9  C   UNK N   1      34.117  17.876   7.457  0.00  0.00     0.090 A 
HETATM   10  C   UNK N   1      33.597  15.458   4.779  0.00  0.00     0.054 A 
HETATM   11  C   UNK N   1      31.453  14.368   5.072  0.00  0.00     0.025 A 
HETATM   12  C   UNK N   1      32.637  14.538   4.349  0.00  0.00     0.036 A 
ENDROOT
BRANCH   4  13
HETATM   13  N   UNK N   1      30.762  16.746   8.519  0.00  0.00    -0.385 N 
HETATM   14  H   UNK N   1      30.528  15.961   9.066  0.00  0.00     0.160 HD
BRANCH  13  15
HETATM   15  C   UNK N   1      29.878  17.868   8.404  0.00  0.00     0.077 C 
HETATM   16  C   UNK N   1      29.112  18.191   9.676  0.00  0.00     0.032 C 
BRANCH  15  17
HETATM   17  C   UNK N   1      29.201  17.960   7.039  0.00  0.00     0.026 C 
BRANCH  17  18
HETATM   18  C   UNK N   1      27.913  18.760   7.019  0.00  0.00     0.032 C 
BRANCH  18  19
HETATM   19  C   UNK N   1      27.147  18.649   5.695  0.00  0.00     0.272 C 
BRANCH  19  20
HETATM   20  N   UNK N   1      26.643  19.953   5.240  0.00  0.00     0.087 N 
BRANCH  20  21
HETATM   21  C   UNK N   1      26.981  20.139   3.823  0.00  0.00     0.268 C 
HETATM   22  C   UNK N   1      25.727  20.322   2.990  0.00  0.00     0.037 C 
ENDBRANCH  20  21
BRANCH  20  23
HETATM   23  C   UNK N   1      27.227  20.966   6.132  0.00  0.00     0.268 C 
HETATM   24  C   UNK N   1      26.229  21.783   6.945  0.00  0.00     0.037 C 
ENDBRANCH  20  23
ENDBRANCH  19  20
ENDBRANCH  18  19
ENDBRANCH  17  18
ENDBRANCH  15  17
ENDBRANCH  13  15
ENDBRANCH   4  13
TORSDOF 8
ENDMDL
MODEL 9
REMARK VINA RESULT:      -5.0     14.288     18.182
REMARK  8 active torsions:
REMARK  status: ('A' for Active; 'I' for Inactive)
REMARK    1  A    between atoms: N_2  and  C_9 
REMARK    2  A    between atoms: N_2  and  C_11 
REMARK    3  A    between atoms: N_2  and  C_12 
REMARK    4  A    between atoms: N_3  and  C_8 
REMARK    5  A    between atoms: N_3  and  C_13 
REMARK    6  A    between atoms: C_6  and  C_7 
REMARK    7  A    between atoms: C_6  and  C_8 
REMARK    8  A    between atoms: C_7  and  C_9 
ROOT
HETATM    1 Cl   UNK N   1      35.773  14.474  12.843  0.00  0.00    -0.084 Cl
HETATM    2  N   UNK N   1      35.026  18.074   9.288  0.00  0.00    -0.365 N 
ATOM      3  HN  UNK N   1      35.596  18.689   9.869  1.00  0.00     0.165 HD
HETATM    4  C   UNK N   1      33.476  16.408   7.708  0.00  0.00     0.042 A 
HETATM    5  C   UNK N   1      33.994  15.935   8.920  0.00  0.00     0.017 A 
HETATM    6  C   UNK N   1      33.752  17.715   7.300  0.00  0.00     0.047 A 
HETATM    7  C   UNK N   1      34.785  16.803   9.706  0.00  0.00     0.046 A 
HETATM    8  C   UNK N   1      33.771  14.620   9.347  0.00  0.00     0.018 A 
HETATM    9  C   UNK N   1      34.525  18.543   8.112  0.00  0.00     0.090 A 
HETATM   10  C   UNK N   1      35.332  16.346  10.908  0.00  0.00     0.054 A 
HETATM   11  C   UNK N   1      34.321  14.172  10.551  0.00  0.00     0.025 A 
HETATM   12  C   UNK N   1      35.098  15.035  11.330  0.00  0.00     0.036 A 
ENDROOT
BRANCH   4  13
HETATM   13  N   UNK N   1      32.770  15.545   6.847  0.00  0.00    -0.385 N 
HETATM   14  H   UNK N   1      32.926  14.573   6.854  0.00  0.00     0.160 HD
BRANCH  13  15
HETATM   15  C   UNK N   1      31.815  16.145   5.962  0.00  0.00     0.077 C 
HETATM   16  C   UNK N   1      32.428  16.799   4.735  0.00  0.00     0.032 C 
BRANCH  15  17
HETATM   17  C   UNK N   1      30.645  16.797   6.695  0.00  0.00     0.026 C 
BRANCH  17  18
HETATM   18  C   UNK N   1      29.280  16.502   6.106  0.00  0.00     0.032 C 
BRANCH  18  19
HETATM   19  C   UNK N   1      28.135  17.222   6.830  0.00  0.00     0.272 C 
BRANCH  19  20
HETATM   20  N   UNK N   1      28.613  18.378   7.602  0.00  0.00     0.087 N 
BRANCH  20  21
HETATM   21  C   UNK N   1      28.403  18.128   9.034  0.00  0.00     0.268 C 
HETATM   22  C   UNK N   1      29.592  18.607   9.844  0.00  0.00     0.037 C 
ENDBRANCH  20  21
BRANCH  20  23
HETATM   23  C   UNK N   1      27.897  19.556   7.088  0.00  0.00     0.268 C 
HETATM   24  C   UNK N   1      27.612  19.553   5.591  0.00  0.00     0.037 C 
ENDBRANCH  20  23
ENDBRANCH  19  20
ENDBRANCH  18  19
ENDBRANCH  17  18
ENDBRANCH  15  17
ENDBRANCH  13  15
ENDBRANCH   4  13
TORSDOF 8
ENDMDL
