MODEL 1
REMARK VINA RESULT:      -7.5      0.000      0.000
REMARK  1 active torsions:
REMARK  status: ('A' for Active; 'I' for Inactive)
REMARK    1  A    between atoms: C_3  and  O_21 
ROOT
HETATM    1  C   UNK N   1      30.342  21.586  -5.149  0.00  0.00     0.008 C 
HETATM    2  C   UNK N   1      27.924  22.328  -6.815  0.00  0.00     0.006 C 
HETATM    3  C   UNK N   1      29.968  22.638  -3.003  0.00  0.00     0.126 C 
HETATM    4  C   UNK N   1      29.346  24.942  -3.672  0.00  0.00     0.012 C 
HETATM    5  C   UNK N   1      30.439  21.349  -3.644  0.00  0.00     0.033 C 
HETATM    6  C   UNK N   1      26.530  24.871  -6.073  0.00  0.00    -0.035 C 
HETATM    7  C   UNK N   1      28.713  25.629  -4.885  0.00  0.00     0.007 C 
HETATM    8  C   UNK N   1      26.409  22.474  -6.992  0.00  0.00     0.006 C 
HETATM    9  C   UNK N   1      25.996  23.937  -7.211  0.00  0.00     0.001 C 
HETATM   10  C   UNK N   1      26.146  26.345  -6.376  0.00  0.00     0.021 C 
HETATM   11  C   UNK N   1      26.476  24.400  -8.595  0.00  0.00     0.084 C 
HETATM   12  C   UNK N   1      26.478  26.845  -7.790  0.00  0.00     0.052 C 
HETATM   13  C   UNK N   1      28.386  23.165  -5.619  0.00  0.00    -0.005 C 
HETATM   14  C   UNK N   1      28.069  24.662  -5.907  0.00  0.00    -0.002 C 
HETATM   15  C   UNK N   1      30.243  23.738  -4.021  0.00  0.00    -0.014 C 
HETATM   16  C   UNK N   1      31.717  24.140  -4.016  0.00  0.00     0.018 C 
HETATM   17  C   UNK N   1      29.897  23.039  -5.350  0.00  0.00     0.001 C 
HETATM   18  O   UNK N   1      25.276  26.115  -9.685  0.00  0.00    -0.298 OA
HETATM   19  C   UNK N   1      26.046  25.819  -8.787  0.00  0.00     0.131 C 
HETATM   20  C   UNK N   1      25.827  24.520  -4.764  0.00  0.00     0.016 C 
HETATM   21  C   UNK N   1      27.952  27.180  -7.942  0.00  0.00     0.018 C 
ENDROOT
BRANCH   3  22
HETATM   22  O   UNK N   1      30.591  22.864  -1.773  0.00  0.00    -0.395 OA
HETATM   23  H   UNK N   1      30.420  22.274  -1.022  0.00  0.00     0.210 HD
ENDBRANCH   3  22
TORSDOF 1
ENDMDL
MODEL 2
REMARK VINA RESULT:      -7.3     22.664     26.551
REMARK  1 active torsions:
REMARK  status: ('A' for Active; 'I' for Inactive)
REMARK    1  A    between atoms: C_3  and  O_21 
ROOT
HETATM    1  C   UNK N   1      35.203  12.022  19.002  0.00  0.00     0.008 C 
HETATM    2  C   UNK N   1      35.820  13.165  16.265  0.00  0.00     0.006 C 
HETATM    3  C   UNK N   1      36.518   9.996  19.143  0.00  0.00     0.126 C 
HETATM    4  C   UNK N   1      35.986   8.899  16.984  0.00  0.00     0.012 C 
HETATM    5  C   UNK N   1      36.105  11.219  19.935  0.00  0.00     0.033 C 
HETATM    6  C   UNK N   1      36.664  11.204  14.168  0.00  0.00    -0.035 C 
HETATM    7  C   UNK N   1      35.549   9.330  15.581  0.00  0.00     0.007 C 
HETATM    8  C   UNK N   1      36.813  13.564  15.170  0.00  0.00     0.006 C 
HETATM    9  C   UNK N   1      36.615  12.744  13.888  0.00  0.00     0.001 C 
HETATM   10  C   UNK N   1      36.390  10.419  12.855  0.00  0.00     0.021 C 
HETATM   11  C   UNK N   1      35.295  13.155  13.218  0.00  0.00     0.084 C 
HETATM   12  C   UNK N   1      35.153  10.861  12.058  0.00  0.00     0.052 C 
HETATM   13  C   UNK N   1      35.983  11.678  16.591  0.00  0.00    -0.005 C 
HETATM   14  C   UNK N   1      35.661  10.849  15.312  0.00  0.00    -0.002 C 
HETATM   15  C   UNK N   1      35.410   9.765  18.121  0.00  0.00    -0.014 C 
HETATM   16  C   UNK N   1      34.201   9.084  18.762  0.00  0.00     0.018 C 
HETATM   17  C   UNK N   1      35.042  11.206  17.715  0.00  0.00     0.001 C 
HETATM   18  O   UNK N   1      35.094  12.905  10.880  0.00  0.00    -0.298 OA
HETATM   19  C   UNK N   1      35.137  12.353  11.967  0.00  0.00     0.131 C 
HETATM   20  C   UNK N   1      38.078  10.816  14.595  0.00  0.00     0.016 C 
HETATM   21  C   UNK N   1      33.867  10.329  12.666  0.00  0.00     0.018 C 
ENDROOT
BRANCH   3  22
HETATM   22  O   UNK N   1      36.738   8.891  19.969  0.00  0.00    -0.395 OA
HETATM   23  H   UNK N   1      37.516   8.328  19.836  0.00  0.00     0.210 HD
ENDBRANCH   3  22
TORSDOF 1
ENDMDL
MODEL 3
REMARK VINA RESULT:      -7.0      1.759      2.166
REMARK  1 active torsions:
REMARK  status: ('A' for Active; 'I' for Inactive)
REMARK    1  A    between atoms: C_3  and  O_21 
ROOT
HETATM    1  C   UNK N   1      30.126  21.892  -6.590  0.00  0.00     0.008 C 
HETATM    2  C   UNK N   1      27.354  23.101  -6.430  0.00  0.00     0.006 C 
HETATM    3  C   UNK N   1      30.941  21.896  -4.312  0.00  0.00     0.126 C 
HETATM    4  C   UNK N   1      30.432  24.216  -3.599  0.00  0.00     0.012 C 
HETATM    5  C   UNK N   1      30.867  21.042  -5.561  0.00  0.00     0.033 C 
HETATM    6  C   UNK N   1      26.853  24.977  -4.153  0.00  0.00    -0.035 C 
HETATM    7  C   UNK N   1      29.423  25.308  -3.962  0.00  0.00     0.007 C 
HETATM    8  C   UNK N   1      25.968  23.201  -5.785  0.00  0.00     0.006 C 
HETATM    9  C   UNK N   1      25.723  24.584  -5.164  0.00  0.00     0.001 C 
HETATM   10  C   UNK N   1      26.597  26.408  -3.605  0.00  0.00     0.021 C 
HETATM   11  C   UNK N   1      25.577  25.627  -6.282  0.00  0.00     0.084 C 
HETATM   12  C   UNK N   1      26.313  27.487  -4.662  0.00  0.00     0.052 C 
HETATM   13  C   UNK N   1      28.432  23.377  -5.380  0.00  0.00    -0.005 C 
HETATM   14  C   UNK N   1      28.246  24.828  -4.843  0.00  0.00    -0.002 C 
HETATM   15  C   UNK N   1      30.877  23.343  -4.789  0.00  0.00    -0.014 C 
HETATM   16  C   UNK N   1      32.231  23.807  -5.325  0.00  0.00     0.018 C 
HETATM   17  C   UNK N   1      29.860  23.256  -5.944  0.00  0.00     0.001 C 
HETATM   18  O   UNK N   1      24.280  27.553  -5.860  0.00  0.00    -0.298 OA
HETATM   19  C   UNK N   1      25.323  26.957  -5.649  0.00  0.00     0.131 C 
HETATM   20  C   UNK N   1      26.786  24.052  -2.940  0.00  0.00     0.016 C 
HETATM   21  C   UNK N   1      27.583  27.958  -5.348  0.00  0.00     0.018 C 
ENDROOT
BRANCH   3  22
HETATM   22  O   UNK N   1      32.085  21.619  -3.560  0.00  0.00    -0.395 OA
HETATM   23  H   UNK N   1      32.340  20.701  -3.377  0.00  0.00     0.210 HD
ENDBRANCH   3  22
TORSDOF 1
ENDMDL
MODEL 4
REMARK VINA RESULT:      -6.9      3.186      4.560
REMARK  1 active torsions:
REMARK  status: ('A' for Active; 'I' for Inactive)
REMARK    1  A    between atoms: C_3  and  O_21 
ROOT
HETATM    1  C   UNK N   1      30.915  27.608  -3.266  0.00  0.00     0.008 C 
HETATM    2  C   UNK N   1      28.758  25.589  -3.934  0.00  0.00     0.006 C 
HETATM    3  C   UNK N   1      29.728  29.679  -2.867  0.00  0.00     0.126 C 
HETATM    4  C   UNK N   1      28.229  29.789  -4.838  0.00  0.00     0.012 C 
HETATM    5  C   UNK N   1      30.850  28.813  -2.331  0.00  0.00     0.033 C 
HETATM    6  C   UNK N   1      26.234  26.683  -5.113  0.00  0.00    -0.035 C 
HETATM    7  C   UNK N   1      27.568  28.803  -5.804  0.00  0.00     0.007 C 
HETATM    8  C   UNK N   1      27.407  24.925  -3.651  0.00  0.00     0.006 C 
HETATM    9  C   UNK N   1      26.403  25.160  -4.789  0.00  0.00     0.001 C 
HETATM   10  C   UNK N   1      25.264  26.863  -6.313  0.00  0.00     0.021 C 
HETATM   11  C   UNK N   1      26.842  24.364  -6.028  0.00  0.00     0.084 C 
HETATM   12  C   UNK N   1      25.563  26.001  -7.549  0.00  0.00     0.052 C 
HETATM   13  C   UNK N   1      28.562  27.095  -4.127  0.00  0.00    -0.005 C 
HETATM   14  C   UNK N   1      27.637  27.323  -5.360  0.00  0.00    -0.002 C 
HETATM   15  C   UNK N   1      29.628  29.362  -4.355  0.00  0.00    -0.014 C 
HETATM   16  C   UNK N   1      30.719  30.083  -5.148  0.00  0.00     0.018 C 
HETATM   17  C   UNK N   1      29.885  27.842  -4.377  0.00  0.00     0.001 C 
HETATM   18  O   UNK N   1      25.187  23.671  -7.562  0.00  0.00    -0.298 OA
HETATM   19  C   UNK N   1      25.839  24.599  -7.112  0.00  0.00     0.131 C 
HETATM   20  C   UNK N   1      25.563  27.376  -3.929  0.00  0.00     0.016 C 
HETATM   21  C   UNK N   1      26.710  26.563  -8.369  0.00  0.00     0.018 C 
ENDROOT
BRANCH   3  22
HETATM   22  O   UNK N   1      29.951  31.034  -2.611  0.00  0.00    -0.395 OA
HETATM   23  H   UNK N   1      30.293  31.320  -1.749  0.00  0.00     0.210 HD
ENDBRANCH   3  22
TORSDOF 1
ENDMDL
MODEL 5
REMARK VINA RESULT:      -6.8      2.984      4.830
REMARK  1 active torsions:
REMARK  status: ('A' for Active; 'I' for Inactive)
REMARK    1  A    between atoms: C_3  and  O_21 
ROOT
HETATM    1  C   UNK N   1      29.865  28.628  -4.070  0.00  0.00     0.008 C 
HETATM    2  C   UNK N   1      29.744  25.698  -4.826  0.00  0.00     0.006 C 
HETATM    3  C   UNK N   1      27.998  28.962  -2.567  0.00  0.00     0.126 C 
HETATM    4  C   UNK N   1      26.147  27.884  -3.816  0.00  0.00     0.012 C 
HETATM    5  C   UNK N   1      29.462  29.302  -2.761  0.00  0.00     0.033 C 
HETATM    6  C   UNK N   1      27.047  24.405  -4.703  0.00  0.00    -0.035 C 
HETATM    7  C   UNK N   1      25.990  26.774  -4.858  0.00  0.00     0.007 C 
HETATM    8  C   UNK N   1      29.597  24.220  -4.452  0.00  0.00     0.006 C 
HETATM    9  C   UNK N   1      28.336  23.594  -5.067  0.00  0.00     0.001 C 
HETATM   10  C   UNK N   1      25.812  23.774  -5.402  0.00  0.00     0.021 C 
HETATM   11  C   UNK N   1      28.517  23.472  -6.587  0.00  0.00     0.084 C 
HETATM   12  C   UNK N   1      25.963  23.501  -6.907  0.00  0.00     0.052 C 
HETATM   13  C   UNK N   1      28.514  26.474  -4.348  0.00  0.00    -0.005 C 
HETATM   14  C   UNK N   1      27.255  25.909  -5.070  0.00  0.00    -0.002 C 
HETATM   15  C   UNK N   1      27.437  28.715  -3.963  0.00  0.00    -0.014 C 
HETATM   16  C   UNK N   1      27.154  30.032  -4.686  0.00  0.00     0.018 C 
HETATM   17  C   UNK N   1      28.604  27.981  -4.653  0.00  0.00     0.001 C 
HETATM   18  O   UNK N   1      27.343  21.770  -7.725  0.00  0.00    -0.298 OA
HETATM   19  C   UNK N   1      27.283  22.846  -7.155  0.00  0.00     0.131 C 
HETATM   20  C   UNK N   1      26.782  24.282  -3.204  0.00  0.00     0.016 C 
HETATM   21  C   UNK N   1      25.807  24.765  -7.732  0.00  0.00     0.018 C 
ENDROOT
BRANCH   3  22
HETATM   22  O   UNK N   1      27.318  29.968  -1.875  0.00  0.00    -0.395 OA
HETATM   23  H   UNK N   1      26.400  30.183  -2.102  0.00  0.00     0.210 HD
ENDBRANCH   3  22
TORSDOF 1
ENDMDL
MODEL 6
REMARK VINA RESULT:      -6.7     12.362     16.891
REMARK  1 active torsions:
REMARK  status: ('A' for Active; 'I' for Inactive)
REMARK    1  A    between atoms: C_3  and  O_21 
ROOT
HETATM    1  C   UNK N   1      33.180  16.985   3.504  0.00  0.00     0.008 C 
HETATM    2  C   UNK N   1      33.867  17.648   6.379  0.00  0.00     0.006 C 
HETATM    3  C   UNK N   1      30.910  16.154   3.582  0.00  0.00     0.126 C 
HETATM    4  C   UNK N   1      31.036  14.513   5.436  0.00  0.00     0.012 C 
HETATM    5  C   UNK N   1      31.831  17.062   2.795  0.00  0.00     0.033 C 
HETATM    6  C   UNK N   1      32.391  16.117   8.484  0.00  0.00    -0.035 C 
HETATM    7  C   UNK N   1      31.879  14.302   6.696  0.00  0.00     0.007 C 
HETATM    8  C   UNK N   1      33.527  18.293   7.726  0.00  0.00     0.006 C 
HETATM    9  C   UNK N   1      33.408  17.251   8.848  0.00  0.00     0.001 C 
HETATM   10  C   UNK N   1      32.358  15.054   9.617  0.00  0.00     0.021 C 
HETATM   11  C   UNK N   1      34.800  16.681   9.164  0.00  0.00     0.084 C 
HETATM   12  C   UNK N   1      33.726  14.529  10.080  0.00  0.00     0.052 C 
HETATM   13  C   UNK N   1      32.785  16.631   6.006  0.00  0.00    -0.005 C 
HETATM   14  C   UNK N   1      32.757  15.514   7.091  0.00  0.00    -0.002 C 
HETATM   15  C   UNK N   1      31.809  15.119   4.249  0.00  0.00    -0.014 C 
HETATM   16  C   UNK N   1      32.226  14.030   3.260  0.00  0.00     0.018 C 
HETATM   17  C   UNK N   1      33.036  15.966   4.640  0.00  0.00     0.001 C 
HETATM   18  O   UNK N   1      35.211  15.863  11.339  0.00  0.00    -0.298 OA
HETATM   19  C   UNK N   1      34.656  15.684  10.268  0.00  0.00     0.131 C 
HETATM   20  C   UNK N   1      30.983  16.705   8.427  0.00  0.00     0.016 C 
HETATM   21  C   UNK N   1      34.299  13.507   9.114  0.00  0.00     0.018 C 
ENDROOT
BRANCH   3  22
HETATM   22  O   UNK N   1      29.927  15.581   2.770  0.00  0.00    -0.395 OA
HETATM   23  H   UNK N   1      30.067  14.706   2.375  0.00  0.00     0.210 HD
ENDBRANCH   3  22
TORSDOF 1
ENDMDL
MODEL 7
REMARK VINA RESULT:      -6.7      2.078      5.690
REMARK  1 active torsions:
REMARK  status: ('A' for Active; 'I' for Inactive)
REMARK    1  A    between atoms: C_3  and  O_21 
ROOT
HETATM    1  C   UNK N   1      25.441  25.267  -5.487  0.00  0.00     0.008 C 
HETATM    2  C   UNK N   1      27.532  23.191  -6.187  0.00  0.00     0.006 C 
HETATM    3  C   UNK N   1      26.618  27.380  -5.537  0.00  0.00     0.126 C 
HETATM    4  C   UNK N   1      28.631  26.867  -4.184  0.00  0.00     0.012 C 
HETATM    5  C   UNK N   1      25.325  26.714  -5.959  0.00  0.00     0.033 C 
HETATM    6  C   UNK N   1      30.368  23.892  -5.536  0.00  0.00    -0.035 C 
HETATM    7  C   UNK N   1      29.465  25.633  -3.832  0.00  0.00     0.007 C 
HETATM    8  C   UNK N   1      28.686  22.689  -7.061  0.00  0.00     0.006 C 
HETATM    9  C   UNK N   1      29.993  22.557  -6.266  0.00  0.00     0.001 C 
HETATM   10  C   UNK N   1      31.657  23.688  -4.693  0.00  0.00     0.021 C 
HETATM   11  C   UNK N   1      29.873  21.388  -5.277  0.00  0.00     0.084 C 
HETATM   12  C   UNK N   1      31.665  22.459  -3.771  0.00  0.00     0.052 C 
HETATM   13  C   UNK N   1      27.894  24.552  -5.588  0.00  0.00    -0.005 C 
HETATM   14  C   UNK N   1      29.153  24.382  -4.687  0.00  0.00    -0.002 C 
HETATM   15  C   UNK N   1      27.123  26.592  -4.333  0.00  0.00    -0.014 C 
HETATM   16  C   UNK N   1      26.371  26.985  -3.061  0.00  0.00     0.018 C 
HETATM   17  C   UNK N   1      26.764  25.145  -4.725  0.00  0.00     0.001 C 
HETATM   18  O   UNK N   1      31.843  20.265  -4.621  0.00  0.00    -0.298 OA
HETATM   19  C   UNK N   1      31.163  21.274  -4.531  0.00  0.00     0.131 C 
HETATM   20  C   UNK N   1      30.718  24.952  -6.578  0.00  0.00     0.016 C 
HETATM   21  C   UNK N   1      30.854  22.692  -2.509  0.00  0.00     0.018 C 
ENDROOT
BRANCH   3  22
HETATM   22  O   UNK N   1      26.438  28.738  -5.264  0.00  0.00    -0.395 OA
HETATM   23  H   UNK N   1      26.129  29.341  -5.959  0.00  0.00     0.210 HD
ENDBRANCH   3  22
TORSDOF 1
ENDMDL
MODEL 8
REMARK VINA RESULT:      -6.7      2.647      5.788
REMARK  1 active torsions:
REMARK  status: ('A' for Active; 'I' for Inactive)
REMARK    1  A    between atoms: C_3  and  O_21 
ROOT
HETATM    1  C   UNK N   1      28.333  28.195  -5.058  0.00  0.00     0.008 C 
HETATM    2  C   UNK N   1      30.625  26.215  -4.994  0.00  0.00     0.006 C 
HETATM    3  C   UNK N   1      26.782  27.408  -3.377  0.00  0.00     0.126 C 
HETATM    4  C   UNK N   1      26.606  25.000  -3.940  0.00  0.00     0.012 C 
HETATM    5  C   UNK N   1      27.434  28.664  -3.918  0.00  0.00     0.033 C 
HETATM    6  C   UNK N   1      29.967  23.453  -4.045  0.00  0.00    -0.035 C 
HETATM    7  C   UNK N   1      27.477  23.936  -4.611  0.00  0.00     0.007 C 
HETATM    8  C   UNK N   1      31.656  25.380  -4.230  0.00  0.00     0.006 C 
HETATM    9  C   UNK N   1      31.429  23.873  -4.418  0.00  0.00     0.001 C 
HETATM   10  C   UNK N   1      29.767  21.937  -4.317  0.00  0.00     0.021 C 
HETATM   11  C   UNK N   1      31.779  23.481  -5.861  0.00  0.00     0.084 C 
HETATM   12  C   UNK N   1      30.217  21.441  -5.700  0.00  0.00     0.052 C 
HETATM   13  C   UNK N   1      29.215  25.856  -4.515  0.00  0.00    -0.005 C 
HETATM   14  C   UNK N   1      28.952  24.352  -4.822  0.00  0.00    -0.002 C 
HETATM   15  C   UNK N   1      26.762  26.414  -4.532  0.00  0.00    -0.014 C 
HETATM   16  C   UNK N   1      25.626  26.723  -5.507  0.00  0.00     0.018 C 
HETATM   17  C   UNK N   1      28.119  26.685  -5.211  0.00  0.00     0.001 C 
HETATM   18  O   UNK N   1      32.498  21.272  -6.283  0.00  0.00    -0.298 OA
HETATM   19  C   UNK N   1      31.564  22.009  -6.010  0.00  0.00     0.131 C 
HETATM   20  C   UNK N   1      29.759  23.636  -2.544  0.00  0.00     0.016 C 
HETATM   21  C   UNK N   1      29.208  21.786  -6.782  0.00  0.00     0.018 C 
ENDROOT
BRANCH   3  22
HETATM   22  O   UNK N   1      25.511  27.666  -2.856  0.00  0.00    -0.395 OA
HETATM   23  H   UNK N   1      24.912  28.280  -3.309  0.00  0.00     0.210 HD
ENDBRANCH   3  22
TORSDOF 1
ENDMDL
MODEL 9
REMARK VINA RESULT:      -6.7      1.853      6.228
REMARK  1 active torsions:
REMARK  status: ('A' for Active; 'I' for Inactive)
REMARK    1  A    between atoms: C_3  and  O_21 
ROOT
HETATM    1  C   UNK N   1      27.318  20.842  -8.328  0.00  0.00     0.008 C 
HETATM    2  C   UNK N   1      29.853  20.515  -6.703  0.00  0.00     0.006 C 
HETATM    3  C   UNK N   1      27.318  23.159  -9.023  0.00  0.00     0.126 C 
HETATM    4  C   UNK N   1      27.807  24.325  -6.891  0.00  0.00     0.012 C 
HETATM    5  C   UNK N   1      27.051  21.754  -9.522  0.00  0.00     0.033 C 
HETATM    6  C   UNK N   1      30.903  22.980  -5.370  0.00  0.00    -0.035 C 
HETATM    7  C   UNK N   1      28.526  24.010  -5.577  0.00  0.00     0.007 C 
HETATM    8  C   UNK N   1      31.358  20.721  -6.506  0.00  0.00     0.006 C 
HETATM    9  C   UNK N   1      31.661  21.612  -5.293  0.00  0.00     0.001 C 
HETATM   10  C   UNK N   1      31.187  23.815  -4.092  0.00  0.00     0.021 C 
HETATM   11  C   UNK N   1      31.322  20.850  -4.003  0.00  0.00     0.084 C 
HETATM   12  C   UNK N   1      30.995  23.079  -2.756  0.00  0.00     0.052 C 
HETATM   13  C   UNK N   1      29.167  21.870  -6.891  0.00  0.00    -0.005 C 
HETATM   14  C   UNK N   1      29.381  22.721  -5.604  0.00  0.00    -0.002 C 
HETATM   15  C   UNK N   1      27.077  23.122  -7.518  0.00  0.00    -0.014 C 
HETATM   16  C   UNK N   1      25.583  23.167  -7.197  0.00  0.00     0.018 C 
HETATM   17  C   UNK N   1      27.651  21.744  -7.135  0.00  0.00     0.001 C 
HETATM   18  O   UNK N   1      32.492  21.405  -2.029  0.00  0.00    -0.298 OA
HETATM   19  C   UNK N   1      31.643  21.734  -2.841  0.00  0.00     0.131 C 
HETATM   20  C   UNK N   1      31.461  23.799  -6.532  0.00  0.00     0.016 C 
HETATM   21  C   UNK N   1      29.529  22.965  -2.378  0.00  0.00     0.018 C 
ENDROOT
BRANCH   3  22
HETATM   22  O   UNK N   1      26.524  24.103  -9.680  0.00  0.00    -0.395 OA
HETATM   23  H   UNK N   1      26.700  24.331 -10.607  0.00  0.00     0.210 HD
ENDBRANCH   3  22
TORSDOF 1
ENDMDL
