MODEL 1
REMARK VINA RESULT:      -4.5      0.000      0.000
REMARK  3 active torsions:
REMARK  status: ('A' for Active; 'I' for Inactive)
REMARK    1  A    between atoms: C_2  and  C_1 
REMARK    2  A    between atoms: C_3  and  C_2 
REMARK    3  A    between atoms: C_2  and  O_7 
ROOT
HETATM    1  C   UNK N   1      23.775  11.952  10.932  0.00  0.00     0.139 C 
HETATM    2  C   UNK N   1      23.512  11.988  12.392  0.00  0.00    -0.075 C 
HETATM    3  C   UNK N   1      23.344  12.042  13.595  0.00  0.00     0.015 C 
ENDROOT
BRANCH   1   4
HETATM    4  C   UNK N   1      22.268  11.931  10.610  0.00  0.00     0.051 C 
HETATM    5  C   UNK N   1      21.712  13.284  10.140  0.00  0.00     0.009 C 
ENDBRANCH   1   4
BRANCH   1   6
HETATM    6  C   UNK N   1      24.233  12.552   9.568  0.00  0.00     0.036 C 
HETATM    7  C   UNK N   1      25.196  13.467   9.255  0.00  0.00     0.084 C 
HETATM    8 Cl   UNK N   1      25.364  14.084   7.626  0.00  0.00    -0.097 Cl
ENDBRANCH   1   6
BRANCH   1   9
HETATM    9  O   UNK N   1      24.910  12.509  11.517  0.00  0.00    -0.374 OA
HETATM   10  H   UNK N   1      25.370  13.244  11.082  0.00  0.00     0.212 HD
ENDBRANCH   1   9
TORSDOF 3
ENDMDL
MODEL 2
REMARK VINA RESULT:      -4.1     19.817     21.260
REMARK  3 active torsions:
REMARK  status: ('A' for Active; 'I' for Inactive)
REMARK    1  A    between atoms: C_2  and  C_1 
REMARK    2  A    between atoms: C_3  and  C_2 
REMARK    3  A    between atoms: C_2  and  O_7 
ROOT
HETATM    1  C   UNK N   1      26.007  28.091  -3.710  0.00  0.00     0.139 C 
HETATM    2  C   UNK N   1      26.350  29.519  -3.933  0.00  0.00    -0.075 C 
HETATM    3  C   UNK N   1      26.656  30.687  -4.067  0.00  0.00     0.015 C 
ENDROOT
BRANCH   1   4
HETATM    4  C   UNK N   1      25.948  27.817  -5.226  0.00  0.00     0.051 C 
HETATM    5  C   UNK N   1      24.630  27.182  -5.694  0.00  0.00     0.009 C 
ENDBRANCH   1   4
BRANCH   1   6
HETATM    6  C   UNK N   1      26.303  26.623  -3.281  0.00  0.00     0.036 C 
HETATM    7  C   UNK N   1      27.216  25.711  -3.726  0.00  0.00     0.084 C 
HETATM    8 Cl   UNK N   1      27.193  24.055  -3.160  0.00  0.00    -0.097 Cl
ENDBRANCH   1   6
BRANCH   1   9
HETATM    9  O   UNK N   1      26.652  28.521  -2.552  0.00  0.00    -0.374 OA
HETATM   10  H   UNK N   1      27.451  29.067  -2.615  0.00  0.00     0.212 HD
ENDBRANCH   1   9
TORSDOF 3
ENDMDL
MODEL 3
REMARK VINA RESULT:      -4.1     10.295     11.717
REMARK  3 active torsions:
REMARK  status: ('A' for Active; 'I' for Inactive)
REMARK    1  A    between atoms: C_2  and  C_1 
REMARK    2  A    between atoms: C_3  and  C_2 
REMARK    3  A    between atoms: C_2  and  O_7 
ROOT
HETATM    1  C   UNK N   1      33.379  17.818   7.277  0.00  0.00     0.139 C 
HETATM    2  C   UNK N   1      33.088  17.535   5.849  0.00  0.00    -0.075 C 
HETATM    3  C   UNK N   1      32.904  17.307   4.670  0.00  0.00     0.015 C 
ENDROOT
BRANCH   1   4
HETATM    4  C   UNK N   1      32.110  17.071   7.734  0.00  0.00     0.051 C 
HETATM    5  C   UNK N   1      31.153  17.928   8.578  0.00  0.00     0.009 C 
ENDBRANCH   1   4
BRANCH   1   6
HETATM    6  C   UNK N   1      34.166  17.654   8.613  0.00  0.00     0.036 C 
HETATM    7  C   UNK N   1      34.600  16.548   9.283  0.00  0.00     0.084 C 
HETATM    8 Cl   UNK N   1      35.317  16.676  10.875  0.00  0.00    -0.097 Cl
ENDBRANCH   1   6
BRANCH   1   9
HETATM    9  O   UNK N   1      34.600  17.893   6.610  0.00  0.00    -0.374 OA
HETATM   10  H   UNK N   1      34.901  17.152   6.062  0.00  0.00     0.212 HD
ENDBRANCH   1   9
TORSDOF 3
ENDMDL
MODEL 4
REMARK VINA RESULT:      -4.1     12.288     13.071
REMARK  3 active torsions:
REMARK  status: ('A' for Active; 'I' for Inactive)
REMARK    1  A    between atoms: C_2  and  C_1 
REMARK    2  A    between atoms: C_3  and  C_2 
REMARK    3  A    between atoms: C_2  and  O_7 
ROOT
HETATM    1  C   UNK N   1      34.871  12.417  15.955  0.00  0.00     0.139 C 
HETATM    2  C   UNK N   1      34.296  11.363  15.082  0.00  0.00    -0.075 C 
HETATM    3  C   UNK N   1      33.814  10.538  14.330  0.00  0.00     0.015 C 
ENDROOT
BRANCH   1   4
HETATM    4  C   UNK N   1      35.801  11.403  16.650  0.00  0.00     0.051 C 
HETATM    5  C   UNK N   1      35.366  11.035  18.077  0.00  0.00     0.009 C 
ENDBRANCH   1   4
BRANCH   1   6
HETATM    6  C   UNK N   1      35.735  13.679  16.256  0.00  0.00     0.036 C 
HETATM    7  C   UNK N   1      36.699  14.316  15.531  0.00  0.00     0.084 C 
HETATM    8 Cl   UNK N   1      37.631  15.629  16.217  0.00  0.00    -0.097 Cl
ENDBRANCH   1   6
BRANCH   1   9
HETATM    9  O   UNK N   1      34.372  13.073  14.832  0.00  0.00    -0.374 OA
HETATM   10  H   UNK N   1      34.877  13.794  14.425  0.00  0.00     0.212 HD
ENDBRANCH   1   9
TORSDOF 3
ENDMDL
MODEL 5
REMARK VINA RESULT:      -4.0      2.168      2.788
REMARK  3 active torsions:
REMARK  status: ('A' for Active; 'I' for Inactive)
REMARK    1  A    between atoms: C_2  and  C_1 
REMARK    2  A    between atoms: C_3  and  C_2 
REMARK    3  A    between atoms: C_2  and  O_7 
ROOT
HETATM    1  C   UNK N   1      22.952  12.301  10.586  0.00  0.00     0.139 C 
HETATM    2  C   UNK N   1      23.126  12.042  12.038  0.00  0.00    -0.075 C 
HETATM    3  C   UNK N   1      23.219  11.809  13.227  0.00  0.00     0.015 C 
ENDROOT
BRANCH   1   4
HETATM    4  C   UNK N   1      24.470  12.208  10.337  0.00  0.00     0.051 C 
HETATM    5  C   UNK N   1      25.040  13.379   9.522  0.00  0.00     0.009 C 
ENDBRANCH   1   4
BRANCH   1   6
HETATM    6  C   UNK N   1      22.516  11.939   9.134  0.00  0.00     0.036 C 
HETATM    7  C   UNK N   1      21.636  12.530   8.275  0.00  0.00     0.084 C 
HETATM    8 Cl   UNK N   1      21.219  11.781   6.748  0.00  0.00    -0.097 Cl
ENDBRANCH   1   6
BRANCH   1   9
HETATM    9  O   UNK N   1      21.737  11.790  11.038  0.00  0.00    -0.374 OA
HETATM   10  H   UNK N   1      20.903  12.110  10.659  0.00  0.00     0.212 HD
ENDBRANCH   1   9
TORSDOF 3
ENDMDL
MODEL 6
REMARK VINA RESULT:      -4.0     12.393     13.256
REMARK  3 active torsions:
REMARK  status: ('A' for Active; 'I' for Inactive)
REMARK    1  A    between atoms: C_2  and  C_1 
REMARK    2  A    between atoms: C_3  and  C_2 
REMARK    3  A    between atoms: C_2  and  O_7 
ROOT
HETATM    1  C   UNK N   1      36.216  13.231  15.604  0.00  0.00     0.139 C 
HETATM    2  C   UNK N   1      36.861  14.526  15.935  0.00  0.00    -0.075 C 
HETATM    3  C   UNK N   1      37.414  15.585  16.158  0.00  0.00     0.015 C 
ENDROOT
BRANCH   1   4
HETATM    4  C   UNK N   1      35.013  13.539  16.518  0.00  0.00     0.051 C 
HETATM    5  C   UNK N   1      35.221  13.125  17.982  0.00  0.00     0.009 C 
ENDBRANCH   1   4
BRANCH   1   6
HETATM    6  C   UNK N   1      35.471  12.226  14.673  0.00  0.00     0.036 C 
HETATM    7  C   UNK N   1      34.228  11.670  14.745  0.00  0.00     0.084 C 
HETATM    8 Cl   UNK N   1      33.728  10.419  13.627  0.00  0.00    -0.097 Cl
ENDBRANCH   1   6
BRANCH   1   9
HETATM    9  O   UNK N   1      37.073  13.520  14.544  0.00  0.00    -0.374 OA
HETATM   10  H   UNK N   1      37.282  14.441  14.325  0.00  0.00     0.212 HD
ENDBRANCH   1   9
TORSDOF 3
ENDMDL
MODEL 7
REMARK VINA RESULT:      -3.9     11.806     12.669
REMARK  3 active torsions:
REMARK  status: ('A' for Active; 'I' for Inactive)
REMARK    1  A    between atoms: C_2  and  C_1 
REMARK    2  A    between atoms: C_3  and  C_2 
REMARK    3  A    between atoms: C_2  and  O_7 
ROOT
HETATM    1  C   UNK N   1      35.329  13.438  15.212  0.00  0.00     0.139 C 
HETATM    2  C   UNK N   1      35.218  13.200  16.674  0.00  0.00    -0.075 C 
HETATM    3  C   UNK N   1      35.083  12.975  17.860  0.00  0.00     0.015 C 
ENDROOT
BRANCH   1   4
HETATM    4  C   UNK N   1      36.852  13.656  15.313  0.00  0.00     0.051 C 
HETATM    5  C   UNK N   1      37.252  15.092  15.686  0.00  0.00     0.009 C 
ENDBRANCH   1   4
BRANCH   1   6
HETATM    6  C   UNK N   1      35.315  13.015  13.712  0.00  0.00     0.036 C 
HETATM    7  C   UNK N   1      35.357  13.746  12.561  0.00  0.00     0.084 C 
HETATM    8 Cl   UNK N   1      35.146  12.987  10.998  0.00  0.00    -0.097 Cl
ENDBRANCH   1   6
BRANCH   1   9
HETATM    9  O   UNK N   1      34.170  12.687  15.397  0.00  0.00    -0.374 OA
HETATM   10  H   UNK N   1      34.225  11.784  15.746  0.00  0.00     0.212 HD
ENDBRANCH   1   9
TORSDOF 3
ENDMDL
MODEL 8
REMARK VINA RESULT:      -3.7     11.734     12.512
REMARK  3 active torsions:
REMARK  status: ('A' for Active; 'I' for Inactive)
REMARK    1  A    between atoms: C_2  and  C_1 
REMARK    2  A    between atoms: C_3  and  C_2 
REMARK    3  A    between atoms: C_2  and  O_7 
ROOT
HETATM    1  C   UNK N   1      34.974  11.990  15.997  0.00  0.00     0.139 C 
HETATM    2  C   UNK N   1      35.057  12.921  17.151  0.00  0.00    -0.075 C 
HETATM    3  C   UNK N   1      35.096  13.719  18.066  0.00  0.00     0.015 C 
ENDROOT
BRANCH   1   4
HETATM    4  C   UNK N   1      35.134  10.761  16.914  0.00  0.00     0.051 C 
HETATM    5  C   UNK N   1      36.543  10.150  16.896  0.00  0.00     0.009 C 
ENDBRANCH   1   4
BRANCH   1   6
HETATM    6  C   UNK N   1      34.244  11.247  14.838  0.00  0.00     0.036 C 
HETATM    7  C   UNK N   1      34.685  10.794  13.628  0.00  0.00     0.084 C 
HETATM    8 Cl   UNK N   1      33.572  10.140  12.446  0.00  0.00    -0.097 Cl
ENDBRANCH   1   6
BRANCH   1   9
HETATM    9  O   UNK N   1      34.337  13.163  15.596  0.00  0.00    -0.374 OA
HETATM   10  H   UNK N   1      34.840  13.862  15.151  0.00  0.00     0.212 HD
ENDBRANCH   1   9
TORSDOF 3
ENDMDL
MODEL 9
REMARK VINA RESULT:      -3.7     19.586     20.716
REMARK  3 active torsions:
REMARK  status: ('A' for Active; 'I' for Inactive)
REMARK    1  A    between atoms: C_2  and  C_1 
REMARK    2  A    between atoms: C_3  and  C_2 
REMARK    3  A    between atoms: C_2  and  O_7 
ROOT
HETATM    1  C   UNK N   1      25.935  24.574  -6.041  0.00  0.00     0.139 C 
HETATM    2  C   UNK N   1      25.366  25.921  -5.785  0.00  0.00    -0.075 C 
HETATM    3  C   UNK N   1      24.879  27.023  -5.626  0.00  0.00     0.015 C 
ENDROOT
BRANCH   1   4
HETATM    4  C   UNK N   1      25.915  24.226  -4.539  0.00  0.00     0.051 C 
HETATM    5  C   UNK N   1      27.273  24.399  -3.841  0.00  0.00     0.009 C 
ENDBRANCH   1   4
BRANCH   1   6
HETATM    6  C   UNK N   1      25.896  23.104  -6.558  0.00  0.00     0.036 C 
HETATM    7  C   UNK N   1      26.475  22.505  -7.639  0.00  0.00     0.084 C 
HETATM    8 Cl   UNK N   1      26.101  20.849  -8.065  0.00  0.00    -0.097 Cl
ENDBRANCH   1   6
BRANCH   1   9
HETATM    9  O   UNK N   1      25.325  24.969  -7.229  0.00  0.00    -0.374 OA
HETATM   10  H   UNK N   1      24.486  25.454  -7.207  0.00  0.00     0.212 HD
ENDBRANCH   1   9
TORSDOF 3
ENDMDL
