MODEL 1
REMARK VINA RESULT:      -5.1      0.000      0.000
REMARK  8 active torsions:
REMARK  status: ('A' for Active; 'I' for Inactive)
REMARK    1  A    between atoms: O_1  and  C_9 
REMARK    2  A    between atoms: O_1  and  C_14 
REMARK    3  A    between atoms: O_2  and  C_10 
REMARK    4  A    between atoms: O_2  and  C_15 
REMARK       I    between atoms: N_5  and  C_14 
REMARK       I    between atoms: N_6  and  C_15 
REMARK    5  A    between atoms: C_7  and  C_8 
REMARK    6  A    between atoms: C_7  and  C_9 
REMARK    7  A    between atoms: C_7  and  C_10 
REMARK    8  A    between atoms: C_8  and  C_12 
ROOT
HETATM    1  C   UNK N   1      31.605  16.921   6.947  0.00  0.00     0.000 C 
HETATM    2  C   UNK N   1      31.745  15.465   7.348  0.00  0.00     0.019 C 
ENDROOT
BRANCH   1   3
HETATM    3  C   UNK N   1      32.371  17.112   5.624  0.00  0.00     0.013 C 
BRANCH   3   4
HETATM    4  C   UNK N   1      31.477  17.527   4.467  0.00  0.00    -0.004 C 
HETATM    5  C   UNK N   1      32.137  17.129   3.165  0.00  0.00     0.005 C 
ENDBRANCH   3   4
ENDBRANCH   1   3
BRANCH   1   6
HETATM    6  C   UNK N   1      32.178  17.801   8.066  0.00  0.00     0.192 C 
BRANCH   6   7
HETATM    7  O   UNK N   1      33.424  18.300   7.741  0.00  0.00    -0.303 OA
BRANCH   7   8
HETATM    8  C   UNK N   1      34.479  18.301   8.587  0.00  0.00     0.358 C 
HETATM    9  O   UNK N   1      35.338  19.161   8.468  0.00  0.00    -0.239 OA
HETATM   10  N   UNK N   1      34.592  17.375   9.560  0.00  0.00    -0.346 N 
HETATM   11  H   UNK N   1      34.025  16.571   9.545  0.00  0.00     0.161 HD
HETATM   12  H   UNK N   1      35.244  17.504  10.287  0.00  0.00     0.161 HD
ENDBRANCH   7   8
ENDBRANCH   6   7
ENDBRANCH   1   6
BRANCH   1  13
HETATM   13  C   UNK N   1      30.110  17.253   6.823  0.00  0.00     0.192 C 
BRANCH  13  14
HETATM   14  O   UNK N   1      29.673  18.095   7.827  0.00  0.00    -0.303 OA
BRANCH  14  15
HETATM   15  C   UNK N   1      28.422  18.600   7.899  0.00  0.00     0.358 C 
HETATM   16  O   UNK N   1      27.945  19.233   6.968  0.00  0.00    -0.239 OA
HETATM   17  N   UNK N   1      27.688  18.392   9.009  0.00  0.00    -0.346 N 
HETATM   18  H   UNK N   1      28.118  18.120   9.852  0.00  0.00     0.161 HD
HETATM   19  H   UNK N   1      26.712  18.512   8.977  0.00  0.00     0.161 HD
ENDBRANCH  14  15
ENDBRANCH  13  14
ENDBRANCH   1  13
TORSDOF 8
ENDMDL
MODEL 2
REMARK VINA RESULT:      -5.1      2.949      3.579
REMARK  8 active torsions:
REMARK  status: ('A' for Active; 'I' for Inactive)
REMARK    1  A    between atoms: O_1  and  C_9 
REMARK    2  A    between atoms: O_1  and  C_14 
REMARK    3  A    between atoms: O_2  and  C_10 
REMARK    4  A    between atoms: O_2  and  C_15 
REMARK       I    between atoms: N_5  and  C_14 
REMARK       I    between atoms: N_6  and  C_15 
REMARK    5  A    between atoms: C_7  and  C_8 
REMARK    6  A    between atoms: C_7  and  C_9 
REMARK    7  A    between atoms: C_7  and  C_10 
REMARK    8  A    between atoms: C_8  and  C_12 
ROOT
HETATM    1  C   UNK N   1      33.276  16.230   5.687  0.00  0.00     0.000 C 
HETATM    2  C   UNK N   1      33.688  15.412   4.477  0.00  0.00     0.019 C 
ENDROOT
BRANCH   1   3
HETATM    3  C   UNK N   1      32.536  17.479   5.172  0.00  0.00     0.013 C 
BRANCH   3   4
HETATM    4  C   UNK N   1      31.482  17.163   4.123  0.00  0.00    -0.004 C 
HETATM    5  C   UNK N   1      30.122  17.553   4.658  0.00  0.00     0.005 C 
ENDBRANCH   3   4
ENDBRANCH   1   3
BRANCH   1   6
HETATM    6  C   UNK N   1      34.534  16.604   6.483  0.00  0.00     0.192 C 
BRANCH   6   7
HETATM    7  O   UNK N   1      34.492  17.912   6.926  0.00  0.00    -0.303 OA
BRANCH   7   8
HETATM    8  C   UNK N   1      34.588  18.269   8.226  0.00  0.00     0.358 C 
HETATM    9  O   UNK N   1      35.285  19.224   8.533  0.00  0.00    -0.239 OA
HETATM   10  N   UNK N   1      33.923  17.594   9.185  0.00  0.00    -0.346 N 
HETATM   11  H   UNK N   1      33.524  16.717   8.985  0.00  0.00     0.161 HD
HETATM   12  H   UNK N   1      33.836  17.980  10.088  0.00  0.00     0.161 HD
ENDBRANCH   7   8
ENDBRANCH   6   7
ENDBRANCH   1   6
BRANCH   1  13
HETATM   13  C   UNK N   1      32.402  15.353   6.597  0.00  0.00     0.192 C 
BRANCH  13  14
HETATM   14  O   UNK N   1      33.089  14.896   7.704  0.00  0.00    -0.303 OA
BRANCH  14  15
HETATM   15  C   UNK N   1      32.494  14.432   8.825  0.00  0.00     0.358 C 
HETATM   16  O   UNK N   1      31.986  15.200   9.631  0.00  0.00    -0.239 OA
HETATM   17  N   UNK N   1      32.449  13.105   9.051  0.00  0.00    -0.346 N 
HETATM   18  H   UNK N   1      33.054  12.494   8.571  0.00  0.00     0.161 HD
HETATM   19  H   UNK N   1      31.806  12.743   9.700  0.00  0.00     0.161 HD
ENDBRANCH  14  15
ENDBRANCH  13  14
ENDBRANCH   1  13
TORSDOF 8
ENDMDL
MODEL 3
REMARK VINA RESULT:      -4.9      2.871      5.169
REMARK  8 active torsions:
REMARK  status: ('A' for Active; 'I' for Inactive)
REMARK    1  A    between atoms: O_1  and  C_9 
REMARK    2  A    between atoms: O_1  and  C_14 
REMARK    3  A    between atoms: O_2  and  C_10 
REMARK    4  A    between atoms: O_2  and  C_15 
REMARK       I    between atoms: N_5  and  C_14 
REMARK       I    between atoms: N_6  and  C_15 
REMARK    5  A    between atoms: C_7  and  C_8 
REMARK    6  A    between atoms: C_7  and  C_9 
REMARK    7  A    between atoms: C_7  and  C_10 
REMARK    8  A    between atoms: C_8  and  C_12 
ROOT
HETATM    1  C   UNK N   1      32.465  16.205   6.553  0.00  0.00     0.000 C 
HETATM    2  C   UNK N   1      32.313  15.136   7.620  0.00  0.00     0.019 C 
ENDROOT
BRANCH   1   3
HETATM    3  C   UNK N   1      31.421  17.300   6.843  0.00  0.00     0.013 C 
BRANCH   3   4
HETATM    4  C   UNK N   1      30.654  17.071   8.135  0.00  0.00    -0.004 C 
HETATM    5  C   UNK N   1      30.616  18.362   8.923  0.00  0.00     0.005 C 
ENDBRANCH   3   4
ENDBRANCH   1   3
BRANCH   1   6
HETATM    6  C   UNK N   1      32.246  15.563   5.176  0.00  0.00     0.192 C 
BRANCH   6   7
HETATM    7  O   UNK N   1      33.241  15.910   4.283  0.00  0.00    -0.303 OA
BRANCH   7   8
HETATM    8  C   UNK N   1      33.006  16.363   3.032  0.00  0.00     0.358 C 
HETATM    9  O   UNK N   1      33.695  15.954   2.110  0.00  0.00    -0.239 OA
HETATM   10  N   UNK N   1      32.022  17.252   2.786  0.00  0.00    -0.346 N 
HETATM   11  H   UNK N   1      31.596  17.735   3.530  0.00  0.00     0.161 HD
HETATM   12  H   UNK N   1      31.729  17.417   1.860  0.00  0.00     0.161 HD
ENDBRANCH   7   8
ENDBRANCH   6   7
ENDBRANCH   1   6
BRANCH   1  13
HETATM   13  C   UNK N   1      33.908  16.732   6.589  0.00  0.00     0.192 C 
BRANCH  13  14
HETATM   14  O   UNK N   1      33.988  18.008   7.112  0.00  0.00    -0.303 OA
BRANCH  14  15
HETATM   15  C   UNK N   1      34.535  18.300   8.312  0.00  0.00     0.358 C 
HETATM   16  O   UNK N   1      35.286  19.257   8.445  0.00  0.00    -0.239 OA
HETATM   17  N   UNK N   1      34.239  17.534   9.378  0.00  0.00    -0.346 N 
HETATM   18  H   UNK N   1      33.858  16.633   9.259  0.00  0.00     0.161 HD
HETATM   19  H   UNK N   1      34.404  17.876  10.286  0.00  0.00     0.161 HD
ENDBRANCH  14  15
ENDBRANCH  13  14
ENDBRANCH   1  13
TORSDOF 8
ENDMDL
MODEL 4
REMARK VINA RESULT:      -4.8      2.715      4.167
REMARK  8 active torsions:
REMARK  status: ('A' for Active; 'I' for Inactive)
REMARK    1  A    between atoms: O_1  and  C_9 
REMARK    2  A    between atoms: O_1  and  C_14 
REMARK    3  A    between atoms: O_2  and  C_10 
REMARK    4  A    between atoms: O_2  and  C_15 
REMARK       I    between atoms: N_5  and  C_14 
REMARK       I    between atoms: N_6  and  C_15 
REMARK    5  A    between atoms: C_7  and  C_8 
REMARK    6  A    between atoms: C_7  and  C_9 
REMARK    7  A    between atoms: C_7  and  C_10 
REMARK    8  A    between atoms: C_8  and  C_12 
ROOT
HETATM    1  C   UNK N   1      31.883  16.706   6.503  0.00  0.00     0.000 C 
HETATM    2  C   UNK N   1      30.438  16.277   6.684  0.00  0.00     0.019 C 
ENDROOT
BRANCH   1   3
HETATM    3  C   UNK N   1      31.974  17.472   5.170  0.00  0.00     0.013 C 
BRANCH   3   4
HETATM    4  C   UNK N   1      33.070  16.953   4.252  0.00  0.00    -0.004 C 
HETATM    5  C   UNK N   1      32.485  16.696   2.881  0.00  0.00     0.005 C 
ENDBRANCH   3   4
ENDBRANCH   1   3
BRANCH   1   6
HETATM    6  C   UNK N   1      32.773  15.456   6.501  0.00  0.00     0.192 C 
BRANCH   6   7
HETATM    7  O   UNK N   1      32.279  14.471   7.332  0.00  0.00    -0.303 OA
BRANCH   7   8
HETATM    8  C   UNK N   1      32.924  14.018   8.431  0.00  0.00     0.358 C 
HETATM    9  O   UNK N   1      33.946  14.579   8.796  0.00  0.00    -0.239 OA
HETATM   10  N   UNK N   1      32.455  12.965   9.130  0.00  0.00    -0.346 N 
HETATM   11  H   UNK N   1      31.758  12.388   8.744  0.00  0.00     0.161 HD
HETATM   12  H   UNK N   1      32.810  12.775  10.029  0.00  0.00     0.161 HD
ENDBRANCH   7   8
ENDBRANCH   6   7
ENDBRANCH   1   6
BRANCH   1  13
HETATM   13  C   UNK N   1      32.295  17.561   7.711  0.00  0.00     0.192 C 
BRANCH  13  14
HETATM   14  O   UNK N   1      33.523  18.168   7.531  0.00  0.00    -0.303 OA
BRANCH  14  15
HETATM   15  C   UNK N   1      34.462  18.274   8.497  0.00  0.00     0.358 C 
HETATM   16  O   UNK N   1      35.307  19.157   8.457  0.00  0.00    -0.239 OA
HETATM   17  N   UNK N   1      34.457  17.403   9.523  0.00  0.00    -0.346 N 
HETATM   18  H   UNK N   1      33.969  16.550   9.456  0.00  0.00     0.161 HD
HETATM   19  H   UNK N   1      34.946  17.620  10.349  0.00  0.00     0.161 HD
ENDBRANCH  14  15
ENDBRANCH  13  14
ENDBRANCH   1  13
TORSDOF 8
ENDMDL
MODEL 5
REMARK VINA RESULT:      -4.8      9.038     10.844
REMARK  8 active torsions:
REMARK  status: ('A' for Active; 'I' for Inactive)
REMARK    1  A    between atoms: O_1  and  C_9 
REMARK    2  A    between atoms: O_1  and  C_14 
REMARK    3  A    between atoms: O_2  and  C_10 
REMARK    4  A    between atoms: O_2  and  C_15 
REMARK       I    between atoms: N_5  and  C_14 
REMARK       I    between atoms: N_6  and  C_15 
REMARK    5  A    between atoms: C_7  and  C_8 
REMARK    6  A    between atoms: C_7  and  C_9 
REMARK    7  A    between atoms: C_7  and  C_10 
REMARK    8  A    between atoms: C_8  and  C_12 
ROOT
HETATM    1  C   UNK N   1      35.358  11.864  15.511  0.00  0.00     0.000 C 
HETATM    2  C   UNK N   1      36.523  10.946  15.191  0.00  0.00     0.019 C 
ENDROOT
BRANCH   1   3
HETATM    3  C   UNK N   1      34.098  11.255  14.867  0.00  0.00     0.013 C 
BRANCH   3   4
HETATM    4  C   UNK N   1      34.394  10.040  14.001  0.00  0.00    -0.004 C 
HETATM    5  C   UNK N   1      33.838  10.276  12.614  0.00  0.00     0.005 C 
ENDBRANCH   3   4
ENDBRANCH   1   3
BRANCH   1   6
HETATM    6  C   UNK N   1      35.660  13.262  14.954  0.00  0.00     0.192 C 
BRANCH   6   7
HETATM    7  O   UNK N   1      34.917  13.537  13.823  0.00  0.00    -0.303 OA
BRANCH   7   8
HETATM    8  C   UNK N   1      35.439  14.045  12.685  0.00  0.00     0.358 C 
HETATM    9  O   UNK N   1      34.689  14.508  11.839  0.00  0.00    -0.239 OA
HETATM   10  N   UNK N   1      36.771  14.055  12.473  0.00  0.00    -0.346 N 
HETATM   11  H   UNK N   1      37.365  13.516  13.042  0.00  0.00     0.161 HD
HETATM   12  H   UNK N   1      37.148  14.603  11.746  0.00  0.00     0.161 HD
ENDBRANCH   7   8
ENDBRANCH   6   7
ENDBRANCH   1   6
BRANCH   1  13
HETATM   13  C   UNK N   1      35.242  11.994  17.038  0.00  0.00     0.192 C 
BRANCH  13  14
HETATM   14  O   UNK N   1      34.787  13.238  17.427  0.00  0.00    -0.303 OA
BRANCH  14  15
HETATM   15  C   UNK N   1      35.163  13.859  18.567  0.00  0.00     0.358 C 
HETATM   16  O   UNK N   1      35.163  13.263  19.636  0.00  0.00    -0.239 OA
HETATM   17  N   UNK N   1      35.553  15.146  18.522  0.00  0.00    -0.346 N 
HETATM   18  H   UNK N   1      35.325  15.713  17.750  0.00  0.00     0.161 HD
HETATM   19  H   UNK N   1      36.072  15.525  19.267  0.00  0.00     0.161 HD
ENDBRANCH  14  15
ENDBRANCH  13  14
ENDBRANCH   1  13
TORSDOF 8
ENDMDL
MODEL 6
REMARK VINA RESULT:      -4.8      1.902      4.547
REMARK  8 active torsions:
REMARK  status: ('A' for Active; 'I' for Inactive)
REMARK    1  A    between atoms: O_1  and  C_9 
REMARK    2  A    between atoms: O_1  and  C_14 
REMARK    3  A    between atoms: O_2  and  C_10 
REMARK    4  A    between atoms: O_2  and  C_15 
REMARK       I    between atoms: N_5  and  C_14 
REMARK       I    between atoms: N_6  and  C_15 
REMARK    5  A    between atoms: C_7  and  C_8 
REMARK    6  A    between atoms: C_7  and  C_9 
REMARK    7  A    between atoms: C_7  and  C_10 
REMARK    8  A    between atoms: C_8  and  C_12 
ROOT
HETATM    1  C   UNK N   1      33.286  16.359   5.454  0.00  0.00     0.000 C 
HETATM    2  C   UNK N   1      32.985  17.642   4.701  0.00  0.00     0.019 C 
ENDROOT
BRANCH   1   3
HETATM    3  C   UNK N   1      33.662  15.288   4.413  0.00  0.00     0.013 C 
BRANCH   3   4
HETATM    4  C   UNK N   1      32.643  14.165   4.311  0.00  0.00    -0.004 C 
HETATM    5  C   UNK N   1      32.240  13.993   2.863  0.00  0.00     0.005 C 
ENDBRANCH   3   4
ENDBRANCH   1   3
BRANCH   1   6
HETATM    6  C   UNK N   1      32.044  15.955   6.260  0.00  0.00     0.192 C 
BRANCH   6   7
HETATM    7  O   UNK N   1      31.222  17.035   6.514  0.00  0.00    -0.303 OA
BRANCH   7   8
HETATM    8  C   UNK N   1      30.564  17.223   7.680  0.00  0.00     0.358 C 
HETATM    9  O   UNK N   1      31.080  16.852   8.722  0.00  0.00    -0.239 OA
HETATM   10  N   UNK N   1      29.354  17.817   7.708  0.00  0.00    -0.346 N 
HETATM   11  H   UNK N   1      28.844  17.939   6.876  0.00  0.00     0.161 HD
HETATM   12  H   UNK N   1      28.980  18.130   8.565  0.00  0.00     0.161 HD
ENDBRANCH   7   8
ENDBRANCH   6   7
ENDBRANCH   1   6
BRANCH   1  13
HETATM   13  C   UNK N   1      34.415  16.635   6.460  0.00  0.00     0.192 C 
BRANCH  13  14
HETATM   14  O   UNK N   1      34.412  17.942   6.908  0.00  0.00    -0.303 OA
BRANCH  14  15
HETATM   15  C   UNK N   1      34.565  18.297   8.203  0.00  0.00     0.358 C 
HETATM   16  O   UNK N   1      35.279  19.239   8.516  0.00  0.00    -0.239 OA
HETATM   17  N   UNK N   1      33.911  17.610   9.158  0.00  0.00    -0.346 N 
HETATM   18  H   UNK N   1      33.546  16.715   8.973  0.00  0.00     0.161 HD
HETATM   19  H   UNK N   1      33.796  18.007  10.051  0.00  0.00     0.161 HD
ENDBRANCH  14  15
ENDBRANCH  13  14
ENDBRANCH   1  13
TORSDOF 8
ENDMDL
MODEL 7
REMARK VINA RESULT:      -4.8      2.819      4.307
REMARK  8 active torsions:
REMARK  status: ('A' for Active; 'I' for Inactive)
REMARK    1  A    between atoms: O_1  and  C_9 
REMARK    2  A    between atoms: O_1  and  C_14 
REMARK    3  A    between atoms: O_2  and  C_10 
REMARK    4  A    between atoms: O_2  and  C_15 
REMARK       I    between atoms: N_5  and  C_14 
REMARK       I    between atoms: N_6  and  C_15 
REMARK    5  A    between atoms: C_7  and  C_8 
REMARK    6  A    between atoms: C_7  and  C_9 
REMARK    7  A    between atoms: C_7  and  C_10 
REMARK    8  A    between atoms: C_8  and  C_12 
ROOT
HETATM    1  C   UNK N   1      31.468  17.055   7.626  0.00  0.00     0.000 C 
HETATM    2  C   UNK N   1      32.087  16.670   6.295  0.00  0.00     0.019 C 
ENDROOT
BRANCH   1   3
HETATM    3  C   UNK N   1      29.989  17.397   7.367  0.00  0.00     0.013 C 
BRANCH   3   4
HETATM    4  C   UNK N   1      29.143  17.397   8.630  0.00  0.00    -0.004 C 
HETATM    5  C   UNK N   1      28.227  18.600   8.611  0.00  0.00     0.005 C 
ENDBRANCH   3   4
ENDBRANCH   1   3
BRANCH   1   6
HETATM    6  C   UNK N   1      32.236  18.254   8.200  0.00  0.00     0.192 C 
BRANCH   6   7
HETATM    7  O   UNK N   1      33.536  18.302   7.737  0.00  0.00    -0.303 OA
BRANCH   7   8
HETATM    8  C   UNK N   1      34.621  18.333   8.542  0.00  0.00     0.358 C 
HETATM    9  O   UNK N   1      35.384  19.284   8.478  0.00  0.00    -0.239 OA
HETATM   10  N   UNK N   1      34.869  17.336   9.415  0.00  0.00    -0.346 N 
HETATM   11  H   UNK N   1      34.385  16.483   9.341  0.00  0.00     0.161 HD
HETATM   12  H   UNK N   1      35.537  17.462  10.128  0.00  0.00     0.161 HD
ENDBRANCH   7   8
ENDBRANCH   6   7
ENDBRANCH   1   6
BRANCH   1  13
HETATM   13  C   UNK N   1      31.647  15.884   8.606  0.00  0.00     0.192 C 
BRANCH  13  14
HETATM   14  O   UNK N   1      32.791  15.155   8.349  0.00  0.00    -0.303 OA
BRANCH  14  15
HETATM   15  C   UNK N   1      33.236  14.146   9.132  0.00  0.00     0.358 C 
HETATM   16  O   UNK N   1      34.218  14.290   9.845  0.00  0.00    -0.239 OA
HETATM   17  N   UNK N   1      32.578  12.971   9.132  0.00  0.00    -0.346 N 
HETATM   18  H   UNK N   1      31.959  12.741   8.402  0.00  0.00     0.161 HD
HETATM   19  H   UNK N   1      32.717  12.336   9.871  0.00  0.00     0.161 HD
ENDBRANCH  14  15
ENDBRANCH  13  14
ENDBRANCH   1  13
TORSDOF 8
ENDMDL
MODEL 8
REMARK VINA RESULT:      -4.7      1.406      5.208
REMARK  8 active torsions:
REMARK  status: ('A' for Active; 'I' for Inactive)
REMARK    1  A    between atoms: O_1  and  C_9 
REMARK    2  A    between atoms: O_1  and  C_14 
REMARK    3  A    between atoms: O_2  and  C_10 
REMARK    4  A    between atoms: O_2  and  C_15 
REMARK       I    between atoms: N_5  and  C_14 
REMARK       I    between atoms: N_6  and  C_15 
REMARK    5  A    between atoms: C_7  and  C_8 
REMARK    6  A    between atoms: C_7  and  C_9 
REMARK    7  A    between atoms: C_7  and  C_10 
REMARK    8  A    between atoms: C_8  and  C_12 
ROOT
HETATM    1  C   UNK N   1      31.612  16.753   7.150  0.00  0.00     0.000 C 
HETATM    2  C   UNK N   1      30.762  16.824   5.894  0.00  0.00     0.019 C 
ENDROOT
BRANCH   1   3
HETATM    3  C   UNK N   1      31.893  15.266   7.434  0.00  0.00     0.013 C 
BRANCH   3   4
HETATM    4  C   UNK N   1      32.189  14.979   8.898  0.00  0.00    -0.004 C 
HETATM    5  C   UNK N   1      33.133  13.800   8.989  0.00  0.00     0.005 C 
ENDBRANCH   3   4
ENDBRANCH   1   3
BRANCH   1   6
HETATM    6  C   UNK N   1      30.847  17.416   8.304  0.00  0.00     0.192 C 
BRANCH   6   7
HETATM    7  O   UNK N   1      29.482  17.237   8.186  0.00  0.00    -0.303 OA
BRANCH   7   8
HETATM    8  C   UNK N   1      28.588  17.630   9.120  0.00  0.00     0.358 C 
HETATM    9  O   UNK N   1      28.488  16.991  10.156  0.00  0.00    -0.239 OA
HETATM   10  N   UNK N   1      27.812  18.716   8.929  0.00  0.00    -0.346 N 
HETATM   11  H   UNK N   1      27.737  19.118   8.034  0.00  0.00     0.161 HD
HETATM   12  H   UNK N   1      27.319  19.107   9.687  0.00  0.00     0.161 HD
ENDBRANCH   7   8
ENDBRANCH   6   7
ENDBRANCH   1   6
BRANCH   1  13
HETATM   13  C   UNK N   1      32.894  17.569   6.921  0.00  0.00     0.192 C 
BRANCH  13  14
HETATM   14  O   UNK N   1      33.240  18.323   8.025  0.00  0.00    -0.303 OA
BRANCH  14  15
HETATM   15  C   UNK N   1      34.465  18.309   8.596  0.00  0.00     0.358 C 
HETATM   16  O   UNK N   1      35.267  19.208   8.386  0.00  0.00    -0.239 OA
HETATM   17  N   UNK N   1      34.800  17.295   9.417  0.00  0.00    -0.346 N 
HETATM   18  H   UNK N   1      34.295  16.450   9.404  0.00  0.00     0.161 HD
HETATM   19  H   UNK N   1      35.558  17.400  10.036  0.00  0.00     0.161 HD
ENDBRANCH  14  15
ENDBRANCH  13  14
ENDBRANCH   1  13
TORSDOF 8
ENDMDL
MODEL 9
REMARK VINA RESULT:      -4.7      2.984      3.941
REMARK  8 active torsions:
REMARK  status: ('A' for Active; 'I' for Inactive)
REMARK    1  A    between atoms: O_1  and  C_9 
REMARK    2  A    between atoms: O_1  and  C_14 
REMARK    3  A    between atoms: O_2  and  C_10 
REMARK    4  A    between atoms: O_2  and  C_15 
REMARK       I    between atoms: N_5  and  C_14 
REMARK       I    between atoms: N_6  and  C_15 
REMARK    5  A    between atoms: C_7  and  C_8 
REMARK    6  A    between atoms: C_7  and  C_9 
REMARK    7  A    between atoms: C_7  and  C_10 
REMARK    8  A    between atoms: C_8  and  C_12 
ROOT
HETATM    1  C   UNK N   1      31.401  16.432   7.436  0.00  0.00     0.000 C 
HETATM    2  C   UNK N   1      32.012  15.047   7.548  0.00  0.00     0.019 C 
ENDROOT
BRANCH   1   3
HETATM    3  C   UNK N   1      32.512  17.391   6.969  0.00  0.00     0.013 C 
BRANCH   3   4
HETATM    4  C   UNK N   1      33.038  18.288   8.078  0.00  0.00    -0.004 C 
HETATM    5  C   UNK N   1      34.546  18.184   8.125  0.00  0.00     0.005 C 
ENDBRANCH   3   4
ENDBRANCH   1   3
BRANCH   1   6
HETATM    6  C   UNK N   1      30.840  16.838   8.805  0.00  0.00     0.192 C 
BRANCH   6   7
HETATM    7  O   UNK N   1      29.493  17.135   8.741  0.00  0.00    -0.303 OA
BRANCH   7   8
HETATM    8  C   UNK N   1      28.930  18.211   9.334  0.00  0.00     0.358 C 
HETATM    9  O   UNK N   1      29.552  18.810  10.197  0.00  0.00    -0.239 OA
HETATM   10  N   UNK N   1      27.699  18.636   8.983  0.00  0.00    -0.346 N 
HETATM   11  H   UNK N   1      27.113  18.058   8.443  0.00  0.00     0.161 HD
HETATM   12  H   UNK N   1      27.386  19.525   9.268  0.00  0.00     0.161 HD
ENDBRANCH   7   8
ENDBRANCH   6   7
ENDBRANCH   1   6
BRANCH   1  13
HETATM   13  C   UNK N   1      30.219  16.368   6.456  0.00  0.00     0.192 C 
BRANCH  13  14
HETATM   14  O   UNK N   1      30.186  17.451   5.599  0.00  0.00    -0.303 OA
BRANCH  14  15
HETATM   15  C   UNK N   1      29.049  18.032   5.158  0.00  0.00     0.358 C 
HETATM   16  O   UNK N   1      28.324  18.655   5.922  0.00  0.00    -0.239 OA
HETATM   17  N   UNK N   1      28.717  17.933   3.857  0.00  0.00    -0.346 N 
HETATM   18  H   UNK N   1      29.127  17.245   3.285  0.00  0.00     0.161 HD
HETATM   19  H   UNK N   1      28.059  18.556   3.474  0.00  0.00     0.161 HD
ENDBRANCH  14  15
ENDBRANCH  13  14
ENDBRANCH   1  13
TORSDOF 8
ENDMDL
