MODEL 1
REMARK VINA RESULT:      -6.7      0.000      0.000
REMARK  2 active torsions:
REMARK  status: ('A' for Active; 'I' for Inactive)
REMARK    1  A    between atoms: C_14  and  O_2 
REMARK    2  A    between atoms: O_3  and  C_20 
ROOT
HETATM    1  O   UNK N   1      31.211  16.104   8.193  0.00  0.00    -0.338 OA
HETATM    2  N   UNK N   1      32.843  14.976   3.387  0.00  0.00     0.089 N 
HETATM    3  C   UNK N   1      32.377  15.654   6.191  0.00  0.00     0.030 C 
HETATM    4  C   UNK N   1      33.534  16.297   5.417  0.00  0.00     0.057 C 
HETATM    5  C   UNK N   1      33.075  16.341   3.909  0.00  0.00     0.235 C 
HETATM    6  C   UNK N   1      32.462  15.639   7.762  0.00  0.00     0.175 C 
HETATM    7  C   UNK N   1      32.097  14.240   5.654  0.00  0.00     0.048 C 
HETATM    8  C   UNK N   1      31.182  16.497   6.018  0.00  0.00    -0.003 C 
HETATM    9  C   UNK N   1      31.763  17.168   3.683  0.00  0.00     0.075 C 
HETATM   10  C   UNK N   1      31.826  14.235   4.146  0.00  0.00     0.273 C 
HETATM   11  C   UNK N   1      30.799  17.137   4.848  0.00  0.00    -0.046 C 
HETATM   12  C   UNK N   1      33.621  16.559   8.231  0.00  0.00     0.171 C 
HETATM   13  C   UNK N   1      33.819  17.657   6.024  0.00  0.00    -0.020 C 
HETATM   14  C   UNK N   1      30.522  16.637   7.177  0.00  0.00     0.110 C 
HETATM   15  C   UNK N   1      33.838  17.783   7.366  0.00  0.00     0.004 C 
HETATM   16  C   UNK N   1      34.073  14.192   3.324  0.00  0.00     0.310 C 
HETATM   17  C   UNK N   1      29.600  17.866   4.859  0.00  0.00     0.011 C 
HETATM   18  C   UNK N   1      29.305  17.319   7.237  0.00  0.00     0.102 C 
HETATM   19  C   UNK N   1      28.827  17.921   6.043  0.00  0.00     0.040 C 
ENDROOT
BRANCH  12  20
HETATM   20  O   UNK N   1      33.517  16.892   9.582  0.00  0.00    -0.389 OA
HETATM   21  H   UNK N   1      33.696  16.224  10.262  0.00  0.00     0.210 HD
ENDBRANCH  12  20
BRANCH  18  22
HETATM   22  O   UNK N   1      28.622  17.390   8.404  0.00  0.00    -0.353 OA
HETATM   23  C   UNK N   1      28.804  18.403   9.316  0.00  0.00     0.210 C 
ENDBRANCH  18  22
TORSDOF 2
ENDMDL
MODEL 2
REMARK VINA RESULT:      -6.5     13.961     16.220
REMARK  2 active torsions:
REMARK  status: ('A' for Active; 'I' for Inactive)
REMARK    1  A    between atoms: C_14  and  O_2 
REMARK    2  A    between atoms: O_3  and  C_20 
ROOT
HETATM    1  O   UNK N   1      26.929  25.124  -4.185  0.00  0.00    -0.338 OA
HETATM    2  N   UNK N   1      27.649  30.256  -3.772  0.00  0.00     0.089 N 
HETATM    3  C   UNK N   1      26.938  27.479  -4.337  0.00  0.00     0.030 C 
HETATM    4  C   UNK N   1      26.992  28.514  -5.467  0.00  0.00     0.057 C 
HETATM    5  C   UNK N   1      28.061  29.585  -5.024  0.00  0.00     0.235 C 
HETATM    6  C   UNK N   1      26.088  26.176  -4.572  0.00  0.00     0.175 C 
HETATM    7  C   UNK N   1      26.533  28.154  -3.015  0.00  0.00     0.048 C 
HETATM    8  C   UNK N   1      28.275  26.877  -4.198  0.00  0.00    -0.003 C 
HETATM    9  C   UNK N   1      29.488  28.979  -4.792  0.00  0.00     0.075 C 
HETATM   10  C   UNK N   1      27.457  29.323  -2.653  0.00  0.00     0.273 C 
HETATM   11  C   UNK N   1      29.485  27.549  -4.299  0.00  0.00    -0.046 C 
HETATM   12  C   UNK N   1      25.683  26.081  -6.068  0.00  0.00     0.171 C 
HETATM   13  C   UNK N   1      27.327  27.794  -6.759  0.00  0.00    -0.020 C 
HETATM   14  C   UNK N   1      28.189  25.549  -4.028  0.00  0.00     0.110 C 
HETATM   15  C   UNK N   1      26.716  26.624  -7.033  0.00  0.00     0.004 C 
HETATM   16  C   UNK N   1      26.444  31.062  -3.948  0.00  0.00     0.310 C 
HETATM   17  C   UNK N   1      30.664  26.816  -4.094  0.00  0.00     0.011 C 
HETATM   18  C   UNK N   1      29.326  24.777  -3.782  0.00  0.00     0.102 C 
HETATM   19  C   UNK N   1      30.585  25.436  -3.790  0.00  0.00     0.040 C 
ENDROOT
BRANCH  12  20
HETATM   20  O   UNK N   1      25.269  24.796  -6.421  0.00  0.00    -0.389 OA
HETATM   21  H   UNK N   1      25.840  24.234  -6.968  0.00  0.00     0.210 HD
ENDBRANCH  12  20
BRANCH  18  22
HETATM   22  O   UNK N   1      29.208  23.450  -3.545  0.00  0.00    -0.353 OA
HETATM   23  C   UNK N   1      29.319  22.902  -2.289  0.00  0.00     0.210 C 
ENDBRANCH  18  22
TORSDOF 2
ENDMDL
MODEL 3
REMARK VINA RESULT:      -6.5      1.621      2.213
REMARK  2 active torsions:
REMARK  status: ('A' for Active; 'I' for Inactive)
REMARK    1  A    between atoms: C_14  and  O_2 
REMARK    2  A    between atoms: O_3  and  C_20 
ROOT
HETATM    1  O   UNK N   1      32.162  16.465   7.285  0.00  0.00    -0.338 OA
HETATM    2  N   UNK N   1      29.900  14.146   3.219  0.00  0.00     0.089 N 
HETATM    3  C   UNK N   1      31.544  15.487   5.228  0.00  0.00     0.030 C 
HETATM    4  C   UNK N   1      31.671  15.857   3.745  0.00  0.00     0.057 C 
HETATM    5  C   UNK N   1      30.257  15.577   3.106  0.00  0.00     0.235 C 
HETATM    6  C   UNK N   1      32.748  15.834   6.179  0.00  0.00     0.175 C 
HETATM    7  C   UNK N   1      31.150  14.007   5.377  0.00  0.00     0.048 C 
HETATM    8  C   UNK N   1      30.504  16.340   5.829  0.00  0.00    -0.003 C 
HETATM    9  C   UNK N   1      29.103  16.409   3.762  0.00  0.00     0.075 C 
HETATM   10  C   UNK N   1      29.869  13.667   4.608  0.00  0.00     0.273 C 
HETATM   11  C   UNK N   1      29.310  16.712   5.230  0.00  0.00    -0.046 C 
HETATM   12  C   UNK N   1      33.747  16.763   5.437  0.00  0.00     0.171 C 
HETATM   13  C   UNK N   1      32.125  17.301   3.650  0.00  0.00    -0.020 C 
HETATM   14  C   UNK N   1      30.888  16.789   7.033  0.00  0.00     0.110 C 
HETATM   15  C   UNK N   1      33.101  17.735   4.473  0.00  0.00     0.004 C 
HETATM   16  C   UNK N   1      30.783  13.292   2.429  0.00  0.00     0.310 C 
HETATM   17  C   UNK N   1      28.416  17.498   5.974  0.00  0.00     0.011 C 
HETATM   18  C   UNK N   1      30.025  17.541   7.832  0.00  0.00     0.102 C 
HETATM   19  C   UNK N   1      28.753  17.877   7.295  0.00  0.00     0.040 C 
ENDROOT
BRANCH  12  20
HETATM   20  O   UNK N   1      34.619  17.408   6.316  0.00  0.00    -0.389 OA
HETATM   21  H   UNK N   1      34.720  17.085   7.225  0.00  0.00     0.210 HD
ENDBRANCH  12  20
BRANCH  18  22
HETATM   22  O   UNK N   1      30.408  17.926   9.072  0.00  0.00    -0.353 OA
HETATM   23  C   UNK N   1      29.627  18.715   9.884  0.00  0.00     0.210 C 
ENDBRANCH  18  22
TORSDOF 2
ENDMDL
MODEL 4
REMARK VINA RESULT:      -6.4      2.262      4.686
REMARK  2 active torsions:
REMARK  status: ('A' for Active; 'I' for Inactive)
REMARK    1  A    between atoms: C_14  and  O_2 
REMARK    2  A    between atoms: O_3  and  C_20 
ROOT
HETATM    1  O   UNK N   1      34.805  16.894   6.199  0.00  0.00    -0.338 OA
HETATM    2  N   UNK N   1      29.865  16.593   4.606  0.00  0.00     0.089 N 
HETATM    3  C   UNK N   1      32.483  17.064   5.818  0.00  0.00     0.030 C 
HETATM    4  C   UNK N   1      31.216  17.051   6.682  0.00  0.00     0.057 C 
HETATM    5  C   UNK N   1      30.204  16.085   5.954  0.00  0.00     0.235 C 
HETATM    6  C   UNK N   1      33.752  17.801   6.384  0.00  0.00     0.175 C 
HETATM    7  C   UNK N   1      32.156  17.566   4.401  0.00  0.00     0.048 C 
HETATM    8  C   UNK N   1      33.007  15.689   5.748  0.00  0.00    -0.003 C 
HETATM    9  C   UNK N   1      30.748  14.625   5.791  0.00  0.00     0.075 C 
HETATM   10  C   UNK N   1      31.040  16.751   3.738  0.00  0.00     0.273 C 
HETATM   11  C   UNK N   1      32.250  14.533   5.632  0.00  0.00    -0.046 C 
HETATM   12  C   UNK N   1      33.531  18.143   7.882  0.00  0.00     0.171 C 
HETATM   13  C   UNK N   1      31.597  16.616   8.084  0.00  0.00    -0.020 C 
HETATM   14  C   UNK N   1      34.341  15.678   5.886  0.00  0.00     0.110 C 
HETATM   15  C   UNK N   1      32.713  17.122   8.645  0.00  0.00     0.004 C 
HETATM   16  C   UNK N   1      29.124  17.850   4.660  0.00  0.00     0.310 C 
HETATM   17  C   UNK N   1      32.928  13.308   5.536  0.00  0.00     0.011 C 
HETATM   18  C   UNK N   1      35.070  14.493   5.760  0.00  0.00     0.102 C 
HETATM   19  C   UNK N   1      34.343  13.290   5.555  0.00  0.00     0.040 C 
ENDROOT
BRANCH  12  20
HETATM   20  O   UNK N   1      34.727  18.443   8.535  0.00  0.00    -0.389 OA
HETATM   21  H   UNK N   1      35.323  17.729   8.811  0.00  0.00     0.210 HD
ENDBRANCH  12  20
BRANCH  18  22
HETATM   22  O   UNK N   1      36.421  14.515   5.834  0.00  0.00    -0.353 OA
HETATM   23  C   UNK N   1      37.123  13.919   6.856  0.00  0.00     0.210 C 
ENDBRANCH  18  22
TORSDOF 2
ENDMDL
MODEL 5
REMARK VINA RESULT:      -6.3      8.715     10.835
REMARK  2 active torsions:
REMARK  status: ('A' for Active; 'I' for Inactive)
REMARK    1  A    between atoms: C_14  and  O_2 
REMARK    2  A    between atoms: O_3  and  C_20 
ROOT
HETATM    1  O   UNK N   1      21.466  18.819   5.904  0.00  0.00    -0.338 OA
HETATM    2  N   UNK N   1      23.397  14.621   3.520  0.00  0.00     0.089 N 
HETATM    3  C   UNK N   1      22.246  17.148   4.432  0.00  0.00     0.030 C 
HETATM    4  C   UNK N   1      21.736  16.478   3.150  0.00  0.00     0.057 C 
HETATM    5  C   UNK N   1      21.960  14.930   3.351  0.00  0.00     0.235 C 
HETATM    6  C   UNK N   1      21.986  18.690   4.609  0.00  0.00     0.175 C 
HETATM    7  C   UNK N   1      23.735  16.826   4.646  0.00  0.00     0.048 C 
HETATM    8  C   UNK N   1      21.458  16.635   5.565  0.00  0.00    -0.003 C 
HETATM    9  C   UNK N   1      21.198  14.349   4.592  0.00  0.00     0.075 C 
HETATM   10  C   UNK N   1      24.005  15.317   4.663  0.00  0.00     0.273 C 
HETATM   11  C   UNK N   1      21.035  15.325   5.736  0.00  0.00    -0.046 C 
HETATM   12  C   UNK N   1      20.987  19.178   3.526  0.00  0.00     0.171 C 
HETATM   13  C   UNK N   1      20.288  16.879   2.944  0.00  0.00    -0.020 C 
HETATM   14  C   UNK N   1      21.125  17.626   6.405  0.00  0.00     0.110 C 
HETATM   15  C   UNK N   1      19.930  18.163   3.145  0.00  0.00     0.004 C 
HETATM   16  C   UNK N   1      24.167  14.901   2.312  0.00  0.00     0.310 C 
HETATM   17  C   UNK N   1      20.328  15.009   6.906  0.00  0.00     0.011 C 
HETATM   18  C   UNK N   1      20.455  17.363   7.602  0.00  0.00     0.102 C 
HETATM   19  C   UNK N   1      20.075  16.020   7.864  0.00  0.00     0.040 C 
ENDROOT
BRANCH  12  20
HETATM   20  O   UNK N   1      20.425  20.415   3.846  0.00  0.00    -0.389 OA
HETATM   21  H   UNK N   1      19.464  20.501   3.949  0.00  0.00     0.210 HD
ENDBRANCH  12  20
BRANCH  18  22
HETATM   22  O   UNK N   1      20.189  18.369   8.468  0.00  0.00    -0.353 OA
HETATM   23  C   UNK N   1      19.221  18.281   9.441  0.00  0.00     0.210 C 
ENDBRANCH  18  22
TORSDOF 2
ENDMDL
MODEL 6
REMARK VINA RESULT:      -6.2      2.775      4.146
REMARK  2 active torsions:
REMARK  status: ('A' for Active; 'I' for Inactive)
REMARK    1  A    between atoms: C_14  and  O_2 
REMARK    2  A    between atoms: O_3  and  C_20 
ROOT
HETATM    1  O   UNK N   1      28.060  18.716   8.016  0.00  0.00    -0.338 OA
HETATM    2  N   UNK N   1      27.704  14.954   4.445  0.00  0.00     0.089 N 
HETATM    3  C   UNK N   1      28.262  16.824   6.620  0.00  0.00     0.030 C 
HETATM    4  C   UNK N   1      29.407  16.089   5.912  0.00  0.00     0.057 C 
HETATM    5  C   UNK N   1      28.905  15.818   4.442  0.00  0.00     0.235 C 
HETATM    6  C   UNK N   1      28.535  17.397   8.059  0.00  0.00     0.175 C 
HETATM    7  C   UNK N   1      26.991  15.958   6.618  0.00  0.00     0.048 C 
HETATM    8  C   UNK N   1      28.007  18.082   5.899  0.00  0.00    -0.003 C 
HETATM    9  C   UNK N   1      28.550  17.126   3.656  0.00  0.00     0.075 C 
HETATM   10  C   UNK N   1      26.584  15.527   5.205  0.00  0.00     0.273 C 
HETATM   11  C   UNK N   1      28.027  18.251   4.522  0.00  0.00    -0.046 C 
HETATM   12  C   UNK N   1      30.055  17.333   8.367  0.00  0.00     0.171 C 
HETATM   13  C   UNK N   1      30.653  16.949   5.999  0.00  0.00    -0.020 C 
HETATM   14  C   UNK N   1      27.815  19.096   6.756  0.00  0.00     0.110 C 
HETATM   15  C   UNK N   1      30.948  17.557   7.165  0.00  0.00     0.004 C 
HETATM   16  C   UNK N   1      27.991  13.610   4.937  0.00  0.00     0.310 C 
HETATM   17  C   UNK N   1      27.715  19.520   4.009  0.00  0.00     0.011 C 
HETATM   18  C   UNK N   1      27.464  20.369   6.302  0.00  0.00     0.102 C 
HETATM   19  C   UNK N   1      27.389  20.571   4.898  0.00  0.00     0.040 C 
ENDROOT
BRANCH  12  20
HETATM   20  O   UNK N   1      30.412  18.154   9.437  0.00  0.00    -0.389 OA
HETATM   21  H   UNK N   1      29.982  18.043  10.300  0.00  0.00     0.210 HD
ENDBRANCH  12  20
BRANCH  18  22
HETATM   22  O   UNK N   1      27.209  21.361   7.188  0.00  0.00    -0.353 OA
HETATM   23  C   UNK N   1      25.938  21.687   7.598  0.00  0.00     0.210 C 
ENDBRANCH  18  22
TORSDOF 2
ENDMDL
MODEL 7
REMARK VINA RESULT:      -6.2      2.449      4.239
REMARK  2 active torsions:
REMARK  status: ('A' for Active; 'I' for Inactive)
REMARK    1  A    between atoms: C_14  and  O_2 
REMARK    2  A    between atoms: O_3  and  C_20 
ROOT
HETATM    1  O   UNK N   1      28.690  17.736   4.116  0.00  0.00    -0.338 OA
HETATM    2  N   UNK N   1      33.316  16.125   5.858  0.00  0.00     0.089 N 
HETATM    3  C   UNK N   1      30.711  16.634   4.636  0.00  0.00     0.030 C 
HETATM    4  C   UNK N   1      31.127  15.208   5.017  0.00  0.00     0.057 C 
HETATM    5  C   UNK N   1      32.111  15.354   6.239  0.00  0.00     0.235 C 
HETATM    6  C   UNK N   1      29.579  16.807   3.557  0.00  0.00     0.175 C 
HETATM    7  C   UNK N   1      31.948  17.466   4.256  0.00  0.00     0.048 C 
HETATM    8  C   UNK N   1      30.039  17.243   5.796  0.00  0.00    -0.003 C 
HETATM    9  C   UNK N   1      31.463  16.065   7.477  0.00  0.00     0.075 C 
HETATM   10  C   UNK N   1      33.005  17.474   5.365  0.00  0.00     0.273 C 
HETATM   11  C   UNK N   1      30.411  17.093   7.124  0.00  0.00    -0.046 C 
HETATM   12  C   UNK N   1      28.900  15.436   3.289  0.00  0.00     0.171 C 
HETATM   13  C   UNK N   1      29.874  14.407   5.316  0.00  0.00    -0.020 C 
HETATM   14  C   UNK N   1      28.948  17.925   5.416  0.00  0.00     0.110 C 
HETATM   15  C   UNK N   1      28.807  14.535   4.502  0.00  0.00     0.004 C 
HETATM   16  C   UNK N   1      34.132  15.421   4.873  0.00  0.00     0.310 C 
HETATM   17  C   UNK N   1      29.675  17.788   8.097  0.00  0.00     0.011 C 
HETATM   18  C   UNK N   1      28.202  18.666   6.335  0.00  0.00     0.102 C 
HETATM   19  C   UNK N   1      28.596  18.612   7.699  0.00  0.00     0.040 C 
ENDROOT
BRANCH  12  20
HETATM   20  O   UNK N   1      27.668  15.575   2.650  0.00  0.00    -0.389 OA
HETATM   21  H   UNK N   1      27.577  15.338   1.713  0.00  0.00     0.210 HD
ENDBRANCH  12  20
BRANCH  18  22
HETATM   22  O   UNK N   1      27.146  19.402   5.918  0.00  0.00    -0.353 OA
HETATM   23  C   UNK N   1      27.238  20.742   5.627  0.00  0.00     0.210 C 
ENDBRANCH  18  22
TORSDOF 2
ENDMDL
MODEL 8
REMARK VINA RESULT:      -6.1      8.636     10.047
REMARK  2 active torsions:
REMARK  status: ('A' for Active; 'I' for Inactive)
REMARK    1  A    between atoms: C_14  and  O_2 
REMARK    2  A    between atoms: O_3  and  C_20 
ROOT
HETATM    1  O   UNK N   1      20.816  12.929   9.072  0.00  0.00    -0.338 OA
HETATM    2  N   UNK N   1      24.331  12.243   5.304  0.00  0.00     0.089 N 
HETATM    3  C   UNK N   1      22.638  12.368   7.683  0.00  0.00     0.030 C 
HETATM    4  C   UNK N   1      24.166  12.353   7.814  0.00  0.00     0.057 C 
HETATM    5  C   UNK N   1      24.722  13.022   6.499  0.00  0.00     0.235 C 
HETATM    6  C   UNK N   1      21.788  11.929   8.931  0.00  0.00     0.175 C 
HETATM    7  C   UNK N   1      22.204  11.582   6.433  0.00  0.00     0.048 C 
HETATM    8  C   UNK N   1      22.199  13.768   7.567  0.00  0.00    -0.003 C 
HETATM    9  C   UNK N   1      24.223  14.493   6.293  0.00  0.00     0.075 C 
HETATM   10  C   UNK N   1      22.876  12.103   5.157  0.00  0.00     0.273 C 
HETATM   11  C   UNK N   1      22.843  14.767   6.851  0.00  0.00    -0.046 C 
HETATM   12  C   UNK N   1      22.707  11.827  10.178  0.00  0.00     0.171 C 
HETATM   13  C   UNK N   1      24.543  13.077   9.092  0.00  0.00    -0.020 C 
HETATM   14  C   UNK N   1      21.109  13.993   8.315  0.00  0.00     0.110 C 
HETATM   15  C   UNK N   1      23.832  12.840  10.212  0.00  0.00     0.004 C 
HETATM   16  C   UNK N   1      24.954  10.923   5.278  0.00  0.00     0.310 C 
HETATM   17  C   UNK N   1      22.252  16.040   6.818  0.00  0.00     0.011 C 
HETATM   18  C   UNK N   1      20.458  15.228   8.290  0.00  0.00     0.102 C 
HETATM   19  C   UNK N   1      21.033  16.261   7.502  0.00  0.00     0.040 C 
ENDROOT
BRANCH  12  20
HETATM   20  O   UNK N   1      21.980  11.819  11.369  0.00  0.00    -0.389 OA
HETATM   21  H   UNK N   1      22.079  11.084  11.995  0.00  0.00     0.210 HD
ENDBRANCH  12  20
BRANCH  18  22
HETATM   22  O   UNK N   1      19.320  15.412   8.999  0.00  0.00    -0.353 OA
HETATM   23  C   UNK N   1      18.625  16.598   9.003  0.00  0.00     0.210 C 
ENDBRANCH  18  22
TORSDOF 2
ENDMDL
MODEL 9
REMARK VINA RESULT:      -6.1      9.683     11.922
REMARK  2 active torsions:
REMARK  status: ('A' for Active; 'I' for Inactive)
REMARK    1  A    between atoms: C_14  and  O_2 
REMARK    2  A    between atoms: O_3  and  C_20 
ROOT
HETATM    1  O   UNK N   1      35.842  12.989  14.863  0.00  0.00    -0.338 OA
HETATM    2  N   UNK N   1      38.217   8.385  14.424  0.00  0.00     0.089 N 
HETATM    3  C   UNK N   1      36.739  10.899  14.235  0.00  0.00     0.030 C 
HETATM    4  C   UNK N   1      36.218   9.636  13.539  0.00  0.00     0.057 C 
HETATM    5  C   UNK N   1      36.737   8.421  14.400  0.00  0.00     0.235 C 
HETATM    6  C   UNK N   1      36.228  12.291  13.710  0.00  0.00     0.175 C 
HETATM    7  C   UNK N   1      38.277  10.879  14.295  0.00  0.00     0.048 C 
HETATM    8  C   UNK N   1      36.189  10.934  15.600  0.00  0.00    -0.003 C 
HETATM    9  C   UNK N   1      36.237   8.453  15.885  0.00  0.00     0.075 C 
HETATM   10  C   UNK N   1      38.814   9.612  14.970  0.00  0.00     0.273 C 
HETATM   11  C   UNK N   1      36.031   9.844  16.443  0.00  0.00    -0.046 C 
HETATM   12  C   UNK N   1      35.042  12.077  12.732  0.00  0.00     0.171 C 
HETATM   13  C   UNK N   1      34.708   9.732  13.442  0.00  0.00    -0.020 C 
HETATM   14  C   UNK N   1      35.779  12.171  15.921  0.00  0.00     0.110 C 
HETATM   15  C   UNK N   1      34.149  10.903  13.077  0.00  0.00     0.004 C 
HETATM   16  C   UNK N   1      38.784   8.109  13.108  0.00  0.00     0.310 C 
HETATM   17  C   UNK N   1      35.527  10.075  17.732  0.00  0.00     0.011 C 
HETATM   18  C   UNK N   1      35.306  12.466  17.201  0.00  0.00     0.102 C 
HETATM   19  C   UNK N   1      35.206  11.395  18.130  0.00  0.00     0.040 C 
ENDROOT
BRANCH  12  20
HETATM   20  O   UNK N   1      34.307  13.245  12.530  0.00  0.00    -0.389 OA
HETATM   21  H   UNK N   1      34.757  14.105  12.504  0.00  0.00     0.210 HD
ENDBRANCH  12  20
BRANCH  18  22
HETATM   22  O   UNK N   1      34.962  13.734  17.523  0.00  0.00    -0.353 OA
HETATM   23  C   UNK N   1      35.877  14.675  17.936  0.00  0.00     0.210 C 
ENDBRANCH  18  22
TORSDOF 2
ENDMDL
