MODEL 1
REMARK VINA RESULT:      -5.6      0.000      0.000
REMARK  5 active torsions:
REMARK  status: ('A' for Active; 'I' for Inactive)
REMARK    1  A    between atoms: N_4  and  C_5 
REMARK    2  A    between atoms: N_4  and  C_9 
REMARK    3  A    between atoms: C_5  and  C_6 
REMARK    4  A    between atoms: C_6  and  C_7 
REMARK    5  A    between atoms: C_12  and  C_16 
ROOT
HETATM    1  C   UNK N   1      35.345  12.912  17.071  0.00  0.00    -0.056 A 
HETATM    2  C   UNK N   1      35.266  11.523  16.971  0.00  0.00     0.023 A 
HETATM    3  C   UNK N   1      35.322  13.515  18.340  0.00  0.00     0.007 A 
HETATM    4  C   UNK N   1      35.157  10.726  18.116  0.00  0.00     0.048 A 
HETATM    5  C   UNK N   1      35.217  12.727  19.490  0.00  0.00     0.001 A 
HETATM    6  C   UNK N   1      35.133  11.336  19.380  0.00  0.00     0.016 A 
ENDROOT
BRANCH   1   7
HETATM    7  C   UNK N   1      35.435  13.712  15.802  0.00  0.00     0.062 C 
BRANCH   7   8
HETATM    8  C   UNK N   1      36.847  14.016  15.313  0.00  0.00     0.076 C 
HETATM    9  C   UNK N   1      37.335  15.317  15.936  0.00  0.00     0.032 C 
BRANCH   8  10
HETATM   10  N   UNK N   1      36.813  14.163  13.866  0.00  0.00    -0.417 N 
HETATM   11  H   UNK N   1      37.542  14.581  13.287  0.00  0.00     0.153 HD
BRANCH  10  12
HETATM   12  C   UNK N   1      35.556  13.608  13.393  0.00  0.00     0.110 C 
HETATM   13  C   UNK N   1      35.208  14.214  12.050  0.00  0.00     0.026 C 
ENDBRANCH  10  12
ENDBRANCH   8  10
ENDBRANCH   7   8
ENDBRANCH   1   7
BRANCH   4  14
HETATM   14  C   UNK N   1      35.060   9.237  17.973  0.00  0.00     0.417 C 
HETATM   15  F   UNK N   1      36.140   8.644  18.601  0.00  0.00    -0.166 F 
HETATM   16  F   UNK N   1      33.894   8.753  18.538  0.00  0.00    -0.166 F 
HETATM   17  F   UNK N   1      35.079   8.901  16.630  0.00  0.00    -0.166 F 
ENDBRANCH   4  14
TORSDOF 5
ENDMDL
MODEL 2
REMARK VINA RESULT:      -5.6     11.349     13.608
REMARK  5 active torsions:
REMARK  status: ('A' for Active; 'I' for Inactive)
REMARK    1  A    between atoms: N_4  and  C_5 
REMARK    2  A    between atoms: N_4  and  C_9 
REMARK    3  A    between atoms: C_5  and  C_6 
REMARK    4  A    between atoms: C_6  and  C_7 
REMARK    5  A    between atoms: C_12  and  C_16 
ROOT
HETATM    1  C   UNK N   1      29.977  17.384   5.993  0.00  0.00    -0.056 A 
HETATM    2  C   UNK N   1      29.302  17.656   7.182  0.00  0.00     0.023 A 
HETATM    3  C   UNK N   1      31.366  17.165   6.022  0.00  0.00     0.007 A 
HETATM    4  C   UNK N   1      29.989  17.720   8.399  0.00  0.00     0.048 A 
HETATM    5  C   UNK N   1      32.060  17.224   7.232  0.00  0.00     0.001 A 
HETATM    6  C   UNK N   1      31.376  17.502   8.420  0.00  0.00     0.016 A 
ENDROOT
BRANCH   1   7
HETATM    7  C   UNK N   1      29.185  17.353   4.717  0.00  0.00     0.062 C 
BRANCH   7   8
HETATM    8  C   UNK N   1      27.910  18.190   4.711  0.00  0.00     0.076 C 
HETATM    9  C   UNK N   1      26.872  17.534   3.811  0.00  0.00     0.032 C 
BRANCH   8  10
HETATM   10  N   UNK N   1      28.226  19.511   4.192  0.00  0.00    -0.417 N 
HETATM   11  H   UNK N   1      29.016  19.749   3.591  0.00  0.00     0.153 HD
BRANCH  10  12
HETATM   12  C   UNK N   1      27.216  20.434   4.682  0.00  0.00     0.110 C 
HETATM   13  C   UNK N   1      27.534  20.823   6.110  0.00  0.00     0.026 C 
ENDBRANCH  10  12
ENDBRANCH   8  10
ENDBRANCH   7   8
ENDBRANCH   1   7
BRANCH   4  14
HETATM   14  C   UNK N   1      29.236  18.027   9.658  0.00  0.00     0.417 C 
HETATM   15  F   UNK N   1      29.230  16.911  10.474  0.00  0.00    -0.166 F 
HETATM   16  F   UNK N   1      29.813  19.080  10.345  0.00  0.00    -0.166 F 
HETATM   17  F   UNK N   1      27.930  18.362   9.343  0.00  0.00    -0.166 F 
ENDBRANCH   4  14
TORSDOF 5
ENDMDL
MODEL 3
REMARK VINA RESULT:      -5.6     10.965     13.039
REMARK  5 active torsions:
REMARK  status: ('A' for Active; 'I' for Inactive)
REMARK    1  A    between atoms: N_4  and  C_5 
REMARK    2  A    between atoms: N_4  and  C_9 
REMARK    3  A    between atoms: C_5  and  C_6 
REMARK    4  A    between atoms: C_6  and  C_7 
REMARK    5  A    between atoms: C_12  and  C_16 
ROOT
HETATM    1  C   UNK N   1      30.629  17.218   6.424  0.00  0.00    -0.056 A 
HETATM    2  C   UNK N   1      31.664  17.288   7.356  0.00  0.00     0.023 A 
HETATM    3  C   UNK N   1      30.927  17.304   5.053  0.00  0.00     0.007 A 
HETATM    4  C   UNK N   1      32.991  17.450   6.944  0.00  0.00     0.048 A 
HETATM    5  C   UNK N   1      32.250  17.462   4.631  0.00  0.00     0.001 A 
HETATM    6  C   UNK N   1      33.281  17.536   5.573  0.00  0.00     0.016 A 
ENDROOT
BRANCH   1   7
HETATM    7  C   UNK N   1      29.223  17.069   6.933  0.00  0.00     0.062 C 
BRANCH   7   8
HETATM    8  C   UNK N   1      28.609  18.320   7.550  0.00  0.00     0.076 C 
HETATM    9  C   UNK N   1      28.236  18.045   9.001  0.00  0.00     0.032 C 
BRANCH   8  10
HETATM   10  N   UNK N   1      27.407  18.662   6.805  0.00  0.00    -0.417 N 
HETATM   11  H   UNK N   1      26.575  18.080   6.706  0.00  0.00     0.153 HD
BRANCH  10  12
HETATM   12  C   UNK N   1      27.604  19.981   6.226  0.00  0.00     0.110 C 
HETATM   13  C   UNK N   1      27.982  19.843   4.767  0.00  0.00     0.026 C 
ENDBRANCH  10  12
ENDBRANCH   8  10
ENDBRANCH   7   8
ENDBRANCH   1   7
BRANCH   4  14
HETATM   14  C   UNK N   1      34.079  17.535   7.971  0.00  0.00     0.417 C 
HETATM   15  F   UNK N   1      34.989  16.515   7.762  0.00  0.00    -0.166 F 
HETATM   16  F   UNK N   1      34.742  18.747   7.902  0.00  0.00    -0.166 F 
HETATM   17  F   UNK N   1      33.530  17.398   9.235  0.00  0.00    -0.166 F 
ENDBRANCH   4  14
TORSDOF 5
ENDMDL
MODEL 4
REMARK VINA RESULT:      -5.3     23.831     26.466
REMARK  5 active torsions:
REMARK  status: ('A' for Active; 'I' for Inactive)
REMARK    1  A    between atoms: N_4  and  C_5 
REMARK    2  A    between atoms: N_4  and  C_9 
REMARK    3  A    between atoms: C_5  and  C_6 
REMARK    4  A    between atoms: C_6  and  C_7 
REMARK    5  A    between atoms: C_12  and  C_16 
ROOT
HETATM    1  C   UNK N   1      27.970  24.751  -4.476  0.00  0.00    -0.056 A 
HETATM    2  C   UNK N   1      27.284  25.963  -4.392  0.00  0.00     0.023 A 
HETATM    3  C   UNK N   1      27.448  23.717  -5.272  0.00  0.00     0.007 A 
HETATM    4  C   UNK N   1      26.084  26.158  -5.082  0.00  0.00     0.048 A 
HETATM    5  C   UNK N   1      26.251  23.903  -5.968  0.00  0.00     0.001 A 
HETATM    6  C   UNK N   1      25.568  25.119  -5.874  0.00  0.00     0.016 A 
ENDROOT
BRANCH   1   7
HETATM    7  C   UNK N   1      29.241  24.597  -3.690  0.00  0.00     0.062 C 
BRANCH   7   8
HETATM    8  C   UNK N   1      29.503  23.205  -3.126  0.00  0.00     0.076 C 
HETATM    9  C   UNK N   1      28.761  23.039  -1.807  0.00  0.00     0.032 C 
BRANCH   8  10
HETATM   10  N   UNK N   1      30.931  23.063  -2.891  0.00  0.00    -0.417 N 
HETATM   11  H   UNK N   1      31.585  23.818  -2.680  0.00  0.00     0.153 HD
BRANCH  10  12
HETATM   12  C   UNK N   1      31.263  21.653  -3.011  0.00  0.00     0.110 C 
HETATM   13  C   UNK N   1      30.675  21.101  -4.292  0.00  0.00     0.026 C 
ENDBRANCH  10  12
ENDBRANCH   8  10
ENDBRANCH   7   8
ENDBRANCH   1   7
BRANCH   4  14
HETATM   14  C   UNK N   1      25.364  27.467  -4.961  0.00  0.00     0.417 C 
HETATM   15  F   UNK N   1      24.145  27.384  -5.607  0.00  0.00    -0.166 F 
HETATM   16  F   UNK N   1      25.147  27.800  -3.636  0.00  0.00    -0.166 F 
HETATM   17  F   UNK N   1      26.121  28.464  -5.553  0.00  0.00    -0.166 F 
ENDBRANCH   4  14
TORSDOF 5
ENDMDL
MODEL 5
REMARK VINA RESULT:      -5.3     27.712     29.019
REMARK  5 active torsions:
REMARK  status: ('A' for Active; 'I' for Inactive)
REMARK    1  A    between atoms: N_4  and  C_5 
REMARK    2  A    between atoms: N_4  and  C_9 
REMARK    3  A    between atoms: C_5  and  C_6 
REMARK    4  A    between atoms: C_6  and  C_7 
REMARK    5  A    between atoms: C_12  and  C_16 
ROOT
HETATM    1  C   UNK N   1      26.928  27.173  -7.125  0.00  0.00    -0.056 A 
HETATM    2  C   UNK N   1      26.431  27.548  -5.876  0.00  0.00     0.023 A 
HETATM    3  C   UNK N   1      27.945  27.939  -7.721  0.00  0.00     0.007 A 
HETATM    4  C   UNK N   1      26.928  28.677  -5.216  0.00  0.00     0.048 A 
HETATM    5  C   UNK N   1      28.449  29.066  -7.068  0.00  0.00     0.001 A 
HETATM    6  C   UNK N   1      27.943  29.437  -5.819  0.00  0.00     0.016 A 
ENDROOT
BRANCH   1   7
HETATM    7  C   UNK N   1      26.334  25.966  -7.792  0.00  0.00     0.062 C 
BRANCH   7   8
HETATM    8  C   UNK N   1      26.081  24.768  -6.883  0.00  0.00     0.076 C 
HETATM    9  C   UNK N   1      27.403  24.092  -6.546  0.00  0.00     0.032 C 
BRANCH   8  10
HETATM   10  N   UNK N   1      25.229  23.824  -7.589  0.00  0.00    -0.417 N 
HETATM   11  H   UNK N   1      24.359  24.044  -8.075  0.00  0.00     0.153 HD
BRANCH  10  12
HETATM   12  C   UNK N   1      25.837  22.508  -7.478  0.00  0.00     0.110 C 
HETATM   13  C   UNK N   1      24.754  21.453  -7.398  0.00  0.00     0.026 C 
ENDBRANCH  10  12
ENDBRANCH   8  10
ENDBRANCH   7   8
ENDBRANCH   1   7
BRANCH   4  14
HETATM   14  C   UNK N   1      26.365  29.061  -3.880  0.00  0.00     0.417 C 
HETATM   15  F   UNK N   1      25.262  28.274  -3.604  0.00  0.00    -0.166 F 
HETATM   16  F   UNK N   1      27.298  28.892  -2.874  0.00  0.00    -0.166 F 
HETATM   17  F   UNK N   1      25.975  30.389  -3.910  0.00  0.00    -0.166 F 
ENDBRANCH   4  14
TORSDOF 5
ENDMDL
MODEL 6
REMARK VINA RESULT:      -5.3      1.881      2.848
REMARK  5 active torsions:
REMARK  status: ('A' for Active; 'I' for Inactive)
REMARK    1  A    between atoms: N_4  and  C_5 
REMARK    2  A    between atoms: N_4  and  C_9 
REMARK    3  A    between atoms: C_5  and  C_6 
REMARK    4  A    between atoms: C_6  and  C_7 
REMARK    5  A    between atoms: C_12  and  C_16 
ROOT
HETATM    1  C   UNK N   1      35.539  11.915  16.578  0.00  0.00    -0.056 A 
HETATM    2  C   UNK N   1      35.528  11.098  17.709  0.00  0.00     0.023 A 
HETATM    3  C   UNK N   1      35.377  13.303  16.728  0.00  0.00     0.007 A 
HETATM    4  C   UNK N   1      35.352  11.643  18.986  0.00  0.00     0.048 A 
HETATM    5  C   UNK N   1      35.205  13.857  18.000  0.00  0.00     0.001 A 
HETATM    6  C   UNK N   1      35.191  13.030  19.127  0.00  0.00     0.016 A 
ENDROOT
BRANCH   1   7
HETATM    7  C   UNK N   1      35.707  11.266  15.234  0.00  0.00     0.062 C 
BRANCH   7   8
HETATM    8  C   UNK N   1      34.739  11.731  14.151  0.00  0.00     0.076 C 
HETATM    9  C   UNK N   1      33.804  10.589  13.776  0.00  0.00     0.032 C 
BRANCH   8  10
HETATM   10  N   UNK N   1      35.508  12.123  12.981  0.00  0.00    -0.417 N 
HETATM   11  H   UNK N   1      36.162  11.533  12.465  0.00  0.00     0.153 HD
BRANCH  10  12
HETATM   12  C   UNK N   1      35.178  13.505  12.675  0.00  0.00     0.110 C 
HETATM   13  C   UNK N   1      36.217  14.421  13.286  0.00  0.00     0.026 C 
ENDBRANCH  10  12
ENDBRANCH   8  10
ENDBRANCH   7   8
ENDBRANCH   1   7
BRANCH   4  14
HETATM   14  C   UNK N   1      35.333  10.736  20.180  0.00  0.00     0.417 C 
HETATM   15  F   UNK N   1      34.268  11.072  20.995  0.00  0.00    -0.166 F 
HETATM   16  F   UNK N   1      35.208   9.411  19.803  0.00  0.00    -0.166 F 
HETATM   17  F   UNK N   1      36.511  10.888  20.891  0.00  0.00    -0.166 F 
ENDBRANCH   4  14
TORSDOF 5
ENDMDL
MODEL 7
REMARK VINA RESULT:      -5.3     11.593     13.158
REMARK  5 active torsions:
REMARK  status: ('A' for Active; 'I' for Inactive)
REMARK    1  A    between atoms: N_4  and  C_5 
REMARK    2  A    between atoms: N_4  and  C_9 
REMARK    3  A    between atoms: C_5  and  C_6 
REMARK    4  A    between atoms: C_6  and  C_7 
REMARK    5  A    between atoms: C_12  and  C_16 
ROOT
HETATM    1  C   UNK N   1      30.632  17.583   7.292  0.00  0.00    -0.056 A 
HETATM    2  C   UNK N   1      31.221  17.140   6.107  0.00  0.00     0.023 A 
HETATM    3  C   UNK N   1      31.450  17.922   8.384  0.00  0.00     0.007 A 
HETATM    4  C   UNK N   1      32.610  17.022   5.997  0.00  0.00     0.048 A 
HETATM    5  C   UNK N   1      32.839  17.811   8.282  0.00  0.00     0.001 A 
HETATM    6  C   UNK N   1      33.420  17.361   7.092  0.00  0.00     0.016 A 
ENDROOT
BRANCH   1   7
HETATM    7  C   UNK N   1      29.134  17.664   7.355  0.00  0.00     0.062 C 
BRANCH   7   8
HETATM    8  C   UNK N   1      28.560  18.326   8.603  0.00  0.00     0.076 C 
HETATM    9  C   UNK N   1      27.950  17.266   9.510  0.00  0.00     0.032 C 
BRANCH   8  10
HETATM   10  N   UNK N   1      27.522  19.260   8.195  0.00  0.00    -0.417 N 
HETATM   11  H   UNK N   1      26.782  19.635   8.790  0.00  0.00     0.153 HD
BRANCH  10  12
HETATM   12  C   UNK N   1      27.727  19.565   6.789  0.00  0.00     0.110 C 
HETATM   13  C   UNK N   1      27.213  20.958   6.492  0.00  0.00     0.026 C 
ENDBRANCH  10  12
ENDBRANCH   8  10
ENDBRANCH   7   8
ENDBRANCH   1   7
BRANCH   4  14
HETATM   14  C   UNK N   1      33.211  16.530   4.714  0.00  0.00     0.417 C 
HETATM   15  F   UNK N   1      34.493  16.070   4.953  0.00  0.00    -0.166 F 
HETATM   16  F   UNK N   1      32.461  15.503   4.170  0.00  0.00    -0.166 F 
HETATM   17  F   UNK N   1      33.268  17.572   3.804  0.00  0.00    -0.166 F 
ENDBRANCH   4  14
TORSDOF 5
ENDMDL
MODEL 8
REMARK VINA RESULT:      -5.3      8.442     11.389
REMARK  5 active torsions:
REMARK  status: ('A' for Active; 'I' for Inactive)
REMARK    1  A    between atoms: N_4  and  C_5 
REMARK    2  A    between atoms: N_4  and  C_9 
REMARK    3  A    between atoms: C_5  and  C_6 
REMARK    4  A    between atoms: C_6  and  C_7 
REMARK    5  A    between atoms: C_12  and  C_16 
ROOT
HETATM    1  C   UNK N   1      32.422  17.645   7.609  0.00  0.00    -0.056 A 
HETATM    2  C   UNK N   1      31.490  17.967   8.597  0.00  0.00     0.023 A 
HETATM    3  C   UNK N   1      31.972  17.207   6.352  0.00  0.00     0.007 A 
HETATM    4  C   UNK N   1      30.118  17.852   8.352  0.00  0.00     0.048 A 
HETATM    5  C   UNK N   1      30.603  17.092   6.097  0.00  0.00     0.001 A 
HETATM    6  C   UNK N   1      29.676  17.412   7.094  0.00  0.00     0.016 A 
ENDROOT
BRANCH   1   7
HETATM    7  C   UNK N   1      33.882  17.766   7.944  0.00  0.00     0.062 C 
BRANCH   7   8
HETATM    8  C   UNK N   1      34.520  16.531   8.570  0.00  0.00     0.076 C 
HETATM    9  C   UNK N   1      33.961  15.277   7.911  0.00  0.00     0.032 C 
BRANCH   8  10
HETATM   10  N   UNK N   1      34.195  16.510   9.987  0.00  0.00    -0.417 N 
HETATM   11  H   UNK N   1      33.271  16.350  10.391  0.00  0.00     0.153 HD
BRANCH  10  12
HETATM   12  C   UNK N   1      35.421  16.760  10.727  0.00  0.00     0.110 C 
HETATM   13  C   UNK N   1      36.213  15.474  10.844  0.00  0.00     0.026 C 
ENDBRANCH  10  12
ENDBRANCH   8  10
ENDBRANCH   7   8
ENDBRANCH   1   7
BRANCH   4  14
HETATM   14  C   UNK N   1      29.142  18.193   9.438  0.00  0.00     0.417 C 
HETATM   15  F   UNK N   1      28.067  18.871   8.894  0.00  0.00    -0.166 F 
HETATM   16  F   UNK N   1      28.679  17.055  10.073  0.00  0.00    -0.166 F 
HETATM   17  F   UNK N   1      29.761  19.005  10.373  0.00  0.00    -0.166 F 
ENDBRANCH   4  14
TORSDOF 5
ENDMDL
MODEL 9
REMARK VINA RESULT:      -5.2     11.395     13.432
REMARK  5 active torsions:
REMARK  status: ('A' for Active; 'I' for Inactive)
REMARK    1  A    between atoms: N_4  and  C_5 
REMARK    2  A    between atoms: N_4  and  C_9 
REMARK    3  A    between atoms: C_5  and  C_6 
REMARK    4  A    between atoms: C_6  and  C_7 
REMARK    5  A    between atoms: C_12  and  C_16 
ROOT
HETATM    1  C   UNK N   1      30.037  17.101   6.441  0.00  0.00    -0.056 A 
HETATM    2  C   UNK N   1      31.412  17.111   6.204  0.00  0.00     0.023 A 
HETATM    3  C   UNK N   1      29.553  17.483   7.705  0.00  0.00     0.007 A 
HETATM    4  C   UNK N   1      32.311  17.488   7.207  0.00  0.00     0.048 A 
HETATM    5  C   UNK N   1      30.443  17.864   8.712  0.00  0.00     0.001 A 
HETATM    6  C   UNK N   1      31.819  17.867   8.466  0.00  0.00     0.016 A 
ENDROOT
BRANCH   1   7
HETATM    7  C   UNK N   1      29.127  16.662   5.330  0.00  0.00     0.062 C 
BRANCH   7   8
HETATM    8  C   UNK N   1      28.067  17.673   4.907  0.00  0.00     0.076 C 
HETATM    9  C   UNK N   1      27.232  17.094   3.773  0.00  0.00     0.032 C 
BRANCH   8  10
HETATM   10  N   UNK N   1      28.736  18.877   4.440  0.00  0.00    -0.417 N 
HETATM   11  H   UNK N   1      29.695  18.938   4.096  0.00  0.00     0.153 HD
BRANCH  10  12
HETATM   12  C   UNK N   1      27.795  19.979   4.552  0.00  0.00     0.110 C 
HETATM   13  C   UNK N   1      27.615  20.345   6.011  0.00  0.00     0.026 C 
ENDBRANCH  10  12
ENDBRANCH   8  10
ENDBRANCH   7   8
ENDBRANCH   1   7
BRANCH   4  14
HETATM   14  C   UNK N   1      33.783  17.475   6.924  0.00  0.00     0.417 C 
HETATM   15  F   UNK N   1      34.401  18.470   7.658  0.00  0.00    -0.166 F 
HETATM   16  F   UNK N   1      34.348  16.257   7.256  0.00  0.00    -0.166 F 
HETATM   17  F   UNK N   1      33.993  17.712   5.576  0.00  0.00    -0.166 F 
ENDBRANCH   4  14
TORSDOF 5
ENDMDL
