MODEL 1
REMARK VINA RESULT:      -6.8      0.000      0.000
REMARK  3 active torsions:
REMARK  status: ('A' for Active; 'I' for Inactive)
REMARK    1  A    between atoms: C_7  and  C_8 
REMARK    2  A    between atoms: N_9  and  O_15 
REMARK    3  A    between atoms: C_17  and  N_23 
ROOT
HETATM    1  C   UNK N   1      29.501  16.393   3.842  0.00  0.00     0.026 A 
HETATM    2  C   UNK N   1      30.542  15.792   4.531  0.00  0.00     0.035 A 
HETATM    3  C   UNK N   1      30.086  17.174   6.504  0.00  0.00     0.022 A 
HETATM    4  C   UNK N   1      29.002  17.782   5.781  0.00  0.00     0.046 A 
HETATM    5  C   UNK N   1      30.827  16.182   5.834  0.00  0.00     0.040 A 
HETATM    6  C   UNK N   1      28.746  17.384   4.462  0.00  0.00     0.032 A 
HETATM    7  C   UNK N   1      30.529  17.544   7.918  0.00  0.00     0.080 C 
HETATM    8  N   UNK N   1      29.681  18.016   8.802  0.00  0.00    -0.252 N 
HETATM    9  N   UNK N   1      28.195  18.840   6.279  0.00  0.00    -0.344 N 
ATOM     10  HN  UNK N   1      27.824  19.498   5.592  1.00  0.00     0.167 HD
HETATM   11  C   UNK N   1      28.265  18.076   8.557  0.00  0.00     0.232 C 
HETATM   12  C   UNK N   1      27.888  19.046   7.507  0.00  0.00     0.097 C 
HETATM   13 Cl   UNK N   1      31.514  14.559   3.756  0.00  0.00    -0.084 Cl
ENDROOT
BRANCH   7  14
HETATM   14  C   UNK N   1      31.987  17.280   8.314  0.00  0.00    -0.006 A 
HETATM   15  C   UNK N   1      33.004  18.209   8.017  0.00  0.00     0.014 A 
HETATM   16  C   UNK N   1      34.343  17.944   8.316  0.00  0.00     0.001 A 
HETATM   17  C   UNK N   1      34.698  16.737   8.918  0.00  0.00     0.000 A 
HETATM   18  C   UNK N   1      33.710  15.804   9.232  0.00  0.00     0.001 A 
HETATM   19  C   UNK N   1      32.372  16.074   8.935  0.00  0.00     0.014 A 
ENDBRANCH   7  14
BRANCH   8  20
HETATM   20  O   UNK N   1      30.051  18.327   9.893  0.00  0.00    -0.287 OA
ATOM     21  HO  UNK N   1      30.965  18.235  10.139  1.00  0.00     0.244 HD
ENDBRANCH   8  20
BRANCH  12  22
HETATM   22  N   UNK N   1      27.015  20.112   7.851  0.00  0.00    -0.383 N 
HETATM   23  C   UNK N   1      26.538  21.052   6.869  0.00  0.00     0.147 C 
HETATM   24  H   UNK N   1      26.728  20.211   8.788  0.00  0.00     0.160 HD
ENDBRANCH  12  22
TORSDOF 3
ENDMDL
MODEL 2
REMARK VINA RESULT:      -6.4      3.423      5.070
REMARK  3 active torsions:
REMARK  status: ('A' for Active; 'I' for Inactive)
REMARK    1  A    between atoms: C_7  and  C_8 
REMARK    2  A    between atoms: N_9  and  O_15 
REMARK    3  A    between atoms: C_17  and  N_23 
ROOT
HETATM    1  C   UNK N   1      29.212  17.822   7.293  0.00  0.00     0.026 A 
HETATM    2  C   UNK N   1      30.050  17.937   8.390  0.00  0.00     0.035 A 
HETATM    3  C   UNK N   1      31.911  16.970   7.119  0.00  0.00     0.022 A 
HETATM    4  C   UNK N   1      31.034  16.867   5.985  0.00  0.00     0.046 A 
HETATM    5  C   UNK N   1      31.371  17.514   8.301  0.00  0.00     0.040 A 
HETATM    6  C   UNK N   1      29.701  17.285   6.106  0.00  0.00     0.032 A 
HETATM    7  C   UNK N   1      33.363  16.501   7.165  0.00  0.00     0.080 C 
HETATM    8  N   UNK N   1      34.113  16.481   6.086  0.00  0.00    -0.252 N 
HETATM    9  N   UNK N   1      31.392  16.287   4.739  0.00  0.00    -0.344 N 
ATOM     10  HN  UNK N   1      30.647  15.829   4.212  1.00  0.00     0.167 HD
HETATM   11  C   UNK N   1      33.675  17.034   4.833  0.00  0.00     0.232 C 
HETATM   12  C   UNK N   1      32.562  16.284   4.213  0.00  0.00     0.097 C 
HETATM   13 Cl   UNK N   1      29.444  18.592   9.896  0.00  0.00    -0.084 Cl
ENDROOT
BRANCH   7  14
HETATM   14  C   UNK N   1      33.961  16.119   8.524  0.00  0.00    -0.006 A 
HETATM   15  C   UNK N   1      33.694  14.867   9.114  0.00  0.00     0.014 A 
HETATM   16  C   UNK N   1      34.182  14.540  10.381  0.00  0.00     0.001 A 
HETATM   17  C   UNK N   1      34.946  15.463  11.094  0.00  0.00     0.000 A 
HETATM   18  C   UNK N   1      35.234  16.706  10.531  0.00  0.00     0.001 A 
HETATM   19  C   UNK N   1      34.749  17.027   9.261  0.00  0.00     0.014 A 
ENDBRANCH   7  14
BRANCH   8  20
HETATM   20  O   UNK N   1      35.237  16.083   6.135  0.00  0.00    -0.287 OA
ATOM     21  HO  UNK N   1      35.470  15.242   5.757  1.00  0.00     0.244 HD
ENDBRANCH   8  20
BRANCH  12  22
HETATM   22  N   UNK N   1      32.760  15.719   2.925  0.00  0.00    -0.383 N 
HETATM   23  C   UNK N   1      33.817  14.776   2.662  0.00  0.00     0.147 C 
HETATM   24  H   UNK N   1      32.157  15.980   2.191  0.00  0.00     0.160 HD
ENDBRANCH  12  22
TORSDOF 3
ENDMDL
MODEL 3
REMARK VINA RESULT:      -6.3      3.439      6.546
REMARK  3 active torsions:
REMARK  status: ('A' for Active; 'I' for Inactive)
REMARK    1  A    between atoms: C_7  and  C_8 
REMARK    2  A    between atoms: N_9  and  O_15 
REMARK    3  A    between atoms: C_17  and  N_23 
ROOT
HETATM    1  C   UNK N   1      31.578  17.541   8.513  0.00  0.00     0.026 A 
HETATM    2  C   UNK N   1      30.215  17.785   8.448  0.00  0.00     0.035 A 
HETATM    3  C   UNK N   1      30.233  17.449   6.019  0.00  0.00     0.022 A 
HETATM    4  C   UNK N   1      31.644  17.188   6.102  0.00  0.00     0.046 A 
HETATM    5  C   UNK N   1      29.562  17.744   7.221  0.00  0.00     0.040 A 
HETATM    6  C   UNK N   1      32.283  17.253   7.348  0.00  0.00     0.032 A 
HETATM    7  C   UNK N   1      29.410  17.480   4.733  0.00  0.00     0.080 C 
HETATM    8  N   UNK N   1      29.739  16.754   3.689  0.00  0.00    -0.252 N 
HETATM    9  N   UNK N   1      32.485  16.938   4.985  0.00  0.00    -0.344 N 
ATOM     10  HN  UNK N   1      33.457  17.241   5.064  1.00  0.00     0.167 HD
HETATM   11  C   UNK N   1      30.794  15.777   3.731  0.00  0.00     0.232 C 
HETATM   12  C   UNK N   1      32.140  16.369   3.889  0.00  0.00     0.097 C 
HETATM   13 Cl   UNK N   1      29.320  18.170   9.901  0.00  0.00    -0.084 Cl
ENDROOT
BRANCH   7  14
HETATM   14  C   UNK N   1      28.132  18.328   4.708  0.00  0.00    -0.006 A 
HETATM   15  C   UNK N   1      28.188  19.728   4.565  0.00  0.00     0.014 A 
HETATM   16  C   UNK N   1      27.031  20.511   4.608  0.00  0.00     0.001 A 
HETATM   17  C   UNK N   1      25.788  19.910   4.801  0.00  0.00     0.000 A 
HETATM   18  C   UNK N   1      25.703  18.525   4.937  0.00  0.00     0.001 A 
HETATM   19  C   UNK N   1      26.861  17.744   4.888  0.00  0.00     0.014 A 
ENDBRANCH   7  14
BRANCH   8  20
HETATM   20  O   UNK N   1      29.100  16.812   2.682  0.00  0.00    -0.287 OA
ATOM     21  HO  UNK N   1      28.932  17.649   2.264  1.00  0.00     0.244 HD
ENDBRANCH   8  20
BRANCH  12  22
HETATM   22  N   UNK N   1      33.109  16.128   2.879  0.00  0.00    -0.383 N 
HETATM   23  C   UNK N   1      33.726  14.837   2.710  0.00  0.00     0.147 C 
HETATM   24  H   UNK N   1      33.366  16.864   2.278  0.00  0.00     0.160 HD
ENDBRANCH  12  22
TORSDOF 3
ENDMDL
MODEL 4
REMARK VINA RESULT:      -6.2     11.606     13.004
REMARK  3 active torsions:
REMARK  status: ('A' for Active; 'I' for Inactive)
REMARK    1  A    between atoms: C_7  and  C_8 
REMARK    2  A    between atoms: N_9  and  O_15 
REMARK    3  A    between atoms: C_17  and  N_23 
ROOT
HETATM    1  C   UNK N   1      28.408  21.188  -7.613  0.00  0.00     0.026 A 
HETATM    2  C   UNK N   1      29.504  20.507  -7.107  0.00  0.00     0.035 A 
HETATM    3  C   UNK N   1      29.770  22.178  -5.332  0.00  0.00     0.022 A 
HETATM    4  C   UNK N   1      28.626  22.868  -5.860  0.00  0.00     0.046 A 
HETATM    5  C   UNK N   1      30.171  21.000  -5.991  0.00  0.00     0.040 A 
HETATM    6  C   UNK N   1      27.981  22.361  -6.997  0.00  0.00     0.032 A 
HETATM    7  C   UNK N   1      30.615  22.637  -4.145  0.00  0.00     0.080 C 
HETATM    8  N   UNK N   1      30.100  23.350  -3.170  0.00  0.00    -0.252 N 
HETATM    9  N   UNK N   1      28.126  24.100  -5.361  0.00  0.00    -0.344 N 
ATOM     10  HN  UNK N   1      27.679  24.723  -6.034  1.00  0.00     0.167 HD
HETATM   11  C   UNK N   1      28.689  23.619  -3.074  0.00  0.00     0.232 C 
HETATM   12  C   UNK N   1      28.183  24.504  -4.144  0.00  0.00     0.097 C 
HETATM   13 Cl   UNK N   1      30.065  19.043  -7.884  0.00  0.00    -0.084 Cl
ENDROOT
BRANCH   7  14
HETATM   14  C   UNK N   1      32.077  22.180  -4.073  0.00  0.00    -0.006 A 
HETATM   15  C   UNK N   1      33.053  22.718  -4.936  0.00  0.00     0.014 A 
HETATM   16  C   UNK N   1      34.372  22.258  -4.920  0.00  0.00     0.001 A 
HETATM   17  C   UNK N   1      34.746  21.241  -4.042  0.00  0.00     0.000 A 
HETATM   18  C   UNK N   1      33.803  20.696  -3.171  0.00  0.00     0.001 A 
HETATM   19  C   UNK N   1      32.485  21.163  -3.187  0.00  0.00     0.014 A 
ENDBRANCH   7  14
BRANCH   8  20
HETATM   20  O   UNK N   1      30.781  23.725  -2.265  0.00  0.00    -0.287 OA
ATOM     21  HO  UNK N   1      31.276  24.533  -2.334  1.00  0.00     0.244 HD
ENDBRANCH   8  20
BRANCH  12  22
HETATM   22  N   UNK N   1      27.581  25.736  -3.777  0.00  0.00    -0.383 N 
HETATM   23  C   UNK N   1      26.313  26.156  -4.319  0.00  0.00     0.147 C 
HETATM   24  H   UNK N   1      28.043  26.321  -3.133  0.00  0.00     0.160 HD
ENDBRANCH  12  22
TORSDOF 3
ENDMDL
MODEL 5
REMARK VINA RESULT:      -6.2      8.893      9.934
REMARK  3 active torsions:
REMARK  status: ('A' for Active; 'I' for Inactive)
REMARK    1  A    between atoms: C_7  and  C_8 
REMARK    2  A    between atoms: N_9  and  O_15 
REMARK    3  A    between atoms: C_17  and  N_23 
ROOT
HETATM    1  C   UNK N   1      22.259  17.718   5.345  0.00  0.00     0.026 A 
HETATM    2  C   UNK N   1      22.565  16.366   5.352  0.00  0.00     0.035 A 
HETATM    3  C   UNK N   1      21.173  16.022   7.342  0.00  0.00     0.022 A 
HETATM    4  C   UNK N   1      20.855  17.424   7.316  0.00  0.00     0.046 A 
HETATM    5  C   UNK N   1      22.033  15.540   6.336  0.00  0.00     0.040 A 
HETATM    6  C   UNK N   1      21.418  18.238   6.324  0.00  0.00     0.032 A 
HETATM    7  C   UNK N   1      20.693  15.021   8.391  0.00  0.00     0.080 C 
HETATM    8  N   UNK N   1      19.550  15.178   9.018  0.00  0.00    -0.252 N 
HETATM    9  N   UNK N   1      20.058  18.088   8.287  0.00  0.00    -0.344 N 
ATOM     10  HN  UNK N   1      20.279  19.067   8.472  1.00  0.00     0.167 HD
HETATM   11  C   UNK N   1      18.610  16.206   8.660  0.00  0.00     0.232 C 
HETATM   12  C   UNK N   1      19.089  17.574   8.952  0.00  0.00     0.097 C 
HETATM   13 Cl   UNK N   1      23.637  15.700   4.140  0.00  0.00    -0.084 Cl
ENDROOT
BRANCH   7  14
HETATM   14  C   UNK N   1      21.547  13.773   8.648  0.00  0.00    -0.006 A 
HETATM   15  C   UNK N   1      22.401  13.691   9.766  0.00  0.00     0.014 A 
HETATM   16  C   UNK N   1      23.230  12.585   9.969  0.00  0.00     0.001 A 
HETATM   17  C   UNK N   1      23.228  11.534   9.053  0.00  0.00     0.000 A 
HETATM   18  C   UNK N   1      22.385  11.584   7.943  0.00  0.00     0.001 A 
HETATM   19  C   UNK N   1      21.554  12.691   7.745  0.00  0.00     0.014 A 
ENDBRANCH   7  14
BRANCH   8  20
HETATM   20  O   UNK N   1      19.206  14.402   9.856  0.00  0.00    -0.287 OA
ATOM     21  HO  UNK N   1      19.849  13.913  10.357  1.00  0.00     0.244 HD
ENDBRANCH   8  20
BRANCH  12  22
HETATM   22  N   UNK N   1      18.337  18.380   9.847  0.00  0.00    -0.383 N 
HETATM   23  C   UNK N   1      18.951  19.417  10.636  0.00  0.00     0.147 C 
HETATM   24  H   UNK N   1      17.368  18.224   9.931  0.00  0.00     0.160 HD
ENDBRANCH  12  22
TORSDOF 3
ENDMDL
MODEL 6
REMARK VINA RESULT:      -6.1     11.260     13.172
REMARK  3 active torsions:
REMARK  status: ('A' for Active; 'I' for Inactive)
REMARK    1  A    between atoms: C_7  and  C_8 
REMARK    2  A    between atoms: N_9  and  O_15 
REMARK    3  A    between atoms: C_17  and  N_23 
ROOT
HETATM    1  C   UNK N   1      37.682   9.194  13.400  0.00  0.00     0.026 A 
HETATM    2  C   UNK N   1      36.925   8.523  14.348  0.00  0.00     0.035 A 
HETATM    3  C   UNK N   1      36.468  10.626  15.525  0.00  0.00     0.022 A 
HETATM    4  C   UNK N   1      37.246  11.309  14.529  0.00  0.00     0.046 A 
HETATM    5  C   UNK N   1      36.336   9.230  15.390  0.00  0.00     0.040 A 
HETATM    6  C   UNK N   1      37.845  10.572  13.498  0.00  0.00     0.032 A 
HETATM    7  C   UNK N   1      35.810  11.277  16.739  0.00  0.00     0.080 C 
HETATM    8  N   UNK N   1      35.410  12.528  16.717  0.00  0.00    -0.252 N 
HETATM    9  N   UNK N   1      37.535  12.701  14.546  0.00  0.00    -0.344 N 
ATOM     10  HN  UNK N   1      38.424  12.992  14.137  1.00  0.00     0.167 HD
HETATM   11  C   UNK N   1      35.424  13.319  15.515  0.00  0.00     0.232 C 
HETATM   12  C   UNK N   1      36.785  13.624  15.025  0.00  0.00     0.097 C 
HETATM   13 Cl   UNK N   1      36.729   6.787  14.250  0.00  0.00    -0.084 Cl
ENDROOT
BRANCH   7  14
HETATM   14  C   UNK N   1      35.553  10.410  17.979  0.00  0.00    -0.006 A 
HETATM   15  C   UNK N   1      34.371   9.654  18.109  0.00  0.00     0.014 A 
HETATM   16  C   UNK N   1      34.102   8.916  19.264  0.00  0.00     0.001 A 
HETATM   17  C   UNK N   1      35.010   8.920  20.322  0.00  0.00     0.000 A 
HETATM   18  C   UNK N   1      36.192   9.652  20.217  0.00  0.00     0.001 A 
HETATM   19  C   UNK N   1      36.460  10.386  19.058  0.00  0.00     0.014 A 
ENDBRANCH   7  14
BRANCH   8  20
HETATM   20  O   UNK N   1      34.924  13.028  17.685  0.00  0.00    -0.287 OA
ATOM     21  HO  UNK N   1      34.238  12.581  18.168  1.00  0.00     0.244 HD
ENDBRANCH   8  20
BRANCH  12  22
HETATM   22  N   UNK N   1      37.176  14.985  14.914  0.00  0.00    -0.383 N 
HETATM   23  C   UNK N   1      37.433  15.800  16.074  0.00  0.00     0.147 C 
HETATM   24  H   UNK N   1      37.274  15.382  14.018  0.00  0.00     0.160 HD
ENDBRANCH  12  22
TORSDOF 3
ENDMDL
MODEL 7
REMARK VINA RESULT:      -6.1     12.846     15.409
REMARK  3 active torsions:
REMARK  status: ('A' for Active; 'I' for Inactive)
REMARK    1  A    between atoms: C_7  and  C_8 
REMARK    2  A    between atoms: N_9  and  O_15 
REMARK    3  A    between atoms: C_17  and  N_23 
ROOT
HETATM    1  C   UNK N   1      30.038  22.551  -3.558  0.00  0.00     0.026 A 
HETATM    2  C   UNK N   1      29.887  22.050  -4.842  0.00  0.00     0.035 A 
HETATM    3  C   UNK N   1      28.045  23.610  -5.276  0.00  0.00     0.022 A 
HETATM    4  C   UNK N   1      28.219  24.127  -3.946  0.00  0.00     0.046 A 
HETATM    5  C   UNK N   1      28.905  22.569  -5.678  0.00  0.00     0.040 A 
HETATM    6  C   UNK N   1      29.204  23.574  -3.116  0.00  0.00     0.032 A 
HETATM    7  C   UNK N   1      26.979  24.060  -6.272  0.00  0.00     0.080 C 
HETATM    8  N   UNK N   1      26.498  25.282  -6.259  0.00  0.00    -0.252 N 
HETATM    9  N   UNK N   1      27.401  25.128  -3.357  0.00  0.00    -0.344 N 
ATOM     10  HN  UNK N   1      27.272  25.080  -2.345  1.00  0.00     0.167 HD
HETATM   11  C   UNK N   1      27.042  26.314  -5.416  0.00  0.00     0.232 C 
HETATM   12  C   UNK N   1      26.809  26.084  -3.974  0.00  0.00     0.097 C 
HETATM   13 Cl   UNK N   1      30.913  20.749  -5.404  0.00  0.00    -0.084 Cl
ENDROOT
BRANCH   7  14
HETATM   14  C   UNK N   1      26.527  23.068  -7.351  0.00  0.00    -0.006 A 
HETATM   15  C   UNK N   1      25.515  22.121  -7.095  0.00  0.00     0.014 A 
HETATM   16  C   UNK N   1      25.147  21.173  -8.053  0.00  0.00     0.001 A 
HETATM   17  C   UNK N   1      25.788  21.145  -9.291  0.00  0.00     0.000 A 
HETATM   18  C   UNK N   1      26.787  22.076  -9.574  0.00  0.00     0.001 A 
HETATM   19  C   UNK N   1      27.149  23.027  -8.616  0.00  0.00     0.014 A 
ENDBRANCH   7  14
BRANCH   8  20
HETATM   20  O   UNK N   1      25.644  25.608  -7.026  0.00  0.00    -0.287 OA
ATOM     21  HO  UNK N   1      25.036  26.304  -6.805  1.00  0.00     0.244 HD
ENDBRANCH   8  20
BRANCH  12  22
HETATM   22  N   UNK N   1      26.072  27.052  -3.243  0.00  0.00    -0.383 N 
HETATM   23  C   UNK N   1      25.882  28.393  -3.734  0.00  0.00     0.147 C 
HETATM   24  H   UNK N   1      25.681  26.800  -2.375  0.00  0.00     0.160 HD
ENDBRANCH  12  22
TORSDOF 3
ENDMDL
MODEL 8
REMARK VINA RESULT:      -6.0      3.204      5.668
REMARK  3 active torsions:
REMARK  status: ('A' for Active; 'I' for Inactive)
REMARK    1  A    between atoms: C_7  and  C_8 
REMARK    2  A    between atoms: N_9  and  O_15 
REMARK    3  A    between atoms: C_17  and  N_23 
ROOT
HETATM    1  C   UNK N   1      29.519  17.781   7.818  0.00  0.00     0.026 A 
HETATM    2  C   UNK N   1      29.501  16.870   6.774  0.00  0.00     0.035 A 
HETATM    3  C   UNK N   1      31.836  16.262   7.214  0.00  0.00     0.022 A 
HETATM    4  C   UNK N   1      31.837  17.202   8.301  0.00  0.00     0.046 A 
HETATM    5  C   UNK N   1      30.641  16.131   6.479  0.00  0.00     0.040 A 
HETATM    6  C   UNK N   1      30.680  17.948   8.567  0.00  0.00     0.032 A 
HETATM    7  C   UNK N   1      33.031  15.426   6.761  0.00  0.00     0.080 C 
HETATM    8  N   UNK N   1      33.969  15.056   7.603  0.00  0.00    -0.252 N 
HETATM    9  N   UNK N   1      32.969  17.507   9.103  0.00  0.00    -0.344 N 
ATOM     10  HN  UNK N   1      33.028  18.455   9.477  1.00  0.00     0.167 HD
HETATM   11  C   UNK N   1      33.863  15.277   9.021  0.00  0.00     0.232 C 
HETATM   12  C   UNK N   1      33.924  16.704   9.402  0.00  0.00     0.097 C 
HETATM   13 Cl   UNK N   1      28.055  16.664   5.810  0.00  0.00    -0.084 Cl
ENDROOT
BRANCH   7  14
HETATM   14  C   UNK N   1      33.079  14.958   5.302  0.00  0.00    -0.006 A 
HETATM   15  C   UNK N   1      33.551  15.805   4.278  0.00  0.00     0.014 A 
HETATM   16  C   UNK N   1      33.535  15.407   2.939  0.00  0.00     0.001 A 
HETATM   17  C   UNK N   1      33.039  14.152   2.590  0.00  0.00     0.000 A 
HETATM   18  C   UNK N   1      32.574  13.290   3.583  0.00  0.00     0.001 A 
HETATM   19  C   UNK N   1      32.597  13.689   4.922  0.00  0.00     0.014 A 
ENDBRANCH   7  14
BRANCH   8  20
HETATM   20  O   UNK N   1      34.911  14.428   7.225  0.00  0.00    -0.287 OA
ATOM     21  HO  UNK N   1      35.456  14.752   6.517  1.00  0.00     0.244 HD
ENDBRANCH   8  20
BRANCH  12  22
HETATM   22  N   UNK N   1      34.963  17.130  10.270  0.00  0.00    -0.383 N 
HETATM   23  C   UNK N   1      35.583  16.233  11.213  0.00  0.00     0.147 C 
HETATM   24  H   UNK N   1      35.269  18.066  10.227  0.00  0.00     0.160 HD
ENDBRANCH  12  22
TORSDOF 3
ENDMDL
MODEL 9
REMARK VINA RESULT:      -6.0     12.386     14.946
REMARK  3 active torsions:
REMARK  status: ('A' for Active; 'I' for Inactive)
REMARK    1  A    between atoms: C_7  and  C_8 
REMARK    2  A    between atoms: N_9  and  O_15 
REMARK    3  A    between atoms: C_17  and  N_23 
ROOT
HETATM    1  C   UNK N   1      32.213  26.666  -4.872  0.00  0.00     0.026 A 
HETATM    2  C   UNK N   1      31.118  27.496  -4.694  0.00  0.00     0.035 A 
HETATM    3  C   UNK N   1      29.704  25.573  -4.132  0.00  0.00     0.022 A 
HETATM    4  C   UNK N   1      30.850  24.725  -4.310  0.00  0.00     0.046 A 
HETATM    5  C   UNK N   1      29.889  26.955  -4.336  0.00  0.00     0.040 A 
HETATM    6  C   UNK N   1      32.075  25.294  -4.689  0.00  0.00     0.032 A 
HETATM    7  C   UNK N   1      28.294  25.100  -3.786  0.00  0.00     0.080 C 
HETATM    8  N   UNK N   1      28.088  24.007  -3.088  0.00  0.00    -0.252 N 
HETATM    9  N   UNK N   1      30.829  23.308  -4.209  0.00  0.00    -0.344 N 
ATOM     10  HN  UNK N   1      31.490  22.794  -4.793  1.00  0.00     0.167 HD
HETATM   11  C   UNK N   1      29.162  23.269  -2.478  0.00  0.00     0.232 C 
HETATM   12  C   UNK N   1      30.058  22.614  -3.454  0.00  0.00     0.097 C 
HETATM   13 Cl   UNK N   1      31.273  29.222  -4.941  0.00  0.00    -0.084 Cl
ENDROOT
BRANCH   7  14
HETATM   14  C   UNK N   1      27.109  25.976  -4.210  0.00  0.00    -0.006 A 
HETATM   15  C   UNK N   1      26.526  25.849  -5.487  0.00  0.00     0.014 A 
HETATM   16  C   UNK N   1      25.491  26.689  -5.902  0.00  0.00     0.001 A 
HETATM   17  C   UNK N   1      25.014  27.684  -5.049  0.00  0.00     0.000 A 
HETATM   18  C   UNK N   1      25.566  27.826  -3.776  0.00  0.00     0.001 A 
HETATM   19  C   UNK N   1      26.599  26.981  -3.362  0.00  0.00     0.014 A 
ENDBRANCH   7  14
BRANCH   8  20
HETATM   20  O   UNK N   1      26.978  23.637  -2.852  0.00  0.00    -0.287 OA
ATOM     21  HO  UNK N   1      26.338  24.233  -2.479  1.00  0.00     0.244 HD
ENDBRANCH   8  20
BRANCH  12  22
HETATM   22  N   UNK N   1      30.193  21.201  -3.410  0.00  0.00    -0.383 N 
HETATM   23  C   UNK N   1      31.147  20.502  -4.233  0.00  0.00     0.147 C 
HETATM   24  H   UNK N   1      29.618  20.685  -2.799  0.00  0.00     0.160 HD
ENDBRANCH  12  22
TORSDOF 3
ENDMDL
