MODEL 1
REMARK VINA RESULT:      -5.8      0.000      0.000
REMARK  9 active torsions:
REMARK  status: ('A' for Active; 'I' for Inactive)
REMARK    1  A    between atoms: C_7  and  C_4 
REMARK    2  A    between atoms: C_7  and  C_8 
REMARK    3  A    between atoms: C_7  and  C_15 
REMARK    4  A    between atoms: C_7  and  O_16 
REMARK    5  A    between atoms: C_8  and  C_9 
REMARK    6  A    between atoms: C_15  and  C_20 
REMARK    7  A    between atoms: O_16  and  C_17 
REMARK    8  A    between atoms: C_17  and  C_18 
REMARK    9  A    between atoms: C_20  and  N_21 
ROOT
HETATM    1  C   UNK N   1      28.196  24.000  -5.482  0.00  0.00     0.106 C 
ENDROOT
BRANCH   1   2
HETATM    2  C   UNK N   1      29.274  23.595  -4.468  0.00  0.00    -0.022 A 
HETATM    3  C   UNK N   1      30.634  23.511  -4.811  0.00  0.00     0.010 A 
HETATM    4  C   UNK N   1      31.578  23.079  -3.877  0.00  0.00     0.001 A 
HETATM    5  C   UNK N   1      31.178  22.743  -2.582  0.00  0.00     0.000 A 
HETATM    6  C   UNK N   1      29.834  22.838  -2.220  0.00  0.00     0.001 A 
HETATM    7  C   UNK N   1      28.886  23.251  -3.159  0.00  0.00     0.010 A 
ENDBRANCH   1   2
BRANCH   1   8
HETATM    8  C   UNK N   1      26.835  24.103  -4.741  0.00  0.00     0.082 C 
BRANCH   8   9
HETATM    9  C   UNK N   1      26.253  25.488  -4.641  0.00  0.00    -0.055 A 
HETATM   10  C   UNK N   1      26.643  26.363  -3.620  0.00  0.00     0.007 A 
HETATM   11  C   UNK N   1      26.113  27.656  -3.562  0.00  0.00     0.001 A 
HETATM   12  C   UNK N   1      25.182  28.075  -4.519  0.00  0.00     0.000 A 
HETATM   13  C   UNK N   1      24.774  27.197  -5.526  0.00  0.00     0.001 A 
HETATM   14  C   UNK N   1      25.307  25.908  -5.586  0.00  0.00     0.007 A 
ENDBRANCH   8   9
ENDBRANCH   1   8
BRANCH   1  15
HETATM   15  C   UNK N   1      28.071  23.056  -6.734  0.00  0.00     0.050 C 
HETATM   16  C   UNK N   1      28.899  21.783  -6.684  0.00  0.00     0.015 C 
BRANCH  15  17
HETATM   17  C   UNK N   1      26.623  22.646  -7.041  0.00  0.00     0.279 C 
BRANCH  17  18
HETATM   18  N   UNK N   1      26.327  22.705  -8.463  0.00  0.00     0.080 N 
HETATM   19  C   UNK N   1      25.354  23.764  -8.656  0.00  0.00     0.309 C 
HETATM   20  C   UNK N   1      25.678  21.459  -8.835  0.00  0.00     0.309 C 
ENDBRANCH  17  18
ENDBRANCH  15  17
ENDBRANCH   1  15
BRANCH   1  21
HETATM   21  O   UNK N   1      28.497  25.281  -5.936  0.00  0.00    -0.304 OA
BRANCH  21  22
HETATM   22  C   UNK N   1      28.841  25.611  -7.214  0.00  0.00     0.259 C 
HETATM   23  O   UNK N   1      29.903  25.252  -7.695  0.00  0.00    -0.265 OA
BRANCH  22  24
HETATM   24  C   UNK N   1      27.906  26.450  -8.024  0.00  0.00     0.106 C 
HETATM   25  C   UNK N   1      27.864  27.869  -7.488  0.00  0.00     0.015 C 
ENDBRANCH  22  24
ENDBRANCH  21  22
ENDBRANCH   1  21
TORSDOF 9
ENDMDL
MODEL 2
REMARK VINA RESULT:      -5.5      1.320      1.914
REMARK  9 active torsions:
REMARK  status: ('A' for Active; 'I' for Inactive)
REMARK    1  A    between atoms: C_7  and  C_4 
REMARK    2  A    between atoms: C_7  and  C_8 
REMARK    3  A    between atoms: C_7  and  C_15 
REMARK    4  A    between atoms: C_7  and  O_16 
REMARK    5  A    between atoms: C_8  and  C_9 
REMARK    6  A    between atoms: C_15  and  C_20 
REMARK    7  A    between atoms: O_16  and  C_17 
REMARK    8  A    between atoms: C_17  and  C_18 
REMARK    9  A    between atoms: C_20  and  N_21 
ROOT
HETATM    1  C   UNK N   1      27.831  23.805  -5.637  0.00  0.00     0.106 C 
ENDROOT
BRANCH   1   2
HETATM    2  C   UNK N   1      28.905  23.085  -4.811  0.00  0.00    -0.022 A 
HETATM    3  C   UNK N   1      29.770  22.131  -5.374  0.00  0.00     0.010 A 
HETATM    4  C   UNK N   1      30.693  21.451  -4.577  0.00  0.00     0.001 A 
HETATM    5  C   UNK N   1      30.778  21.729  -3.211  0.00  0.00     0.000 A 
HETATM    6  C   UNK N   1      29.939  22.687  -2.641  0.00  0.00     0.001 A 
HETATM    7  C   UNK N   1      29.001  23.353  -3.432  0.00  0.00     0.010 A 
ENDBRANCH   1   2
BRANCH   1   8
HETATM    8  C   UNK N   1      26.582  24.024  -4.740  0.00  0.00     0.082 C 
BRANCH   8   9
HETATM    9  C   UNK N   1      26.142  25.454  -4.577  0.00  0.00    -0.055 A 
HETATM   10  C   UNK N   1      26.539  26.211  -3.469  0.00  0.00     0.007 A 
HETATM   11  C   UNK N   1      26.143  27.548  -3.351  0.00  0.00     0.001 A 
HETATM   12  C   UNK N   1      25.338  28.129  -4.337  0.00  0.00     0.000 A 
HETATM   13  C   UNK N   1      24.921  27.370  -5.433  0.00  0.00     0.001 A 
HETATM   14  C   UNK N   1      25.320  26.037  -5.552  0.00  0.00     0.007 A 
ENDBRANCH   8   9
ENDBRANCH   1   8
BRANCH   1  15
HETATM   15  C   UNK N   1      27.427  23.087  -6.977  0.00  0.00     0.050 C 
HETATM   16  C   UNK N   1      26.049  22.447  -6.989  0.00  0.00     0.015 C 
BRANCH  15  17
HETATM   17  C   UNK N   1      27.515  24.004  -8.206  0.00  0.00     0.279 C 
BRANCH  17  18
HETATM   18  N   UNK N   1      26.240  24.117  -8.897  0.00  0.00     0.080 N 
HETATM   19  C   UNK N   1      26.432  23.601 -10.238  0.00  0.00     0.309 C 
HETATM   20  C   UNK N   1      25.929  25.531  -9.026  0.00  0.00     0.309 C 
ENDBRANCH  17  18
ENDBRANCH  15  17
ENDBRANCH   1  15
BRANCH   1  21
HETATM   21  O   UNK N   1      28.315  25.072  -5.955  0.00  0.00    -0.304 OA
BRANCH  21  22
HETATM   22  C   UNK N   1      29.619  25.466  -5.877  0.00  0.00     0.259 C 
HETATM   23  O   UNK N   1      30.443  25.088  -6.693  0.00  0.00    -0.265 OA
BRANCH  22  24
HETATM   24  C   UNK N   1      30.042  26.355  -4.753  0.00  0.00     0.106 C 
HETATM   25  C   UNK N   1      31.394  25.926  -4.214  0.00  0.00     0.015 C 
ENDBRANCH  22  24
ENDBRANCH  21  22
ENDBRANCH   1  21
TORSDOF 9
ENDMDL
MODEL 3
REMARK VINA RESULT:      -5.5     12.246     13.804
REMARK  9 active torsions:
REMARK  status: ('A' for Active; 'I' for Inactive)
REMARK    1  A    between atoms: C_7  and  C_4 
REMARK    2  A    between atoms: C_7  and  C_8 
REMARK    3  A    between atoms: C_7  and  C_15 
REMARK    4  A    between atoms: C_7  and  O_16 
REMARK    5  A    between atoms: C_8  and  C_9 
REMARK    6  A    between atoms: C_15  and  C_20 
REMARK    7  A    between atoms: O_16  and  C_17 
REMARK    8  A    between atoms: C_17  and  C_18 
REMARK    9  A    between atoms: C_20  and  N_21 
ROOT
HETATM    1  C   UNK N   1      29.230  16.965   5.417  0.00  0.00     0.106 C 
ENDROOT
BRANCH   1   2
HETATM    2  C   UNK N   1      29.205  17.346   6.903  0.00  0.00    -0.022 A 
HETATM    3  C   UNK N   1      28.034  17.273   7.676  0.00  0.00     0.010 A 
HETATM    4  C   UNK N   1      28.035  17.688   9.010  0.00  0.00     0.001 A 
HETATM    5  C   UNK N   1      29.212  18.162   9.594  0.00  0.00     0.000 A 
HETATM    6  C   UNK N   1      30.387  18.223   8.844  0.00  0.00     0.001 A 
HETATM    7  C   UNK N   1      30.382  17.828   7.505  0.00  0.00     0.010 A 
ENDBRANCH   1   2
BRANCH   1   8
HETATM    8  C   UNK N   1      29.087  18.261   4.573  0.00  0.00     0.082 C 
BRANCH   8   9
HETATM    9  C   UNK N   1      28.029  19.226   5.039  0.00  0.00    -0.055 A 
HETATM   10  C   UNK N   1      26.675  19.004   4.759  0.00  0.00     0.007 A 
HETATM   11  C   UNK N   1      25.706  19.898   5.227  0.00  0.00     0.001 A 
HETATM   12  C   UNK N   1      26.088  21.022   5.967  0.00  0.00     0.000 A 
HETATM   13  C   UNK N   1      27.439  21.258   6.229  0.00  0.00     0.001 A 
HETATM   14  C   UNK N   1      28.406  20.364   5.765  0.00  0.00     0.007 A 
ENDBRANCH   8   9
ENDBRANCH   1   8
BRANCH   1  15
HETATM   15  C   UNK N   1      28.153  15.903   4.982  0.00  0.00     0.050 C 
HETATM   16  C   UNK N   1      27.766  15.924   3.513  0.00  0.00     0.015 C 
BRANCH  15  17
HETATM   17  C   UNK N   1      28.551  14.461   5.329  0.00  0.00     0.279 C 
BRANCH  17  18
HETATM   18  N   UNK N   1      28.625  13.615   4.149  0.00  0.00     0.080 N 
HETATM   19  C   UNK N   1      27.761  12.473   4.384  0.00  0.00     0.309 C 
HETATM   20  C   UNK N   1      29.983  13.107   4.050  0.00  0.00     0.309 C 
ENDBRANCH  17  18
ENDBRANCH  15  17
ENDBRANCH   1  15
BRANCH   1  21
HETATM   21  O   UNK N   1      30.489  16.444   5.131  0.00  0.00    -0.304 OA
BRANCH  21  22
HETATM   22  C   UNK N   1      31.260  16.776   4.055  0.00  0.00     0.259 C 
HETATM   23  O   UNK N   1      31.057  16.282   2.958  0.00  0.00    -0.265 OA
BRANCH  22  24
HETATM   24  C   UNK N   1      32.386  17.740   4.238  0.00  0.00     0.106 C 
HETATM   25  C   UNK N   1      33.307  17.278   5.353  0.00  0.00     0.015 C 
ENDBRANCH  22  24
ENDBRANCH  21  22
ENDBRANCH   1  21
TORSDOF 9
ENDMDL
MODEL 4
REMARK VINA RESULT:      -5.4     10.909     13.481
REMARK  9 active torsions:
REMARK  status: ('A' for Active; 'I' for Inactive)
REMARK    1  A    between atoms: C_7  and  C_4 
REMARK    2  A    between atoms: C_7  and  C_8 
REMARK    3  A    between atoms: C_7  and  C_15 
REMARK    4  A    between atoms: C_7  and  O_16 
REMARK    5  A    between atoms: C_8  and  C_9 
REMARK    6  A    between atoms: C_15  and  C_20 
REMARK    7  A    between atoms: O_16  and  C_17 
REMARK    8  A    between atoms: C_17  and  C_18 
REMARK    9  A    between atoms: C_20  and  N_21 
ROOT
HETATM    1  C   UNK N   1      27.856  17.466   5.435  0.00  0.00     0.106 C 
ENDROOT
BRANCH   1   2
HETATM    2  C   UNK N   1      27.243  16.080   5.669  0.00  0.00    -0.022 A 
HETATM    3  C   UNK N   1      27.443  15.011   4.779  0.00  0.00     0.010 A 
HETATM    4  C   UNK N   1      26.817  13.780   4.993  0.00  0.00     0.001 A 
HETATM    5  C   UNK N   1      26.000  13.596   6.110  0.00  0.00     0.000 A 
HETATM    6  C   UNK N   1      25.807  14.641   7.013  0.00  0.00     0.001 A 
HETATM    7  C   UNK N   1      26.415  15.878   6.789  0.00  0.00     0.010 A 
ENDBRANCH   1   2
BRANCH   1   8
HETATM    8  C   UNK N   1      27.568  17.891   3.968  0.00  0.00     0.082 C 
BRANCH   8   9
HETATM    9  C   UNK N   1      26.263  18.607   3.744  0.00  0.00    -0.055 A 
HETATM   10  C   UNK N   1      25.042  17.996   4.051  0.00  0.00     0.007 A 
HETATM   11  C   UNK N   1      23.841  18.689   3.863  0.00  0.00     0.001 A 
HETATM   12  C   UNK N   1      23.857  19.992   3.356  0.00  0.00     0.000 A 
HETATM   13  C   UNK N   1      25.072  20.597   3.027  0.00  0.00     0.001 A 
HETATM   14  C   UNK N   1      26.271  19.906   3.218  0.00  0.00     0.007 A 
ENDBRANCH   8   9
ENDBRANCH   1   8
BRANCH   1  15
HETATM   15  C   UNK N   1      29.393  17.578   5.748  0.00  0.00     0.050 C 
HETATM   16  C   UNK N   1      29.962  16.488   6.642  0.00  0.00     0.015 C 
BRANCH  15  17
HETATM   17  C   UNK N   1      30.266  17.634   4.486  0.00  0.00     0.279 C 
BRANCH  17  18
HETATM   18  N   UNK N   1      31.385  16.709   4.552  0.00  0.00     0.080 N 
HETATM   19  C   UNK N   1      32.598  17.491   4.405  0.00  0.00     0.309 C 
HETATM   20  C   UNK N   1      31.304  15.829   3.398  0.00  0.00     0.309 C 
ENDBRANCH  17  18
ENDBRANCH  15  17
ENDBRANCH   1  15
BRANCH   1  21
HETATM   21  O   UNK N   1      27.183  18.374   6.248  0.00  0.00    -0.304 OA
BRANCH  21  22
HETATM   22  C   UNK N   1      27.760  19.390   6.952  0.00  0.00     0.259 C 
HETATM   23  O   UNK N   1      28.208  19.207   8.072  0.00  0.00    -0.265 OA
BRANCH  22  24
HETATM   24  C   UNK N   1      27.816  20.754   6.343  0.00  0.00     0.106 C 
HETATM   25  C   UNK N   1      26.496  21.477   6.536  0.00  0.00     0.015 C 
ENDBRANCH  22  24
ENDBRANCH  21  22
ENDBRANCH   1  21
TORSDOF 9
ENDMDL
MODEL 5
REMARK VINA RESULT:      -5.4     11.933     13.717
REMARK  9 active torsions:
REMARK  status: ('A' for Active; 'I' for Inactive)
REMARK    1  A    between atoms: C_7  and  C_4 
REMARK    2  A    between atoms: C_7  and  C_8 
REMARK    3  A    between atoms: C_7  and  C_15 
REMARK    4  A    between atoms: C_7  and  O_16 
REMARK    5  A    between atoms: C_8  and  C_9 
REMARK    6  A    between atoms: C_15  and  C_20 
REMARK    7  A    between atoms: O_16  and  C_17 
REMARK    8  A    between atoms: C_17  and  C_18 
REMARK    9  A    between atoms: C_20  and  N_21 
ROOT
HETATM    1  C   UNK N   1      29.105  17.009   4.865  0.00  0.00     0.106 C 
ENDROOT
BRANCH   1   2
HETATM    2  C   UNK N   1      30.564  16.684   4.520  0.00  0.00    -0.022 A 
HETATM    3  C   UNK N   1      31.097  15.391   4.656  0.00  0.00     0.010 A 
HETATM    4  C   UNK N   1      32.447  15.146   4.392  0.00  0.00     0.001 A 
HETATM    5  C   UNK N   1      33.277  16.187   3.970  0.00  0.00     0.000 A 
HETATM    6  C   UNK N   1      32.759  17.472   3.812  0.00  0.00     0.001 A 
HETATM    7  C   UNK N   1      31.415  17.723   4.095  0.00  0.00     0.010 A 
ENDBRANCH   1   2
BRANCH   1   8
HETATM    8  C   UNK N   1      28.759  16.341   6.224  0.00  0.00     0.082 C 
BRANCH   8   9
HETATM    9  C   UNK N   1      29.111  17.142   7.449  0.00  0.00    -0.055 A 
HETATM   10  C   UNK N   1      28.121  17.571   8.342  0.00  0.00     0.007 A 
HETATM   11  C   UNK N   1      28.472  18.289   9.490  0.00  0.00     0.001 A 
HETATM   12  C   UNK N   1      29.814  18.592   9.743  0.00  0.00     0.000 A 
HETATM   13  C   UNK N   1      30.803  18.186   8.844  0.00  0.00     0.001 A 
HETATM   14  C   UNK N   1      30.452  17.466   7.700  0.00  0.00     0.007 A 
ENDBRANCH   8   9
ENDBRANCH   1   8
BRANCH   1  15
HETATM   15  C   UNK N   1      28.054  16.601   3.769  0.00  0.00     0.050 C 
HETATM   16  C   UNK N   1      28.606  15.820   2.587  0.00  0.00     0.015 C 
BRANCH  15  17
HETATM   17  C   UNK N   1      26.871  15.800   4.332  0.00  0.00     0.279 C 
BRANCH  17  18
HETATM   18  N   UNK N   1      25.591  16.391   3.978  0.00  0.00     0.080 N 
HETATM   19  C   UNK N   1      24.865  16.614   5.215  0.00  0.00     0.309 C 
HETATM   20  C   UNK N   1      24.841  15.407   3.216  0.00  0.00     0.309 C 
ENDBRANCH  17  18
ENDBRANCH  15  17
ENDBRANCH   1  15
BRANCH   1  21
HETATM   21  O   UNK N   1      29.010  18.383   5.065  0.00  0.00    -0.304 OA
BRANCH  21  22
HETATM   22  C   UNK N   1      27.946  19.164   4.718  0.00  0.00     0.259 C 
HETATM   23  O   UNK N   1      27.771  19.516   3.563  0.00  0.00    -0.265 OA
BRANCH  22  24
HETATM   24  C   UNK N   1      26.999  19.614   5.782  0.00  0.00     0.106 C 
HETATM   25  C   UNK N   1      27.450  20.937   6.373  0.00  0.00     0.015 C 
ENDBRANCH  22  24
ENDBRANCH  21  22
ENDBRANCH   1  21
TORSDOF 9
ENDMDL
MODEL 6
REMARK VINA RESULT:      -5.3      1.478      4.057
REMARK  9 active torsions:
REMARK  status: ('A' for Active; 'I' for Inactive)
REMARK    1  A    between atoms: C_7  and  C_4 
REMARK    2  A    between atoms: C_7  and  C_8 
REMARK    3  A    between atoms: C_7  and  C_15 
REMARK    4  A    between atoms: C_7  and  O_16 
REMARK    5  A    between atoms: C_8  and  C_9 
REMARK    6  A    between atoms: C_15  and  C_20 
REMARK    7  A    between atoms: O_16  and  C_17 
REMARK    8  A    between atoms: C_17  and  C_18 
REMARK    9  A    between atoms: C_20  and  N_21 
ROOT
HETATM    1  C   UNK N   1      28.347  24.050  -5.657  0.00  0.00     0.106 C 
ENDROOT
BRANCH   1   2
HETATM    2  C   UNK N   1      27.963  22.861  -6.547  0.00  0.00    -0.022 A 
HETATM    3  C   UNK N   1      28.917  21.960  -7.048  0.00  0.00     0.010 A 
HETATM    4  C   UNK N   1      28.536  20.925  -7.907  0.00  0.00     0.001 A 
HETATM    5  C   UNK N   1      27.195  20.767  -8.260  0.00  0.00     0.000 A 
HETATM    6  C   UNK N   1      26.233  21.643  -7.756  0.00  0.00     0.001 A 
HETATM    7  C   UNK N   1      26.614  22.690  -6.915  0.00  0.00     0.010 A 
ENDBRANCH   1   2
BRANCH   1   8
HETATM    8  C   UNK N   1      27.272  24.203  -4.546  0.00  0.00     0.082 C 
BRANCH   8   9
HETATM    9  C   UNK N   1      26.549  25.523  -4.520  0.00  0.00    -0.055 A 
HETATM   10  C   UNK N   1      26.890  26.515  -3.593  0.00  0.00     0.007 A 
HETATM   11  C   UNK N   1      26.225  27.746  -3.605  0.00  0.00     0.001 A 
HETATM   12  C   UNK N   1      25.209  27.984  -4.536  0.00  0.00     0.000 A 
HETATM   13  C   UNK N   1      24.851  26.989  -5.447  0.00  0.00     0.001 A 
HETATM   14  C   UNK N   1      25.517  25.762  -5.438  0.00  0.00     0.007 A 
ENDBRANCH   8   9
ENDBRANCH   1   8
BRANCH   1  15
HETATM   15  C   UNK N   1      28.552  25.413  -6.416  0.00  0.00     0.050 C 
HETATM   16  C   UNK N   1      29.917  26.059  -6.249  0.00  0.00     0.015 C 
BRANCH  15  17
HETATM   17  C   UNK N   1      28.275  25.314  -7.923  0.00  0.00     0.279 C 
BRANCH  17  18
HETATM   18  N   UNK N   1      27.442  26.407  -8.399  0.00  0.00     0.080 N 
HETATM   19  C   UNK N   1      26.290  25.816  -9.053  0.00  0.00     0.309 C 
HETATM   20  C   UNK N   1      28.189  27.123  -9.420  0.00  0.00     0.309 C 
ENDBRANCH  17  18
ENDBRANCH  15  17
ENDBRANCH   1  15
BRANCH   1  21
HETATM   21  O   UNK N   1      29.539  23.732  -5.012  0.00  0.00    -0.304 OA
BRANCH  21  22
HETATM   22  C   UNK N   1      29.732  23.714  -3.661  0.00  0.00     0.259 C 
HETATM   23  O   UNK N   1      29.997  24.736  -3.049  0.00  0.00    -0.265 OA
BRANCH  22  24
HETATM   24  C   UNK N   1      29.640  22.414  -2.932  0.00  0.00     0.106 C 
HETATM   25  C   UNK N   1      30.408  21.333  -3.671  0.00  0.00     0.015 C 
ENDBRANCH  22  24
ENDBRANCH  21  22
ENDBRANCH   1  21
TORSDOF 9
ENDMDL
MODEL 7
REMARK VINA RESULT:      -5.3     13.320     16.105
REMARK  9 active torsions:
REMARK  status: ('A' for Active; 'I' for Inactive)
REMARK    1  A    between atoms: C_7  and  C_4 
REMARK    2  A    between atoms: C_7  and  C_8 
REMARK    3  A    between atoms: C_7  and  C_15 
REMARK    4  A    between atoms: C_7  and  O_16 
REMARK    5  A    between atoms: C_8  and  C_9 
REMARK    6  A    between atoms: C_15  and  C_20 
REMARK    7  A    between atoms: O_16  and  C_17 
REMARK    8  A    between atoms: C_17  and  C_18 
REMARK    9  A    between atoms: C_20  and  N_21 
ROOT
HETATM    1  C   UNK N   1      32.702  15.885   7.485  0.00  0.00     0.106 C 
ENDROOT
BRANCH   1   2
HETATM    2  C   UNK N   1      33.523  15.920   8.781  0.00  0.00    -0.022 A 
HETATM    3  C   UNK N   1      34.473  16.922   9.040  0.00  0.00     0.010 A 
HETATM    4  C   UNK N   1      35.246  16.885  10.203  0.00  0.00     0.001 A 
HETATM    5  C   UNK N   1      35.065  15.858  11.132  0.00  0.00     0.000 A 
HETATM    6  C   UNK N   1      34.113  14.866  10.897  0.00  0.00     0.001 A 
HETATM    7  C   UNK N   1      33.354  14.889   9.726  0.00  0.00     0.010 A 
ENDBRANCH   1   2
BRANCH   1   8
HETATM    8  C   UNK N   1      31.234  15.519   7.841  0.00  0.00     0.082 C 
BRANCH   8   9
HETATM    9  C   UNK N   1      30.293  16.685   7.990  0.00  0.00    -0.055 A 
HETATM   10  C   UNK N   1      30.347  17.518   9.113  0.00  0.00     0.007 A 
HETATM   11  C   UNK N   1      29.483  18.614   9.218  0.00  0.00     0.001 A 
HETATM   12  C   UNK N   1      28.554  18.872   8.205  0.00  0.00     0.000 A 
HETATM   13  C   UNK N   1      28.482  18.030   7.093  0.00  0.00     0.001 A 
HETATM   14  C   UNK N   1      29.347  16.939   6.987  0.00  0.00     0.007 A 
ENDBRANCH   8   9
ENDBRANCH   1   8
BRANCH   1  15
HETATM   15  C   UNK N   1      33.254  14.922   6.371  0.00  0.00     0.050 C 
HETATM   16  C   UNK N   1      34.598  14.278   6.667  0.00  0.00     0.015 C 
BRANCH  15  17
HETATM   17  C   UNK N   1      32.278  13.793   6.009  0.00  0.00     0.279 C 
BRANCH  17  18
HETATM   18  N   UNK N   1      31.725  13.956   4.673  0.00  0.00     0.080 N 
HETATM   19  C   UNK N   1      30.309  13.649   4.755  0.00  0.00     0.309 C 
HETATM   20  C   UNK N   1      32.329  12.950   3.816  0.00  0.00     0.309 C 
ENDBRANCH  17  18
ENDBRANCH  15  17
ENDBRANCH   1  15
BRANCH   1  21
HETATM   21  O   UNK N   1      32.672  17.176   6.964  0.00  0.00    -0.304 OA
BRANCH  21  22
HETATM   22  C   UNK N   1      33.058  17.533   5.705  0.00  0.00     0.259 C 
HETATM   23  O   UNK N   1      34.211  17.850   5.465  0.00  0.00    -0.265 OA
BRANCH  22  24
HETATM   24  C   UNK N   1      32.037  17.560   4.614  0.00  0.00     0.106 C 
HETATM   25  C   UNK N   1      32.643  17.086   3.306  0.00  0.00     0.015 C 
ENDBRANCH  22  24
ENDBRANCH  21  22
ENDBRANCH   1  21
TORSDOF 9
ENDMDL
MODEL 8
REMARK VINA RESULT:      -5.2     11.844     13.914
REMARK  9 active torsions:
REMARK  status: ('A' for Active; 'I' for Inactive)
REMARK    1  A    between atoms: C_7  and  C_4 
REMARK    2  A    between atoms: C_7  and  C_8 
REMARK    3  A    between atoms: C_7  and  C_15 
REMARK    4  A    between atoms: C_7  and  O_16 
REMARK    5  A    between atoms: C_8  and  C_9 
REMARK    6  A    between atoms: C_15  and  C_20 
REMARK    7  A    between atoms: O_16  and  C_17 
REMARK    8  A    between atoms: C_17  and  C_18 
REMARK    9  A    between atoms: C_20  and  N_21 
ROOT
HETATM    1  C   UNK N   1      27.427  17.170   5.097  0.00  0.00     0.106 C 
ENDROOT
BRANCH   1   2
HETATM    2  C   UNK N   1      28.392  16.215   4.384  0.00  0.00    -0.022 A 
HETATM    3  C   UNK N   1      28.374  14.827   4.605  0.00  0.00     0.010 A 
HETATM    4  C   UNK N   1      29.310  13.995   3.985  0.00  0.00     0.001 A 
HETATM    5  C   UNK N   1      30.263  14.538   3.120  0.00  0.00     0.000 A 
HETATM    6  C   UNK N   1      30.282  15.911   2.875  0.00  0.00     0.001 A 
HETATM    7  C   UNK N   1      29.361  16.746   3.511  0.00  0.00     0.010 A 
ENDBRANCH   1   2
BRANCH   1   8
HETATM    8  C   UNK N   1      27.371  16.783   6.601  0.00  0.00     0.082 C 
BRANCH   8   9
HETATM    9  C   UNK N   1      28.485  17.329   7.453  0.00  0.00    -0.055 A 
HETATM   10  C   UNK N   1      29.815  16.950   7.235  0.00  0.00     0.007 A 
HETATM   11  C   UNK N   1      30.839  17.492   8.019  0.00  0.00     0.001 A 
HETATM   12  C   UNK N   1      30.535  18.406   9.033  0.00  0.00     0.000 A 
HETATM   13  C   UNK N   1      29.207  18.770   9.269  0.00  0.00     0.001 A 
HETATM   14  C   UNK N   1      28.186  18.232   8.484  0.00  0.00     0.007 A 
ENDBRANCH   8   9
ENDBRANCH   1   8
BRANCH   1  15
HETATM   15  C   UNK N   1      25.978  17.230   4.490  0.00  0.00     0.050 C 
HETATM   16  C   UNK N   1      25.838  16.707   3.070  0.00  0.00     0.015 C 
BRANCH  15  17
HETATM   17  C   UNK N   1      24.931  16.504   5.348  0.00  0.00     0.279 C 
BRANCH  17  18
HETATM   18  N   UNK N   1      24.437  15.297   4.705  0.00  0.00     0.080 N 
HETATM   19  C   UNK N   1      22.988  15.353   4.745  0.00  0.00     0.309 C 
HETATM   20  C   UNK N   1      24.842  14.162   5.517  0.00  0.00     0.309 C 
ENDBRANCH  17  18
ENDBRANCH  15  17
ENDBRANCH   1  15
BRANCH   1  21
HETATM   21  O   UNK N   1      27.973  18.450   5.039  0.00  0.00    -0.304 OA
BRANCH  21  22
HETATM   22  C   UNK N   1      27.296  19.588   4.709  0.00  0.00     0.259 C 
HETATM   23  O   UNK N   1      27.277  20.000   3.561  0.00  0.00    -0.265 OA
BRANCH  22  24
HETATM   24  C   UNK N   1      26.592  20.350   5.783  0.00  0.00     0.106 C 
HETATM   25  C   UNK N   1      27.511  21.400   6.381  0.00  0.00     0.015 C 
ENDBRANCH  22  24
ENDBRANCH  21  22
ENDBRANCH   1  21
TORSDOF 9
ENDMDL
MODEL 9
REMARK VINA RESULT:      -5.2      1.796      4.273
REMARK  9 active torsions:
REMARK  status: ('A' for Active; 'I' for Inactive)
REMARK    1  A    between atoms: C_7  and  C_4 
REMARK    2  A    between atoms: C_7  and  C_8 
REMARK    3  A    between atoms: C_7  and  C_15 
REMARK    4  A    between atoms: C_7  and  O_16 
REMARK    5  A    between atoms: C_8  and  C_9 
REMARK    6  A    between atoms: C_15  and  C_20 
REMARK    7  A    between atoms: O_16  and  C_17 
REMARK    8  A    between atoms: C_17  and  C_18 
REMARK    9  A    between atoms: C_20  and  N_21 
ROOT
HETATM    1  C   UNK N   1      28.537  24.922  -5.179  0.00  0.00     0.106 C 
ENDROOT
BRANCH   1   2
HETATM    2  C   UNK N   1      29.458  24.096  -4.272  0.00  0.00    -0.022 A 
HETATM    3  C   UNK N   1      30.763  23.740  -4.652  0.00  0.00     0.010 A 
HETATM    4  C   UNK N   1      31.550  22.934  -3.826  0.00  0.00     0.001 A 
HETATM    5  C   UNK N   1      31.051  22.491  -2.599  0.00  0.00     0.000 A 
HETATM    6  C   UNK N   1      29.764  22.852  -2.199  0.00  0.00     0.001 A 
HETATM    7  C   UNK N   1      28.969  23.640  -3.033  0.00  0.00     0.010 A 
ENDBRANCH   1   2
BRANCH   1   8
HETATM    8  C   UNK N   1      28.703  24.418  -6.639  0.00  0.00     0.082 C 
BRANCH   8   9
HETATM    9  C   UNK N   1      27.481  23.787  -7.251  0.00  0.00    -0.055 A 
HETATM   10  C   UNK N   1      27.165  22.444  -7.012  0.00  0.00     0.007 A 
HETATM   11  C   UNK N   1      26.009  21.884  -7.566  0.00  0.00     0.001 A 
HETATM   12  C   UNK N   1      25.170  22.662  -8.370  0.00  0.00     0.000 A 
HETATM   13  C   UNK N   1      25.493  23.996  -8.628  0.00  0.00     0.001 A 
HETATM   14  C   UNK N   1      26.645  24.556  -8.073  0.00  0.00     0.007 A 
ENDBRANCH   8   9
ENDBRANCH   1   8
BRANCH   1  15
HETATM   15  C   UNK N   1      28.750  26.478  -5.107  0.00  0.00     0.050 C 
HETATM   16  C   UNK N   1      29.715  26.961  -4.036  0.00  0.00     0.015 C 
BRANCH  15  17
HETATM   17  C   UNK N   1      29.205  27.090  -6.440  0.00  0.00     0.279 C 
BRANCH  17  18
HETATM   18  N   UNK N   1      28.136  27.822  -7.099  0.00  0.00     0.080 N 
HETATM   19  C   UNK N   1      28.486  27.920  -8.504  0.00  0.00     0.309 C 
HETATM   20  C   UNK N   1      28.129  29.175  -6.568  0.00  0.00     0.309 C 
ENDBRANCH  17  18
ENDBRANCH  15  17
ENDBRANCH   1  15
BRANCH   1  21
HETATM   21  O   UNK N   1      27.222  24.648  -4.814  0.00  0.00    -0.304 OA
BRANCH  21  22
HETATM   22  C   UNK N   1      26.330  25.555  -4.320  0.00  0.00     0.259 C 
HETATM   23  O   UNK N   1      26.319  25.848  -3.135  0.00  0.00    -0.265 OA
BRANCH  22  24
HETATM   24  C   UNK N   1      25.336  26.174  -5.247  0.00  0.00     0.106 C 
HETATM   25  C   UNK N   1      25.164  27.650  -4.936  0.00  0.00     0.015 C 
ENDBRANCH  22  24
ENDBRANCH  21  22
ENDBRANCH   1  21
TORSDOF 9
ENDMDL
