MODEL 1
REMARK VINA RESULT:      -4.8      0.000      0.000
REMARK  3 active torsions:
REMARK  status: ('A' for Active; 'I' for Inactive)
REMARK    1  A    between atoms: C_1  and  C_4 
REMARK    2  A    between atoms: C_4  and  C_7 
REMARK    3  A    between atoms: C_7  and  N_10 
ROOT
HETATM    1  C   UNK N   1      35.333  12.640  17.226  0.00  0.00    -0.056 A 
HETATM    2  C   UNK N   1      35.164  13.401  18.393  0.00  0.00     0.007 A 
HETATM    3  C   UNK N   1      35.517  11.258  17.335  0.00  0.00     0.007 A 
HETATM    4  C   UNK N   1      35.179  12.788  19.648  0.00  0.00     0.001 A 
HETATM    5  C   UNK N   1      35.533  10.641  18.590  0.00  0.00     0.001 A 
HETATM    6  C   UNK N   1      35.363  11.407  19.746  0.00  0.00     0.000 A 
ENDROOT
BRANCH   1   7
HETATM    7  C   UNK N   1      35.325  13.247  15.850  0.00  0.00     0.062 C 
BRANCH   7   8
HETATM    8  C   UNK N   1      36.611  13.881  15.301  0.00  0.00     0.074 C 
HETATM    9  C   UNK N   1      37.277  15.168  15.756  0.00  0.00     0.032 C 
BRANCH   8  10
HETATM   10  N   UNK N   1      37.266  13.167  14.222  0.00  0.00    -0.426 N 
HETATM   11  H   UNK N   1      37.748  12.289  14.411  0.00  0.00     0.150 HD
HETATM   12  H   UNK N   1      37.244  13.543  13.275  0.00  0.00     0.150 HD
ENDBRANCH   8  10
ENDBRANCH   7   8
ENDBRANCH   1   7
TORSDOF 3
ENDMDL
MODEL 2
REMARK VINA RESULT:      -4.7     14.685     15.998
REMARK  3 active torsions:
REMARK  status: ('A' for Active; 'I' for Inactive)
REMARK    1  A    between atoms: C_1  and  C_4 
REMARK    2  A    between atoms: C_4  and  C_7 
REMARK    3  A    between atoms: C_7  and  N_10 
ROOT
HETATM    1  C   UNK N   1      22.091  12.443   9.404  0.00  0.00    -0.056 A 
HETATM    2  C   UNK N   1      21.876  12.300   8.025  0.00  0.00     0.007 A 
HETATM    3  C   UNK N   1      21.557  13.554  10.065  0.00  0.00     0.007 A 
HETATM    4  C   UNK N   1      21.138  13.253   7.320  0.00  0.00     0.001 A 
HETATM    5  C   UNK N   1      20.817  14.510   9.361  0.00  0.00     0.001 A 
HETATM    6  C   UNK N   1      20.608  14.358   7.988  0.00  0.00     0.000 A 
ENDROOT
BRANCH   1   7
HETATM    7  C   UNK N   1      22.878  11.449  10.214  0.00  0.00     0.062 C 
BRANCH   7   8
HETATM    8  C   UNK N   1      23.659  11.932  11.444  0.00  0.00     0.074 C 
HETATM    9  C   UNK N   1      23.223  11.880  12.898  0.00  0.00     0.032 C 
BRANCH   8  10
HETATM   10  N   UNK N   1      24.966  12.505  11.186  0.00  0.00    -0.426 N 
HETATM   11  H   UNK N   1      25.316  13.260  11.775  0.00  0.00     0.150 HD
HETATM   12  H   UNK N   1      25.534  12.153  10.416  0.00  0.00     0.150 HD
ENDBRANCH   8  10
ENDBRANCH   7   8
ENDBRANCH   1   7
TORSDOF 3
ENDMDL
MODEL 3
REMARK VINA RESULT:      -4.7     26.496     28.513
REMARK  3 active torsions:
REMARK  status: ('A' for Active; 'I' for Inactive)
REMARK    1  A    between atoms: C_1  and  C_4 
REMARK    2  A    between atoms: C_4  and  C_7 
REMARK    3  A    between atoms: C_7  and  N_10 
ROOT
HETATM    1  C   UNK N   1      25.890  27.450  -5.363  0.00  0.00    -0.056 A 
HETATM    2  C   UNK N   1      26.907  27.887  -6.225  0.00  0.00     0.007 A 
HETATM    3  C   UNK N   1      25.601  28.197  -4.217  0.00  0.00     0.007 A 
HETATM    4  C   UNK N   1      27.623  29.054  -5.943  0.00  0.00     0.001 A 
HETATM    5  C   UNK N   1      26.316  29.365  -3.932  0.00  0.00     0.001 A 
HETATM    6  C   UNK N   1      27.326  29.793  -4.796  0.00  0.00     0.000 A 
ENDROOT
BRANCH   1   7
HETATM    7  C   UNK N   1      25.088  26.202  -5.616  0.00  0.00     0.062 C 
BRANCH   7   8
HETATM    8  C   UNK N   1      25.667  24.841  -5.208  0.00  0.00     0.074 C 
HETATM    9  C   UNK N   1      26.504  24.521  -3.981  0.00  0.00     0.032 C 
BRANCH   8  10
HETATM   10  N   UNK N   1      25.381  23.732  -6.097  0.00  0.00    -0.426 N 
HETATM   11  H   UNK N   1      25.844  23.674  -7.003  0.00  0.00     0.150 HD
HETATM   12  H   UNK N   1      24.718  23.011  -5.815  0.00  0.00     0.150 HD
ENDBRANCH   8  10
ENDBRANCH   7   8
ENDBRANCH   1   7
TORSDOF 3
ENDMDL
MODEL 4
REMARK VINA RESULT:      -4.6      1.059      2.001
REMARK  3 active torsions:
REMARK  status: ('A' for Active; 'I' for Inactive)
REMARK    1  A    between atoms: C_1  and  C_4 
REMARK    2  A    between atoms: C_4  and  C_7 
REMARK    3  A    between atoms: C_7  and  N_10 
ROOT
HETATM    1  C   UNK N   1      35.234  12.644  16.849  0.00  0.00    -0.056 A 
HETATM    2  C   UNK N   1      35.392  11.316  17.272  0.00  0.00     0.007 A 
HETATM    3  C   UNK N   1      35.129  13.656  17.809  0.00  0.00     0.007 A 
HETATM    4  C   UNK N   1      35.443  11.006  18.633  0.00  0.00     0.001 A 
HETATM    5  C   UNK N   1      35.180  13.349  19.172  0.00  0.00     0.001 A 
HETATM    6  C   UNK N   1      35.337  12.023  19.584  0.00  0.00     0.000 A 
ENDROOT
BRANCH   1   7
HETATM    7  C   UNK N   1      35.173  13.036  15.398  0.00  0.00     0.062 C 
BRANCH   7   8
HETATM    8  C   UNK N   1      36.469  13.085  14.578  0.00  0.00     0.074 C 
HETATM    9  C   UNK N   1      37.442  11.949  14.313  0.00  0.00     0.032 C 
BRANCH   8  10
HETATM   10  N   UNK N   1      36.803  14.366  13.986  0.00  0.00    -0.426 N 
HETATM   11  H   UNK N   1      36.719  14.499  12.979  0.00  0.00     0.150 HD
HETATM   12  H   UNK N   1      37.121  15.134  14.577  0.00  0.00     0.150 HD
ENDBRANCH   8  10
ENDBRANCH   7   8
ENDBRANCH   1   7
TORSDOF 3
ENDMDL
MODEL 5
REMARK VINA RESULT:      -4.5      2.133      3.616
REMARK  3 active torsions:
REMARK  status: ('A' for Active; 'I' for Inactive)
REMARK    1  A    between atoms: C_1  and  C_4 
REMARK    2  A    between atoms: C_4  and  C_7 
REMARK    3  A    between atoms: C_7  and  N_10 
ROOT
HETATM    1  C   UNK N   1      36.221  13.380  15.779  0.00  0.00    -0.056 A 
HETATM    2  C   UNK N   1      35.432  13.334  16.938  0.00  0.00     0.007 A 
HETATM    3  C   UNK N   1      37.085  14.463  15.586  0.00  0.00     0.007 A 
HETATM    4  C   UNK N   1      35.507  14.356  17.887  0.00  0.00     0.001 A 
HETATM    5  C   UNK N   1      37.162  15.487  16.535  0.00  0.00     0.001 A 
HETATM    6  C   UNK N   1      36.372  15.433  17.686  0.00  0.00     0.000 A 
ENDROOT
BRANCH   1   7
HETATM    7  C   UNK N   1      36.182  12.309  14.723  0.00  0.00     0.062 C 
BRANCH   7   8
HETATM    8  C   UNK N   1      34.837  11.923  14.094  0.00  0.00     0.074 C 
HETATM    9  C   UNK N   1      33.762  11.027  14.685  0.00  0.00     0.032 C 
BRANCH   8  10
HETATM   10  N   UNK N   1      34.560  12.478  12.784  0.00  0.00    -0.426 N 
HETATM   11  H   UNK N   1      33.602  12.696  12.515  0.00  0.00     0.150 HD
HETATM   12  H   UNK N   1      35.324  12.649  12.131  0.00  0.00     0.150 HD
ENDBRANCH   8  10
ENDBRANCH   7   8
ENDBRANCH   1   7
TORSDOF 3
ENDMDL
MODEL 6
REMARK VINA RESULT:      -4.4      3.142      5.313
REMARK  3 active torsions:
REMARK  status: ('A' for Active; 'I' for Inactive)
REMARK    1  A    between atoms: C_1  and  C_4 
REMARK    2  A    between atoms: C_4  and  C_7 
REMARK    3  A    between atoms: C_7  and  N_10 
ROOT
HETATM    1  C   UNK N   1      35.389  11.592  19.100  0.00  0.00    -0.056 A 
HETATM    2  C   UNK N   1      35.573  11.061  17.815  0.00  0.00     0.007 A 
HETATM    3  C   UNK N   1      35.187  12.968  19.246  0.00  0.00     0.007 A 
HETATM    4  C   UNK N   1      35.555  11.895  16.694  0.00  0.00     0.001 A 
HETATM    5  C   UNK N   1      35.168  13.805  18.126  0.00  0.00     0.001 A 
HETATM    6  C   UNK N   1      35.352  13.267  16.850  0.00  0.00     0.000 A 
ENDROOT
BRANCH   1   7
HETATM    7  C   UNK N   1      35.399  10.743  20.342  0.00  0.00     0.062 C 
BRANCH   7   8
HETATM    8  C   UNK N   1      34.073  10.197  20.889  0.00  0.00     0.074 C 
HETATM    9  C   UNK N   1      33.259   9.032  20.353  0.00  0.00     0.032 C 
BRANCH   8  10
HETATM   10  N   UNK N   1      33.535  10.872  22.054  0.00  0.00    -0.426 N 
HETATM   11  H   UNK N   1      33.255  11.850  21.991  0.00  0.00     0.150 HD
HETATM   12  H   UNK N   1      33.438  10.370  22.936  0.00  0.00     0.150 HD
ENDBRANCH   8  10
ENDBRANCH   7   8
ENDBRANCH   1   7
TORSDOF 3
ENDMDL
MODEL 7
REMARK VINA RESULT:      -4.3     13.566     15.325
REMARK  3 active torsions:
REMARK  status: ('A' for Active; 'I' for Inactive)
REMARK    1  A    between atoms: C_1  and  C_4 
REMARK    2  A    between atoms: C_4  and  C_7 
REMARK    3  A    between atoms: C_7  and  N_10 
ROOT
HETATM    1  C   UNK N   1      28.074  18.958   6.072  0.00  0.00    -0.056 A 
HETATM    2  C   UNK N   1      27.630  20.226   6.474  0.00  0.00     0.007 A 
HETATM    3  C   UNK N   1      27.824  18.532   4.764  0.00  0.00     0.007 A 
HETATM    4  C   UNK N   1      26.947  21.055   5.581  0.00  0.00     0.001 A 
HETATM    5  C   UNK N   1      27.141  19.359   3.867  0.00  0.00     0.001 A 
HETATM    6  C   UNK N   1      26.703  20.621   4.277  0.00  0.00     0.000 A 
ENDROOT
BRANCH   1   7
HETATM    7  C   UNK N   1      28.814  18.024   6.991  0.00  0.00     0.062 C 
BRANCH   7   8
HETATM    8  C   UNK N   1      28.871  18.336   8.493  0.00  0.00     0.074 C 
HETATM    9  C   UNK N   1      30.077  18.778   9.302  0.00  0.00     0.032 C 
BRANCH   8  10
HETATM   10  N   UNK N   1      27.627  18.191   9.223  0.00  0.00    -0.426 N 
HETATM   11  H   UNK N   1      26.736  18.284   8.736  0.00  0.00     0.150 HD
HETATM   12  H   UNK N   1      27.642  17.996  10.223  0.00  0.00     0.150 HD
ENDBRANCH   8  10
ENDBRANCH   7   8
ENDBRANCH   1   7
TORSDOF 3
ENDMDL
MODEL 8
REMARK VINA RESULT:      -4.2      1.677      2.220
REMARK  3 active torsions:
REMARK  status: ('A' for Active; 'I' for Inactive)
REMARK    1  A    between atoms: C_1  and  C_4 
REMARK    2  A    between atoms: C_4  and  C_7 
REMARK    3  A    between atoms: C_7  and  N_10 
ROOT
HETATM    1  C   UNK N   1      36.315  12.423  15.776  0.00  0.00    -0.056 A 
HETATM    2  C   UNK N   1      35.677  13.397  16.560  0.00  0.00     0.007 A 
HETATM    3  C   UNK N   1      36.396  11.111  16.253  0.00  0.00     0.007 A 
HETATM    4  C   UNK N   1      35.128  13.061  17.800  0.00  0.00     0.001 A 
HETATM    5  C   UNK N   1      35.848  10.772  17.494  0.00  0.00     0.001 A 
HETATM    6  C   UNK N   1      35.214  11.748  18.267  0.00  0.00     0.000 A 
ENDROOT
BRANCH   1   7
HETATM    7  C   UNK N   1      36.924  12.728  14.434  0.00  0.00     0.062 C 
BRANCH   7   8
HETATM    8  C   UNK N   1      36.131  13.567  13.423  0.00  0.00     0.074 C 
HETATM    9  C   UNK N   1      35.055  13.089  12.464  0.00  0.00     0.032 C 
BRANCH   8  10
HETATM   10  N   UNK N   1      36.447  14.981  13.379  0.00  0.00    -0.426 N 
HETATM   11  H   UNK N   1      36.265  15.518  12.532  0.00  0.00     0.150 HD
HETATM   12  H   UNK N   1      36.851  15.439  14.196  0.00  0.00     0.150 HD
ENDBRANCH   8  10
ENDBRANCH   7   8
ENDBRANCH   1   7
TORSDOF 3
ENDMDL
MODEL 9
REMARK VINA RESULT:      -4.2     10.539     11.587
REMARK  3 active torsions:
REMARK  status: ('A' for Active; 'I' for Inactive)
REMARK    1  A    between atoms: C_1  and  C_4 
REMARK    2  A    between atoms: C_4  and  C_7 
REMARK    3  A    between atoms: C_7  and  N_10 
ROOT
HETATM    1  C   UNK N   1      30.722  17.505   7.888  0.00  0.00    -0.056 A 
HETATM    2  C   UNK N   1      29.548  17.035   7.281  0.00  0.00     0.007 A 
HETATM    3  C   UNK N   1      30.624  18.297   9.037  0.00  0.00     0.007 A 
HETATM    4  C   UNK N   1      28.297  17.353   7.814  0.00  0.00     0.001 A 
HETATM    5  C   UNK N   1      29.373  18.617   9.574  0.00  0.00     0.001 A 
HETATM    6  C   UNK N   1      28.210  18.144   8.961  0.00  0.00     0.000 A 
ENDROOT
BRANCH   1   7
HETATM    7  C   UNK N   1      32.096  17.194   7.358  0.00  0.00     0.062 C 
BRANCH   7   8
HETATM    8  C   UNK N   1      33.313  17.374   8.274  0.00  0.00     0.074 C 
HETATM    9  C   UNK N   1      34.403  18.428   8.172  0.00  0.00     0.032 C 
BRANCH   8  10
HETATM   10  N   UNK N   1      33.438  16.428   9.365  0.00  0.00    -0.426 N 
HETATM   11  H   UNK N   1      34.210  16.509  10.025  0.00  0.00     0.150 HD
HETATM   12  H   UNK N   1      32.753  15.680   9.473  0.00  0.00     0.150 HD
ENDBRANCH   8  10
ENDBRANCH   7   8
ENDBRANCH   1   7
TORSDOF 3
ENDMDL
