MODEL 1
REMARK VINA RESULT:      -7.1      0.000      0.000
REMARK  3 active torsions:
REMARK  status: ('A' for Active; 'I' for Inactive)
REMARK    1  A    between atoms: N_6  and  C_11 
REMARK    2  A    between atoms: C_11  and  C_18 
REMARK    3  A    between atoms: C_12  and  C_17 
ROOT
HETATM    1 Cl   UNK N   1      20.909  10.799   5.125  0.00  0.00    -0.084 Cl
HETATM    2  O   UNK N   1      20.872  18.675   7.194  0.00  0.00    -0.271 OA
HETATM    3  N   UNK N   1      20.870  16.748   6.049  0.00  0.00    -0.307 N 
HETATM    4  N   UNK N   1      20.758  15.852   9.036  0.00  0.00    -0.380 N 
ATOM      5  HN  UNK N   1      21.065  16.042   9.991  1.00  0.00     0.160 HD
HETATM    6  C   UNK N   1      20.790  15.302   5.956  0.00  0.00     0.050 A 
HETATM    7  C   UNK N   1      20.887  14.366   7.062  0.00  0.00     0.020 A 
HETATM    8  C   UNK N   1      21.063  14.702   8.546  0.00  0.00     0.051 C 
HETATM    9  C   UNK N   1      20.673  17.466   7.190  0.00  0.00     0.242 C 
HETATM   10  C   UNK N   1      20.036  16.885   8.375  0.00  0.00     0.223 C 
HETATM   11  C   UNK N   1      20.726  14.769   4.647  0.00  0.00     0.032 A 
HETATM   12  C   UNK N   1      20.914  12.996   6.735  0.00  0.00     0.040 A 
HETATM   13  C   UNK N   1      20.741  13.408   4.386  0.00  0.00     0.026 A 
HETATM   14  C   UNK N   1      20.840  12.520   5.434  0.00  0.00     0.035 A 
ENDROOT
BRANCH   8  15
HETATM   15  C   UNK N   1      21.450  13.663   9.581  0.00  0.00    -0.009 A 
HETATM   16  C   UNK N   1      22.814  13.357   9.760  0.00  0.00     0.014 A 
HETATM   17  C   UNK N   1      23.235  12.490  10.773  0.00  0.00     0.001 A 
HETATM   18  C   UNK N   1      22.300  11.927  11.641  0.00  0.00     0.000 A 
HETATM   19  C   UNK N   1      20.945  12.213  11.482  0.00  0.00     0.001 A 
HETATM   20  C   UNK N   1      20.525  13.070  10.461  0.00  0.00     0.014 A 
ENDBRANCH   8  15
BRANCH   3  21
HETATM   21  C   UNK N   1      21.120  17.506   4.829  0.00  0.00     0.249 C 
BRANCH  21  22
HETATM   22  C   UNK N   1      22.631  17.652   4.564  0.00  0.00     0.403 C 
HETATM   23  F   UNK N   1      23.368  17.239   5.659  0.00  0.00    -0.169 F 
HETATM   24  F   UNK N   1      22.952  18.967   4.285  0.00  0.00    -0.169 F 
HETATM   25  F   UNK N   1      22.981  16.874   3.477  0.00  0.00    -0.169 F 
ENDBRANCH  21  22
ENDBRANCH   3  21
TORSDOF 3
ENDMDL
MODEL 2
REMARK VINA RESULT:      -7.0      8.753     11.023
REMARK  3 active torsions:
REMARK  status: ('A' for Active; 'I' for Inactive)
REMARK    1  A    between atoms: N_6  and  C_11 
REMARK    2  A    between atoms: C_11  and  C_18 
REMARK    3  A    between atoms: C_12  and  C_17 
ROOT
HETATM    1 Cl   UNK N   1      28.188  18.022   9.423  0.00  0.00    -0.084 Cl
HETATM    2  O   UNK N   1      32.938  16.785   2.924  0.00  0.00    -0.271 OA
HETATM    3  N   UNK N   1      32.170  17.045   5.014  0.00  0.00    -0.307 N 
HETATM    4  N   UNK N   1      29.610  17.234   3.241  0.00  0.00    -0.380 N 
ATOM      5  HN  UNK N   1      29.212  17.553   2.357  1.00  0.00     0.160 HD
HETATM    6  C   UNK N   1      31.107  17.201   5.988  0.00  0.00     0.050 A 
HETATM    7  C   UNK N   1      29.717  17.507   5.698  0.00  0.00     0.020 A 
HETATM    8  C   UNK N   1      29.081  17.699   4.317  0.00  0.00     0.051 C 
HETATM    9  C   UNK N   1      31.981  16.790   3.689  0.00  0.00     0.242 C 
HETATM   10  C   UNK N   1      30.697  16.318   3.164  0.00  0.00     0.223 C 
HETATM   11  C   UNK N   1      31.500  17.161   7.346  0.00  0.00     0.032 A 
HETATM   12  C   UNK N   1      28.874  17.744   6.801  0.00  0.00     0.040 A 
HETATM   13  C   UNK N   1      30.622  17.387   8.394  0.00  0.00     0.026 A 
HETATM   14  C   UNK N   1      29.305  17.684   8.118  0.00  0.00     0.035 A 
ENDROOT
BRANCH   8  15
HETATM   15  C   UNK N   1      27.703  18.305   4.128  0.00  0.00    -0.009 A 
HETATM   16  C   UNK N   1      27.586  19.705   4.017  0.00  0.00     0.014 A 
HETATM   17  C   UNK N   1      26.357  20.308   3.731  0.00  0.00     0.001 A 
HETATM   18  C   UNK N   1      25.224  19.520   3.531  0.00  0.00     0.000 A 
HETATM   19  C   UNK N   1      25.315  18.133   3.639  0.00  0.00     0.001 A 
HETATM   20  C   UNK N   1      26.542  17.533   3.936  0.00  0.00     0.014 A 
ENDBRANCH   8  15
BRANCH   3  21
HETATM   21  C   UNK N   1      33.550  17.104   5.482  0.00  0.00     0.249 C 
BRANCH  21  22
HETATM   22  C   UNK N   1      34.100  15.695   5.773  0.00  0.00     0.403 C 
HETATM   23  F   UNK N   1      34.998  15.302   4.796  0.00  0.00    -0.169 F 
HETATM   24  F   UNK N   1      33.072  14.772   5.824  0.00  0.00    -0.169 F 
HETATM   25  F   UNK N   1      34.749  15.700   6.992  0.00  0.00    -0.169 F 
ENDBRANCH  21  22
ENDBRANCH   3  21
TORSDOF 3
ENDMDL
MODEL 3
REMARK VINA RESULT:      -6.9     16.026     17.595
REMARK  3 active torsions:
REMARK  status: ('A' for Active; 'I' for Inactive)
REMARK    1  A    between atoms: N_6  and  C_11 
REMARK    2  A    between atoms: C_11  and  C_18 
REMARK    3  A    between atoms: C_12  and  C_17 
ROOT
HETATM    1 Cl   UNK N   1      27.885  21.843  -9.243  0.00  0.00    -0.084 Cl
HETATM    2  O   UNK N   1      30.908  23.124  -1.791  0.00  0.00    -0.271 OA
HETATM    3  N   UNK N   1      30.391  22.237  -3.784  0.00  0.00    -0.307 N 
HETATM    4  N   UNK N   1      29.062  25.059  -3.846  0.00  0.00    -0.380 N 
ATOM      5  HN  UNK N   1      28.580  25.782  -3.310  1.00  0.00     0.160 HD
HETATM    6  C   UNK N   1      29.811  22.297  -5.112  0.00  0.00     0.050 A 
HETATM    7  C   UNK N   1      28.923  23.332  -5.613  0.00  0.00     0.020 A 
HETATM    8  C   UNK N   1      28.439  24.578  -4.864  0.00  0.00     0.051 C 
HETATM    9  C   UNK N   1      30.506  23.297  -2.936  0.00  0.00     0.242 C 
HETATM   10  C   UNK N   1      30.358  24.680  -3.395  0.00  0.00     0.223 C 
HETATM   11  C   UNK N   1      30.052  21.179  -5.945  0.00  0.00     0.032 A 
HETATM   12  C   UNK N   1      28.369  23.130  -6.892  0.00  0.00     0.040 A 
HETATM   13  C   UNK N   1      29.491  21.041  -7.204  0.00  0.00     0.026 A 
HETATM   14  C   UNK N   1      28.643  22.019  -7.676  0.00  0.00     0.035 A 
ENDROOT
BRANCH   8  15
HETATM   15  C   UNK N   1      27.289  25.435  -5.358  0.00  0.00    -0.009 A 
HETATM   16  C   UNK N   1      25.982  25.130  -4.930  0.00  0.00     0.014 A 
HETATM   17  C   UNK N   1      24.900  25.951  -5.264  0.00  0.00     0.001 A 
HETATM   18  C   UNK N   1      25.110  27.106  -6.018  0.00  0.00     0.000 A 
HETATM   19  C   UNK N   1      26.394  27.426  -6.455  0.00  0.00     0.001 A 
HETATM   20  C   UNK N   1      27.471  26.597  -6.129  0.00  0.00     0.014 A 
ENDBRANCH   8  15
BRANCH   3  21
HETATM   21  C   UNK N   1      30.951  20.968  -3.331  0.00  0.00     0.249 C 
BRANCH  21  22
HETATM   22  C   UNK N   1      32.475  20.923  -3.551  0.00  0.00     0.403 C 
HETATM   23  F   UNK N   1      33.152  21.003  -2.347  0.00  0.00    -0.169 F 
HETATM   24  F   UNK N   1      32.882  21.969  -4.357  0.00  0.00    -0.169 F 
HETATM   25  F   UNK N   1      32.812  19.734  -4.168  0.00  0.00    -0.169 F 
ENDBRANCH  21  22
ENDBRANCH   3  21
TORSDOF 3
ENDMDL
MODEL 4
REMARK VINA RESULT:      -6.9      8.413      9.539
REMARK  3 active torsions:
REMARK  status: ('A' for Active; 'I' for Inactive)
REMARK    1  A    between atoms: N_6  and  C_11 
REMARK    2  A    between atoms: C_11  and  C_18 
REMARK    3  A    between atoms: C_12  and  C_17 
ROOT
HETATM    1 Cl   UNK N   1      31.471  14.210   3.800  0.00  0.00    -0.084 Cl
HETATM    2  O   UNK N   1      27.294  19.944   7.800  0.00  0.00    -0.271 OA
HETATM    3  N   UNK N   1      27.985  18.444   6.284  0.00  0.00    -0.307 N 
HETATM    4  N   UNK N   1      30.039  18.162   8.616  0.00  0.00    -0.380 N 
ATOM      5  HN  UNK N   1      30.569  18.644   9.343  1.00  0.00     0.160 HD
HETATM    6  C   UNK N   1      28.850  17.370   5.833  0.00  0.00     0.050 A 
HETATM    7  C   UNK N   1      30.087  16.943   6.463  0.00  0.00     0.020 A 
HETATM    8  C   UNK N   1      30.718  17.509   7.739  0.00  0.00     0.051 C 
HETATM    9  C   UNK N   1      27.983  18.963   7.544  0.00  0.00     0.242 C 
HETATM   10  C   UNK N   1      28.621  18.277   8.670  0.00  0.00     0.223 C 
HETATM   11  C   UNK N   1      28.500  16.771   4.599  0.00  0.00     0.032 A 
HETATM   12  C   UNK N   1      30.841  15.965   5.786  0.00  0.00     0.040 A 
HETATM   13  C   UNK N   1      29.275  15.800   3.986  0.00  0.00     0.026 A 
HETATM   14  C   UNK N   1      30.452  15.400   4.581  0.00  0.00     0.035 A 
ENDROOT
BRANCH   8  15
HETATM   15  C   UNK N   1      32.146  17.205   8.150  0.00  0.00    -0.009 A 
HETATM   16  C   UNK N   1      33.142  18.175   7.915  0.00  0.00     0.014 A 
HETATM   17  C   UNK N   1      34.451  17.994   8.372  0.00  0.00     0.001 A 
HETATM   18  C   UNK N   1      34.785  16.847   9.092  0.00  0.00     0.000 A 
HETATM   19  C   UNK N   1      33.817  15.873   9.335  0.00  0.00     0.001 A 
HETATM   20  C   UNK N   1      32.513  16.051   8.866  0.00  0.00     0.014 A 
ENDBRANCH   8  15
BRANCH   3  21
HETATM   21  C   UNK N   1      26.998  18.976   5.351  0.00  0.00     0.249 C 
BRANCH  21  22
HETATM   22  C   UNK N   1      27.569  20.165   4.556  0.00  0.00     0.403 C 
HETATM   23  F   UNK N   1      27.119  20.148   3.248  0.00  0.00    -0.169 F 
HETATM   24  F   UNK N   1      28.951  20.128   4.548  0.00  0.00    -0.169 F 
HETATM   25  F   UNK N   1      27.164  21.346   5.147  0.00  0.00    -0.169 F 
ENDBRANCH  21  22
ENDBRANCH   3  21
TORSDOF 3
ENDMDL
MODEL 5
REMARK VINA RESULT:      -6.8      4.180      6.734
REMARK  3 active torsions:
REMARK  status: ('A' for Active; 'I' for Inactive)
REMARK    1  A    between atoms: N_6  and  C_11 
REMARK    2  A    between atoms: C_11  and  C_18 
REMARK    3  A    between atoms: C_12  and  C_17 
ROOT
HETATM    1 Cl   UNK N   1      23.785  14.289   7.046  0.00  0.00    -0.084 Cl
HETATM    2  O   UNK N   1      22.703  20.998   2.557  0.00  0.00    -0.271 OA
HETATM    3  N   UNK N   1      22.405  19.260   3.942  0.00  0.00    -0.307 N 
HETATM    4  N   UNK N   1      25.415  19.079   3.140  0.00  0.00    -0.380 N 
ATOM      5  HN  UNK N   1      26.106  19.211   2.400  1.00  0.00     0.160 HD
HETATM    6  C   UNK N   1      22.882  18.124   4.708  0.00  0.00     0.050 A 
HETATM    7  C   UNK N   1      24.183  17.490   4.582  0.00  0.00     0.020 A 
HETATM    8  C   UNK N   1      25.324  17.900   3.646  0.00  0.00     0.051 C 
HETATM    9  C   UNK N   1      23.204  20.134   3.269  0.00  0.00     0.242 C 
HETATM   10  C   UNK N   1      24.646  20.217   3.513  0.00  0.00     0.223 C 
HETATM   11  C   UNK N   1      21.938  17.520   5.572  0.00  0.00     0.032 A 
HETATM   12  C   UNK N   1      24.394  16.317   5.332  0.00  0.00     0.040 A 
HETATM   13  C   UNK N   1      22.207  16.372   6.299  0.00  0.00     0.026 A 
HETATM   14  C   UNK N   1      23.439  15.767   6.174  0.00  0.00     0.035 A 
ENDROOT
BRANCH   8  15
HETATM   15  C   UNK N   1      26.519  17.006   3.373  0.00  0.00    -0.009 A 
HETATM   16  C   UNK N   1      26.358  15.896   2.520  0.00  0.00     0.014 A 
HETATM   17  C   UNK N   1      27.449  15.105   2.147  0.00  0.00     0.001 A 
HETATM   18  C   UNK N   1      28.728  15.422   2.605  0.00  0.00     0.000 A 
HETATM   19  C   UNK N   1      28.912  16.513   3.452  0.00  0.00     0.001 A 
HETATM   20  C   UNK N   1      27.818  17.295   3.833  0.00  0.00     0.014 A 
ENDBRANCH   8  15
BRANCH   3  21
HETATM   21  C   UNK N   1      20.973  19.534   3.931  0.00  0.00     0.249 C 
BRANCH  21  22
HETATM   22  C   UNK N   1      20.288  18.869   2.722  0.00  0.00     0.403 C 
HETATM   23  F   UNK N   1      21.033  17.801   2.255  0.00  0.00    -0.169 F 
HETATM   24  F   UNK N   1      20.126  19.778   1.693  0.00  0.00    -0.169 F 
HETATM   25  F   UNK N   1      19.043  18.406   3.100  0.00  0.00    -0.169 F 
ENDBRANCH  21  22
ENDBRANCH   3  21
TORSDOF 3
ENDMDL
MODEL 6
REMARK VINA RESULT:      -6.6      4.474      6.814
REMARK  3 active torsions:
REMARK  status: ('A' for Active; 'I' for Inactive)
REMARK    1  A    between atoms: N_6  and  C_11 
REMARK    2  A    between atoms: C_11  and  C_18 
REMARK    3  A    between atoms: C_12  and  C_17 
ROOT
HETATM    1 Cl   UNK N   1      23.313  15.176   7.000  0.00  0.00    -0.084 Cl
HETATM    2  O   UNK N   1      20.670  20.146   1.115  0.00  0.00    -0.271 OA
HETATM    3  N   UNK N   1      20.855  18.494   2.618  0.00  0.00    -0.307 N 
HETATM    4  N   UNK N   1      23.408  20.227   3.083  0.00  0.00    -0.380 N 
ATOM      5  HN  UNK N   1      24.135  20.799   2.652  1.00  0.00     0.160 HD
HETATM    6  C   UNK N   1      21.505  17.830   3.732  0.00  0.00     0.050 A 
HETATM    7  C   UNK N   1      22.830  18.123   4.251  0.00  0.00     0.020 A 
HETATM    8  C   UNK N   1      23.798  19.202   3.756  0.00  0.00     0.051 C 
HETATM    9  C   UNK N   1      21.206  19.716   2.130  0.00  0.00     0.242 C 
HETATM   10  C   UNK N   1      22.060  20.639   2.882  0.00  0.00     0.223 C 
HETATM   11  C   UNK N   1      20.816  16.721   4.279  0.00  0.00     0.032 A 
HETATM   12  C   UNK N   1      23.322  17.270   5.257  0.00  0.00     0.040 A 
HETATM   13  C   UNK N   1      21.345  15.924   5.281  0.00  0.00     0.026 A 
HETATM   14  C   UNK N   1      22.605  16.198   5.768  0.00  0.00     0.035 A 
ENDROOT
BRANCH   8  15
HETATM   15  C   UNK N   1      25.261  19.235   4.157  0.00  0.00    -0.009 A 
HETATM   16  C   UNK N   1      26.134  18.264   3.627  0.00  0.00     0.014 A 
HETATM   17  C   UNK N   1      27.509  18.314   3.875  0.00  0.00     0.001 A 
HETATM   18  C   UNK N   1      28.041  19.349   4.644  0.00  0.00     0.000 A 
HETATM   19  C   UNK N   1      27.197  20.319   5.181  0.00  0.00     0.001 A 
HETATM   20  C   UNK N   1      25.821  20.260   4.942  0.00  0.00     0.014 A 
ENDBRANCH   8  15
BRANCH   3  21
HETATM   21  C   UNK N   1      19.702  17.845   2.004  0.00  0.00     0.249 C 
BRANCH  21  22
HETATM   22  C   UNK N   1      20.137  16.889   0.877  0.00  0.00     0.403 C 
HETATM   23  F   UNK N   1      21.331  16.265   1.190  0.00  0.00    -0.169 F 
HETATM   24  F   UNK N   1      20.295  17.577  -0.311  0.00  0.00    -0.169 F 
HETATM   25  F   UNK N   1      19.167  15.922   0.700  0.00  0.00    -0.169 F 
ENDBRANCH  21  22
ENDBRANCH   3  21
TORSDOF 3
ENDMDL
MODEL 7
REMARK VINA RESULT:      -6.5     15.841     17.156
REMARK  3 active torsions:
REMARK  status: ('A' for Active; 'I' for Inactive)
REMARK    1  A    between atoms: N_6  and  C_11 
REMARK    2  A    between atoms: C_11  and  C_18 
REMARK    3  A    between atoms: C_12  and  C_17 
ROOT
HETATM    1 Cl   UNK N   1      29.048  20.652  -8.756  0.00  0.00    -0.084 Cl
HETATM    2  O   UNK N   1      26.266  25.913  -3.197  0.00  0.00    -0.271 OA
HETATM    3  N   UNK N   1      26.514  24.641  -5.026  0.00  0.00    -0.307 N 
HETATM    4  N   UNK N   1      28.927  23.840  -3.217  0.00  0.00    -0.380 N 
ATOM      5  HN  UNK N   1      29.627  24.159  -2.546  1.00  0.00     0.160 HD
HETATM    6  C   UNK N   1      27.171  23.601  -5.795  0.00  0.00     0.050 A 
HETATM    7  C   UNK N   1      28.455  22.993  -5.493  0.00  0.00     0.020 A 
HETATM    8  C   UNK N   1      29.364  23.297  -4.298  0.00  0.00     0.051 C 
HETATM    9  C   UNK N   1      26.797  24.944  -3.728  0.00  0.00     0.242 C 
HETATM   10  C   UNK N   1      27.562  24.039  -2.866  0.00  0.00     0.223 C 
HETATM   11  C   UNK N   1      26.542  23.239  -7.010  0.00  0.00     0.032 A 
HETATM   12  C   UNK N   1      28.972  22.093  -6.445  0.00  0.00     0.040 A 
HETATM   13  C   UNK N   1      27.091  22.333  -7.903  0.00  0.00     0.026 A 
HETATM   14  C   UNK N   1      28.313  21.762  -7.620  0.00  0.00     0.035 A 
ENDROOT
BRANCH   8  15
HETATM   15  C   UNK N   1      30.807  22.834  -4.228  0.00  0.00    -0.009 A 
HETATM   16  C   UNK N   1      31.103  21.632  -3.555  0.00  0.00     0.014 A 
HETATM   17  C   UNK N   1      32.398  21.103  -3.555  0.00  0.00     0.001 A 
HETATM   18  C   UNK N   1      33.418  21.757  -4.246  0.00  0.00     0.000 A 
HETATM   19  C   UNK N   1      33.149  22.948  -4.917  0.00  0.00     0.001 A 
HETATM   20  C   UNK N   1      31.857  23.482  -4.905  0.00  0.00     0.014 A 
ENDBRANCH   8  15
BRANCH   3  21
HETATM   21  C   UNK N   1      25.429  25.385  -5.655  0.00  0.00     0.249 C 
BRANCH  21  22
HETATM   22  C   UNK N   1      25.964  26.613  -6.417  0.00  0.00     0.403 C 
HETATM   23  F   UNK N   1      27.347  26.639  -6.406  0.00  0.00    -0.169 F 
HETATM   24  F   UNK N   1      25.495  27.782  -5.847  0.00  0.00    -0.169 F 
HETATM   25  F   UNK N   1      25.534  26.559  -7.728  0.00  0.00    -0.169 F 
ENDBRANCH  21  22
ENDBRANCH   3  21
TORSDOF 3
ENDMDL
MODEL 8
REMARK VINA RESULT:      -6.5      3.442      6.289
REMARK  3 active torsions:
REMARK  status: ('A' for Active; 'I' for Inactive)
REMARK    1  A    between atoms: N_6  and  C_11 
REMARK    2  A    between atoms: C_11  and  C_18 
REMARK    3  A    between atoms: C_12  and  C_17 
ROOT
HETATM    1 Cl   UNK N   1      25.287  14.645   3.831  0.00  0.00    -0.084 Cl
HETATM    2  O   UNK N   1      19.574  14.233   9.620  0.00  0.00    -0.271 OA
HETATM    3  N   UNK N   1      21.330  13.813   8.292  0.00  0.00    -0.307 N 
HETATM    4  N   UNK N   1      20.274  16.574   7.296  0.00  0.00    -0.380 N 
ATOM      5  HN  UNK N   1      19.454  17.158   7.125  1.00  0.00     0.160 HD
HETATM    6  C   UNK N   1      22.273  14.168   7.248  0.00  0.00     0.050 A 
HETATM    7  C   UNK N   1      22.152  15.286   6.329  0.00  0.00     0.020 A 
HETATM    8  C   UNK N   1      21.033  16.331   6.286  0.00  0.00     0.051 C 
HETATM    9  C   UNK N   1      20.400  14.657   8.820  0.00  0.00     0.242 C 
HETATM   10  C   UNK N   1      20.466  16.107   8.626  0.00  0.00     0.223 C 
HETATM   11  C   UNK N   1      23.343  13.265   7.047  0.00  0.00     0.032 A 
HETATM   12  C   UNK N   1      23.115  15.374   5.305  0.00  0.00     0.040 A 
HETATM   13  C   UNK N   1      24.272  13.411   6.030  0.00  0.00     0.026 A 
HETATM   14  C   UNK N   1      24.154  14.467   5.153  0.00  0.00     0.035 A 
ENDROOT
BRANCH   8  15
HETATM   15  C   UNK N   1      20.838  17.275   5.114  0.00  0.00    -0.009 A 
HETATM   16  C   UNK N   1      19.946  16.907   4.087  0.00  0.00     0.014 A 
HETATM   17  C   UNK N   1      19.645  17.785   3.040  0.00  0.00     0.001 A 
HETATM   18  C   UNK N   1      20.217  19.057   3.012  0.00  0.00     0.000 A 
HETATM   19  C   UNK N   1      21.105  19.441   4.015  0.00  0.00     0.001 A 
HETATM   20  C   UNK N   1      21.413  18.558   5.054  0.00  0.00     0.014 A 
ENDBRANCH   8  15
BRANCH   3  21
HETATM   21  C   UNK N   1      21.411  12.476   8.871  0.00  0.00     0.249 C 
BRANCH  21  22
HETATM   22  C   UNK N   1      22.206  12.489  10.190  0.00  0.00     0.403 C 
HETATM   23  F   UNK N   1      21.356  12.432  11.281  0.00  0.00    -0.169 F 
HETATM   24  F   UNK N   1      22.972  13.635  10.287  0.00  0.00    -0.169 F 
HETATM   25  F   UNK N   1      23.046  11.393  10.227  0.00  0.00    -0.169 F 
ENDBRANCH  21  22
ENDBRANCH   3  21
TORSDOF 3
ENDMDL
MODEL 9
REMARK VINA RESULT:      -6.3      9.473     10.786
REMARK  3 active torsions:
REMARK  status: ('A' for Active; 'I' for Inactive)
REMARK    1  A    between atoms: N_6  and  C_11 
REMARK    2  A    between atoms: C_11  and  C_18 
REMARK    3  A    between atoms: C_12  and  C_17 
ROOT
HETATM    1 Cl   UNK N   1      28.258  17.908   9.507  0.00  0.00    -0.084 Cl
HETATM    2  O   UNK N   1      32.067  16.556   2.437  0.00  0.00    -0.271 OA
HETATM    3  N   UNK N   1      30.520  16.952   4.010  0.00  0.00    -0.307 N 
HETATM    4  N   UNK N   1      33.213  16.945   5.586  0.00  0.00    -0.380 N 
ATOM      5  HN  UNK N   1      34.142  16.533   5.676  1.00  0.00     0.160 HD
HETATM    6  C   UNK N   1      30.108  17.261   5.366  0.00  0.00     0.050 A 
HETATM    7  C   UNK N   1      30.950  17.216   6.549  0.00  0.00     0.020 A 
HETATM    8  C   UNK N   1      32.440  16.865   6.611  0.00  0.00     0.051 C 
HETATM    9  C   UNK N   1      31.810  16.938   3.573  0.00  0.00     0.242 C 
HETATM   10  C   UNK N   1      32.897  17.554   4.338  0.00  0.00     0.223 C 
HETATM   11  C   UNK N   1      28.729  17.517   5.551  0.00  0.00     0.032 A 
HETATM   12  C   UNK N   1      30.317  17.428   7.789  0.00  0.00     0.040 A 
HETATM   13  C   UNK N   1      28.163  17.735   6.797  0.00  0.00     0.026 A 
HETATM   14  C   UNK N   1      28.960  17.685   7.919  0.00  0.00     0.035 A 
ENDROOT
BRANCH   8  15
HETATM   15  C   UNK N   1      33.155  16.555   7.912  0.00  0.00    -0.009 A 
HETATM   16  C   UNK N   1      33.000  15.277   8.486  0.00  0.00     0.014 A 
HETATM   17  C   UNK N   1      33.722  14.902   9.623  0.00  0.00     0.001 A 
HETATM   18  C   UNK N   1      34.628  15.792  10.199  0.00  0.00     0.000 A 
HETATM   19  C   UNK N   1      34.796  17.063   9.651  0.00  0.00     0.001 A 
HETATM   20  C   UNK N   1      34.064  17.440   8.521  0.00  0.00     0.014 A 
ENDBRANCH   8  15
BRANCH   3  21
HETATM   21  C   UNK N   1      29.485  16.693   3.016  0.00  0.00     0.249 C 
BRANCH  21  22
HETATM   22  C   UNK N   1      29.040  15.218   3.047  0.00  0.00     0.403 C 
HETATM   23  F   UNK N   1      29.793  14.492   3.952  0.00  0.00    -0.169 F 
HETATM   24  F   UNK N   1      29.174  14.643   1.797  0.00  0.00    -0.169 F 
HETATM   25  F   UNK N   1      27.712  15.150   3.423  0.00  0.00    -0.169 F 
ENDBRANCH  21  22
ENDBRANCH   3  21
TORSDOF 3
ENDMDL
