MODEL 1
REMARK VINA RESULT:      -5.3      0.000      0.000
REMARK  5 active torsions:
REMARK  status: ('A' for Active; 'I' for Inactive)
REMARK    1  A    between atoms: N_2  and  C_3 
REMARK    2  A    between atoms: N_2  and  C_4 
REMARK    3  A    between atoms: N_2  and  C_5 
REMARK    4  A    between atoms: C_3  and  C_6 
REMARK    5  A    between atoms: C_6  and  C_10 
ROOT
HETATM    1  O   UNK N   1      34.122  13.017  15.439  0.00  0.00    -0.290 OA
HETATM    2  C   UNK N   1      35.230  12.891  15.950  0.00  0.00     0.192 C 
ENDROOT
BRANCH   2   3
HETATM    3  C   UNK N   1      36.454  13.196  15.066  0.00  0.00     0.293 C 
HETATM    4  C   UNK N   1      36.985  14.628  15.189  0.00  0.00     0.051 C 
BRANCH   3   5
HETATM    5  N   UNK N   1      36.271  12.803  13.650  0.00  0.00     0.099 N 
BRANCH   5   6
HETATM    6  C   UNK N   1      36.332  13.997  12.800  0.00  0.00     0.269 C 
HETATM    7  C   UNK N   1      35.060  14.152  11.982  0.00  0.00     0.037 C 
ENDBRANCH   5   6
BRANCH   5   8
HETATM    8  C   UNK N   1      37.415  11.991  13.240  0.00  0.00     0.269 C 
HETATM    9  C   UNK N   1      37.829  11.070  14.371  0.00  0.00     0.037 C 
ENDBRANCH   5   8
ENDBRANCH   3   5
ENDBRANCH   2   3
BRANCH   2  10
HETATM   10  C   UNK N   1      35.275  12.373  17.357  0.00  0.00     0.012 A 
HETATM   11  C   UNK N   1      35.150  13.208  18.481  0.00  0.00     0.015 A 
HETATM   12  C   UNK N   1      35.240  12.688  19.776  0.00  0.00     0.001 A 
HETATM   13  C   UNK N   1      35.463  11.324  19.967  0.00  0.00     0.000 A 
HETATM   14  C   UNK N   1      35.583  10.479  18.863  0.00  0.00     0.001 A 
HETATM   15  C   UNK N   1      35.488  11.000  17.570  0.00  0.00     0.015 A 
ENDBRANCH   2  10
TORSDOF 5
ENDMDL
MODEL 2
REMARK VINA RESULT:      -5.3     21.908     25.124
REMARK  5 active torsions:
REMARK  status: ('A' for Active; 'I' for Inactive)
REMARK    1  A    between atoms: N_2  and  C_3 
REMARK    2  A    between atoms: N_2  and  C_4 
REMARK    3  A    between atoms: N_2  and  C_5 
REMARK    4  A    between atoms: C_3  and  C_6 
REMARK    5  A    between atoms: C_6  and  C_10 
ROOT
HETATM    1  O   UNK N   1      26.981  23.827  -2.569  0.00  0.00    -0.290 OA
HETATM    2  C   UNK N   1      27.370  24.432  -3.562  0.00  0.00     0.192 C 
ENDROOT
BRANCH   2   3
HETATM    3  C   UNK N   1      28.754  24.053  -4.123  0.00  0.00     0.293 C 
HETATM    4  C   UNK N   1      28.714  23.104  -5.325  0.00  0.00     0.051 C 
BRANCH   3   5
HETATM    5  N   UNK N   1      29.700  23.578  -3.087  0.00  0.00     0.099 N 
BRANCH   5   6
HETATM    6  C   UNK N   1      30.006  22.162  -3.316  0.00  0.00     0.269 C 
HETATM    7  C   UNK N   1      31.441  21.844  -2.932  0.00  0.00     0.037 C 
ENDBRANCH   5   6
BRANCH   5   8
HETATM    8  C   UNK N   1      30.973  24.272  -3.266  0.00  0.00     0.269 C 
HETATM    9  C   UNK N   1      30.729  25.741  -3.552  0.00  0.00     0.037 C 
ENDBRANCH   5   8
ENDBRANCH   3   5
ENDBRANCH   2   3
BRANCH   2  10
HETATM   10  C   UNK N   1      26.491  25.535  -4.074  0.00  0.00     0.012 A 
HETATM   11  C   UNK N   1      25.748  25.427  -5.263  0.00  0.00     0.015 A 
HETATM   12  C   UNK N   1      24.974  26.496  -5.725  0.00  0.00     0.001 A 
HETATM   13  C   UNK N   1      24.937  27.693  -5.009  0.00  0.00     0.000 A 
HETATM   14  C   UNK N   1      25.665  27.816  -3.824  0.00  0.00     0.001 A 
HETATM   15  C   UNK N   1      26.433  26.744  -3.361  0.00  0.00     0.015 A 
ENDBRANCH   2  10
TORSDOF 5
ENDMDL
MODEL 3
REMARK VINA RESULT:      -5.2     22.497     25.309
REMARK  5 active torsions:
REMARK  status: ('A' for Active; 'I' for Inactive)
REMARK    1  A    between atoms: N_2  and  C_3 
REMARK    2  A    between atoms: N_2  and  C_4 
REMARK    3  A    between atoms: N_2  and  C_5 
REMARK    4  A    between atoms: C_3  and  C_6 
REMARK    5  A    between atoms: C_6  and  C_10 
ROOT
HETATM    1  O   UNK N   1      26.931  23.820  -2.483  0.00  0.00    -0.290 OA
HETATM    2  C   UNK N   1      27.473  24.492  -3.354  0.00  0.00     0.192 C 
ENDROOT
BRANCH   2   3
HETATM    3  C   UNK N   1      28.976  24.252  -3.599  0.00  0.00     0.293 C 
HETATM    4  C   UNK N   1      29.717  25.444  -4.213  0.00  0.00     0.051 C 
BRANCH   3   5
HETATM    5  N   UNK N   1      29.260  22.998  -4.334  0.00  0.00     0.099 N 
BRANCH   5   6
HETATM    6  C   UNK N   1      29.364  23.285  -5.768  0.00  0.00     0.269 C 
HETATM    7  C   UNK N   1      28.293  22.546  -6.553  0.00  0.00     0.037 C 
ENDBRANCH   5   6
BRANCH   5   8
HETATM    8  C   UNK N   1      30.586  22.523  -3.948  0.00  0.00     0.269 C 
HETATM    9  C   UNK N   1      30.573  21.015  -3.793  0.00  0.00     0.037 C 
ENDBRANCH   5   8
ENDBRANCH   3   5
ENDBRANCH   2   3
BRANCH   2  10
HETATM   10  C   UNK N   1      26.633  25.535  -4.029  0.00  0.00     0.012 A 
HETATM   11  C   UNK N   1      26.363  26.788  -3.451  0.00  0.00     0.015 A 
HETATM   12  C   UNK N   1      25.539  27.715  -4.098  0.00  0.00     0.001 A 
HETATM   13  C   UNK N   1      24.967  27.401  -5.331  0.00  0.00     0.000 A 
HETATM   14  C   UNK N   1      25.229  26.164  -5.923  0.00  0.00     0.001 A 
HETATM   15  C   UNK N   1      26.057  25.241  -5.277  0.00  0.00     0.015 A 
ENDBRANCH   2  10
TORSDOF 5
ENDMDL
MODEL 4
REMARK VINA RESULT:      -5.1     14.548     16.507
REMARK  5 active torsions:
REMARK  status: ('A' for Active; 'I' for Inactive)
REMARK    1  A    between atoms: N_2  and  C_3 
REMARK    2  A    between atoms: N_2  and  C_4 
REMARK    3  A    between atoms: N_2  and  C_5 
REMARK    4  A    between atoms: C_3  and  C_6 
REMARK    5  A    between atoms: C_6  and  C_10 
ROOT
HETATM    1  O   UNK N   1      19.430  14.066   9.772  0.00  0.00    -0.290 OA
HETATM    2  C   UNK N   1      20.565  14.352   9.407  0.00  0.00     0.192 C 
ENDROOT
BRANCH   2   3
HETATM    3  C   UNK N   1      20.708  15.470   8.356  0.00  0.00     0.293 C 
HETATM    4  C   UNK N   1      20.028  16.789   8.736  0.00  0.00     0.051 C 
BRANCH   3   5
HETATM    5  N   UNK N   1      20.339  15.042   6.987  0.00  0.00     0.099 N 
BRANCH   5   6
HETATM    6  C   UNK N   1      19.807  16.189   6.243  0.00  0.00     0.269 C 
HETATM    7  C   UNK N   1      18.760  15.748   5.234  0.00  0.00     0.037 C 
ENDBRANCH   5   6
BRANCH   5   8
HETATM    8  C   UNK N   1      21.557  14.664   6.274  0.00  0.00     0.269 C 
HETATM    9  C   UNK N   1      22.598  15.758   6.406  0.00  0.00     0.037 C 
ENDBRANCH   5   8
ENDBRANCH   3   5
ENDBRANCH   2   3
BRANCH   2  10
HETATM   10  C   UNK N   1      21.687  13.526   9.962  0.00  0.00     0.012 A 
HETATM   11  C   UNK N   1      22.994  13.570   9.446  0.00  0.00     0.015 A 
HETATM   12  C   UNK N   1      24.000  12.750   9.967  0.00  0.00     0.001 A 
HETATM   13  C   UNK N   1      23.713  11.868  11.009  0.00  0.00     0.000 A 
HETATM   14  C   UNK N   1      22.422  11.814  11.537  0.00  0.00     0.001 A 
HETATM   15  C   UNK N   1      21.420  12.639  11.019  0.00  0.00     0.015 A 
ENDBRANCH   2  10
TORSDOF 5
ENDMDL
MODEL 5
REMARK VINA RESULT:      -5.0      9.160     12.157
REMARK  5 active torsions:
REMARK  status: ('A' for Active; 'I' for Inactive)
REMARK    1  A    between atoms: N_2  and  C_3 
REMARK    2  A    between atoms: N_2  and  C_4 
REMARK    3  A    between atoms: N_2  and  C_5 
REMARK    4  A    between atoms: C_3  and  C_6 
REMARK    5  A    between atoms: C_6  and  C_10 
ROOT
HETATM    1  O   UNK N   1      34.553  18.311   7.100  0.00  0.00    -0.290 OA
HETATM    2  C   UNK N   1      33.605  17.568   6.868  0.00  0.00     0.192 C 
ENDROOT
BRANCH   2   3
HETATM    3  C   UNK N   1      32.661  17.240   8.041  0.00  0.00     0.293 C 
HETATM    4  C   UNK N   1      33.087  16.031   8.879  0.00  0.00     0.051 C 
BRANCH   3   5
HETATM    5  N   UNK N   1      31.237  17.153   7.644  0.00  0.00     0.099 N 
BRANCH   5   6
HETATM    6  C   UNK N   1      30.948  15.802   7.154  0.00  0.00     0.269 C 
HETATM    7  C   UNK N   1      29.991  15.840   5.975  0.00  0.00     0.037 C 
ENDBRANCH   5   6
BRANCH   5   8
HETATM    8  C   UNK N   1      30.411  17.304   8.840  0.00  0.00     0.269 C 
HETATM    9  C   UNK N   1      30.240  18.774   9.171  0.00  0.00     0.037 C 
ENDBRANCH   5   8
ENDBRANCH   3   5
ENDBRANCH   2   3
BRANCH   2  10
HETATM   10  C   UNK N   1      33.515  16.992   5.486  0.00  0.00     0.012 A 
HETATM   11  C   UNK N   1      32.843  17.638   4.434  0.00  0.00     0.015 A 
HETATM   12  C   UNK N   1      32.748  17.045   3.171  0.00  0.00     0.001 A 
HETATM   13  C   UNK N   1      33.318  15.792   2.943  0.00  0.00     0.000 A 
HETATM   14  C   UNK N   1      33.994  15.138   3.974  0.00  0.00     0.001 A 
HETATM   15  C   UNK N   1      34.093  15.736   5.234  0.00  0.00     0.015 A 
ENDBRANCH   2  10
TORSDOF 5
ENDMDL
MODEL 6
REMARK VINA RESULT:      -5.0     22.835     25.542
REMARK  5 active torsions:
REMARK  status: ('A' for Active; 'I' for Inactive)
REMARK    1  A    between atoms: N_2  and  C_3 
REMARK    2  A    between atoms: N_2  and  C_4 
REMARK    3  A    between atoms: N_2  and  C_5 
REMARK    4  A    between atoms: C_3  and  C_6 
REMARK    5  A    between atoms: C_6  and  C_10 
ROOT
HETATM    1  O   UNK N   1      26.789  23.750  -2.466  0.00  0.00    -0.290 OA
HETATM    2  C   UNK N   1      27.289  24.362  -3.404  0.00  0.00     0.192 C 
ENDROOT
BRANCH   2   3
HETATM    3  C   UNK N   1      28.733  23.997  -3.796  0.00  0.00     0.293 C 
HETATM    4  C   UNK N   1      29.565  23.390  -2.662  0.00  0.00     0.051 C 
BRANCH   3   5
HETATM    5  N   UNK N   1      29.457  25.099  -4.471  0.00  0.00     0.099 N 
BRANCH   5   6
HETATM    6  C   UNK N   1      30.563  25.551  -3.620  0.00  0.00     0.269 C 
HETATM    7  C   UNK N   1      31.827  25.767  -4.435  0.00  0.00     0.037 C 
ENDBRANCH   5   6
BRANCH   5   8
HETATM    8  C   UNK N   1      30.099  24.568  -5.671  0.00  0.00     0.269 C 
HETATM    9  C   UNK N   1      29.154  23.626  -6.392  0.00  0.00     0.037 C 
ENDBRANCH   5   8
ENDBRANCH   3   5
ENDBRANCH   2   3
BRANCH   2  10
HETATM   10  C   UNK N   1      26.467  25.458  -4.016  0.00  0.00     0.012 A 
HETATM   11  C   UNK N   1      25.793  25.313  -5.241  0.00  0.00     0.015 A 
HETATM   12  C   UNK N   1      25.073  26.376  -5.795  0.00  0.00     0.001 A 
HETATM   13  C   UNK N   1      25.021  27.604  -5.135  0.00  0.00     0.000 A 
HETATM   14  C   UNK N   1      25.680  27.765  -3.915  0.00  0.00     0.001 A 
HETATM   15  C   UNK N   1      26.395  26.699  -3.360  0.00  0.00     0.015 A 
ENDBRANCH   2  10
TORSDOF 5
ENDMDL
MODEL 7
REMARK VINA RESULT:      -4.9     10.116     13.507
REMARK  5 active torsions:
REMARK  status: ('A' for Active; 'I' for Inactive)
REMARK    1  A    between atoms: N_2  and  C_3 
REMARK    2  A    between atoms: N_2  and  C_4 
REMARK    3  A    between atoms: N_2  and  C_5 
REMARK    4  A    between atoms: C_3  and  C_6 
REMARK    5  A    between atoms: C_6  and  C_10 
ROOT
HETATM    1  O   UNK N   1      27.998  16.552   6.973  0.00  0.00    -0.290 OA
HETATM    2  C   UNK N   1      28.767  17.432   6.599  0.00  0.00     0.192 C 
ENDROOT
BRANCH   2   3
HETATM    3  C   UNK N   1      30.274  17.186   6.804  0.00  0.00     0.293 C 
HETATM    4  C   UNK N   1      30.851  16.042   5.964  0.00  0.00     0.051 C 
BRANCH   3   5
HETATM    5  N   UNK N   1      30.663  17.065   8.228  0.00  0.00     0.099 N 
BRANCH   5   6
HETATM    6  C   UNK N   1      32.049  16.594   8.317  0.00  0.00     0.269 C 
HETATM    7  C   UNK N   1      33.020  17.760   8.389  0.00  0.00     0.037 C 
ENDBRANCH   5   6
BRANCH   5   8
HETATM    8  C   UNK N   1      30.681  18.400   8.821  0.00  0.00     0.269 C 
HETATM    9  C   UNK N   1      29.602  18.513   9.880  0.00  0.00     0.037 C 
ENDBRANCH   5   8
ENDBRANCH   3   5
ENDBRANCH   2   3
BRANCH   2  10
HETATM   10  C   UNK N   1      28.151  18.688   6.058  0.00  0.00     0.012 A 
HETATM   11  C   UNK N   1      27.708  19.736   6.884  0.00  0.00     0.015 A 
HETATM   12  C   UNK N   1      27.101  20.872   6.340  0.00  0.00     0.001 A 
HETATM   13  C   UNK N   1      26.922  20.975   4.960  0.00  0.00     0.000 A 
HETATM   14  C   UNK N   1      27.361  19.947   4.124  0.00  0.00     0.001 A 
HETATM   15  C   UNK N   1      27.972  18.815   4.670  0.00  0.00     0.015 A 
ENDBRANCH   2  10
TORSDOF 5
ENDMDL
MODEL 8
REMARK VINA RESULT:      -4.9      1.891      2.833
REMARK  5 active torsions:
REMARK  status: ('A' for Active; 'I' for Inactive)
REMARK    1  A    between atoms: N_2  and  C_3 
REMARK    2  A    between atoms: N_2  and  C_4 
REMARK    3  A    between atoms: N_2  and  C_5 
REMARK    4  A    between atoms: C_3  and  C_6 
REMARK    5  A    between atoms: C_6  and  C_10 
ROOT
HETATM    1  O   UNK N   1      36.985  11.363  15.046  0.00  0.00    -0.290 OA
HETATM    2  C   UNK N   1      35.852  11.677  15.396  0.00  0.00     0.192 C 
ENDROOT
BRANCH   2   3
HETATM    3  C   UNK N   1      34.780  11.796  14.296  0.00  0.00     0.293 C 
HETATM    4  C   UNK N   1      33.709  10.702  14.331  0.00  0.00     0.051 C 
BRANCH   3   5
HETATM    5  N   UNK N   1      35.346  11.960  12.937  0.00  0.00     0.099 N 
BRANCH   5   6
HETATM    6  C   UNK N   1      34.651  11.064  12.007  0.00  0.00     0.269 C 
HETATM    7  C   UNK N   1      35.305  11.084  10.636  0.00  0.00     0.037 C 
ENDBRANCH   5   6
BRANCH   5   8
HETATM    8  C   UNK N   1      35.037  13.307  12.464  0.00  0.00     0.269 C 
HETATM    9  C   UNK N   1      36.202  14.237  12.746  0.00  0.00     0.037 C 
ENDBRANCH   5   8
ENDBRANCH   3   5
ENDBRANCH   2   3
BRANCH   2  10
HETATM   10  C   UNK N   1      35.652  11.991  16.849  0.00  0.00     0.012 A 
HETATM   11  C   UNK N   1      35.703  11.010  17.855  0.00  0.00     0.015 A 
HETATM   12  C   UNK N   1      35.469  11.341  19.194  0.00  0.00     0.001 A 
HETATM   13  C   UNK N   1      35.174  12.659  19.547  0.00  0.00     0.000 A 
HETATM   14  C   UNK N   1      35.126  13.647  18.562  0.00  0.00     0.001 A 
HETATM   15  C   UNK N   1      35.365  13.314  17.225  0.00  0.00     0.015 A 
ENDBRANCH   2  10
TORSDOF 5
ENDMDL
MODEL 9
REMARK VINA RESULT:      -4.9     10.391     13.361
REMARK  5 active torsions:
REMARK  status: ('A' for Active; 'I' for Inactive)
REMARK    1  A    between atoms: N_2  and  C_3 
REMARK    2  A    between atoms: N_2  and  C_4 
REMARK    3  A    between atoms: N_2  and  C_5 
REMARK    4  A    between atoms: C_3  and  C_6 
REMARK    5  A    between atoms: C_6  and  C_10 
ROOT
HETATM    1  O   UNK N   1      27.837  16.505   7.152  0.00  0.00    -0.290 OA
HETATM    2  C   UNK N   1      28.564  17.490   7.227  0.00  0.00     0.192 C 
ENDROOT
BRANCH   2   3
HETATM    3  C   UNK N   1      29.819  17.375   8.113  0.00  0.00     0.293 C 
HETATM    4  C   UNK N   1      29.779  18.230   9.383  0.00  0.00     0.051 C 
BRANCH   3   5
HETATM    5  N   UNK N   1      31.085  17.565   7.369  0.00  0.00     0.099 N 
BRANCH   5   6
HETATM    6  C   UNK N   1      32.219  17.243   8.242  0.00  0.00     0.269 C 
HETATM    7  C   UNK N   1      33.343  18.251   8.073  0.00  0.00     0.037 C 
ENDBRANCH   5   6
BRANCH   5   8
HETATM    8  C   UNK N   1      31.147  16.577   6.294  0.00  0.00     0.269 C 
HETATM    9  C   UNK N   1      31.561  17.244   4.998  0.00  0.00     0.037 C 
ENDBRANCH   5   8
ENDBRANCH   3   5
ENDBRANCH   2   3
BRANCH   2  10
HETATM   10  C   UNK N   1      28.108  18.727   6.512  0.00  0.00     0.012 A 
HETATM   11  C   UNK N   1      27.603  19.853   7.185  0.00  0.00     0.015 A 
HETATM   12  C   UNK N   1      27.150  20.970   6.476  0.00  0.00     0.001 A 
HETATM   13  C   UNK N   1      27.190  20.976   5.081  0.00  0.00     0.000 A 
HETATM   14  C   UNK N   1      27.694  19.869   4.396  0.00  0.00     0.001 A 
HETATM   15  C   UNK N   1      28.151  18.756   5.108  0.00  0.00     0.015 A 
ENDBRANCH   2  10
TORSDOF 5
ENDMDL
