REMARK  1 active torsions:
REMARK  status: ('A' for Active; 'I' for Inactive)
REMARK    1  A    between atoms: O_3  and  C_20 
ROOT
HETATM    1  O   UNK N   1       0.977  -0.021  -0.827  0.00  0.00    -0.334 OA
HETATM    2  O   UNK N   1      -0.163  -2.424   0.242  0.00  0.00    -0.295 OA
HETATM    3  N   UNK N   1       6.052  -0.988  -0.723  0.00  0.00     0.089 N 
HETATM    4  C   UNK N   1       3.125  -0.934  -0.565  0.00  0.00     0.031 C 
HETATM    5  C   UNK N   1       3.946  -1.801   0.386  0.00  0.00     0.036 C 
HETATM    6  C   UNK N   1       5.328  -1.067   0.565  0.00  0.00     0.232 C 
HETATM    7  C   UNK N   1       1.614  -1.271  -0.806  0.00  0.00     0.212 C 
HETATM    8  C   UNK N   1       3.859  -0.840  -1.917  0.00  0.00     0.048 C 
HETATM    9  C   UNK N   1       2.985   0.422  -0.015  0.00  0.00    -0.003 A 
HETATM   10  C   UNK N   1       3.184  -1.970   1.696  0.00  0.00     0.015 C 
HETATM   11  C   UNK N   1       5.198   0.386   1.137  0.00  0.00     0.075 C 
HETATM   12  C   UNK N   1       5.288  -0.300  -1.773  0.00  0.00     0.273 C 
HETATM   13  C   UNK N   1       3.948   1.115   0.697  0.00  0.00    -0.046 A 
HETATM   14  C   UNK N   1       1.833  -2.656   1.467  0.00  0.00     0.081 C 
HETATM   15  C   UNK N   1       1.017  -2.119   0.307  0.00  0.00     0.157 C 
HETATM   16  C   UNK N   1       1.763   0.912  -0.279  0.00  0.00     0.110 A 
HETATM   17  C   UNK N   1       6.464  -2.304  -1.200  0.00  0.00     0.310 C 
HETATM   18  C   UNK N   1       3.654   2.433   1.088  0.00  0.00     0.011 A 
HETATM   19  C   UNK N   1       1.434   2.225   0.070  0.00  0.00     0.099 A 
HETATM   20  C   UNK N   1       2.403   3.001   0.742  0.00  0.00     0.040 A 
ENDROOT
BRANCH  19  21
HETATM   21  O   UNK N   1       0.222   2.731  -0.211  0.00  0.00    -0.358 OA
HETATM   22  H   UNK N   1       0.106   3.640  -0.408  0.00  0.00     0.217 HD
ENDBRANCH  19  21
TORSDOF 1
