MODEL 1
REMARK VINA RESULT:      -6.1      0.000      0.000
REMARK  4 active torsions:
REMARK  status: ('A' for Active; 'I' for Inactive)
REMARK    1  A    between atoms: C_6  and  C_7 
REMARK    2  A    between atoms: C_6  and  C_9 
REMARK    3  A    between atoms: C_7  and  C_8 
REMARK    4  A    between atoms: C_9  and  C_14 
ROOT
HETATM    1  O   UNK N   1      32.316  15.177   8.631  0.00  0.00    -0.272 OA
HETATM    2  O   UNK N   1      35.034  19.017   8.334  0.00  0.00    -0.272 OA
HETATM    3  O   UNK N   1      35.514  16.037  11.585  0.00  0.00    -0.247 OA
HETATM    4  N   UNK N   1      33.898  15.623  10.115  0.00  0.00    -0.278 N 
HETATM    5  N   UNK N   1      35.270  17.527   9.956  0.00  0.00    -0.278 N 
HETATM    6  C   UNK N   1      33.513  17.188   8.181  0.00  0.00     0.126 A 
HETATM    7  C   UNK N   1      33.193  15.939   9.000  0.00  0.00     0.244 A 
HETATM    8  C   UNK N   1      34.659  17.966   8.831  0.00  0.00     0.244 A 
HETATM    9  C   UNK N   1      34.912  16.385  10.583  0.00  0.00     0.329 A 
HETATM   10  H   UNK N   1      33.660  14.802  10.604  0.00  0.00     0.173 HD
HETATM   11  H   UNK N   1      36.005  18.061  10.333  0.00  0.00     0.173 HD
ENDROOT
BRANCH   6  12
HETATM   12  C   UNK N   1      32.303  18.164   8.136  0.00  0.00     0.033 C 
BRANCH  12  13
HETATM   13  C   UNK N   1      30.854  17.701   8.394  0.00  0.00    -0.021 C 
HETATM   14  C   UNK N   1      30.069  18.575   9.347  0.00  0.00     0.009 C 
HETATM   15  C   UNK N   1      30.046  17.336   7.167  0.00  0.00     0.009 C 
ENDBRANCH  12  13
ENDBRANCH   6  12
BRANCH   6  16
HETATM   16  C   UNK N   1      33.944  16.705   6.776  0.00  0.00     0.055 C 
BRANCH  16  17
HETATM   17  C   UNK N   1      33.481  17.560   5.633  0.00  0.00    -0.035 C 
HETATM   18  C   UNK N   1      32.895  17.022   4.569  0.00  0.00     0.007 C 
ENDBRANCH  16  17
ENDBRANCH   6  16
TORSDOF 4
ENDMDL
MODEL 2
REMARK VINA RESULT:      -5.8      6.177      9.146
REMARK  4 active torsions:
REMARK  status: ('A' for Active; 'I' for Inactive)
REMARK    1  A    between atoms: C_6  and  C_7 
REMARK    2  A    between atoms: C_6  and  C_9 
REMARK    3  A    between atoms: C_7  and  C_8 
REMARK    4  A    between atoms: C_9  and  C_14 
ROOT
HETATM    1  O   UNK N   1      37.568  14.590  15.805  0.00  0.00    -0.272 OA
HETATM    2  O   UNK N   1      34.177  11.859  13.997  0.00  0.00    -0.272 OA
HETATM    3  O   UNK N   1      35.958  15.224  11.718  0.00  0.00    -0.247 OA
HETATM    4  N   UNK N   1      36.744  14.915  13.775  0.00  0.00    -0.278 N 
HETATM    5  N   UNK N   1      35.069  13.541  12.863  0.00  0.00    -0.278 N 
HETATM    6  C   UNK N   1      35.876  13.026  15.194  0.00  0.00     0.126 A 
HETATM    7  C   UNK N   1      36.773  14.238  14.950  0.00  0.00     0.244 A 
HETATM    8  C   UNK N   1      34.989  12.772  13.974  0.00  0.00     0.244 A 
HETATM    9  C   UNK N   1      35.924  14.580  12.754  0.00  0.00     0.329 A 
HETATM   10  H   UNK N   1      37.349  15.685  13.662  0.00  0.00     0.173 HD
HETATM   11  H   UNK N   1      34.479  13.333  12.103  0.00  0.00     0.173 HD
ENDROOT
BRANCH   6  12
HETATM   12  C   UNK N   1      34.907  13.266  16.387  0.00  0.00     0.033 C 
BRANCH  12  13
HETATM   13  C   UNK N   1      35.399  13.378  17.845  0.00  0.00    -0.021 C 
HETATM   14  C   UNK N   1      35.052  14.680  18.533  0.00  0.00     0.009 C 
HETATM   15  C   UNK N   1      35.125  12.182  18.731  0.00  0.00     0.009 C 
ENDBRANCH  12  13
ENDBRANCH   6  12
BRANCH   6  16
HETATM   16  C   UNK N   1      36.811  11.814  15.418  0.00  0.00     0.055 C 
BRANCH  16  17
HETATM   17  C   UNK N   1      37.686  11.453  14.254  0.00  0.00    -0.035 C 
HETATM   18  C   UNK N   1      38.340  10.298  14.221  0.00  0.00     0.007 C 
ENDBRANCH  16  17
ENDBRANCH   6  16
TORSDOF 4
ENDMDL
MODEL 3
REMARK VINA RESULT:      -5.6      6.331      9.420
REMARK  4 active torsions:
REMARK  status: ('A' for Active; 'I' for Inactive)
REMARK    1  A    between atoms: C_6  and  C_7 
REMARK    2  A    between atoms: C_6  and  C_9 
REMARK    3  A    between atoms: C_7  and  C_8 
REMARK    4  A    between atoms: C_9  and  C_14 
ROOT
HETATM    1  O   UNK N   1      34.098  11.492  13.991  0.00  0.00    -0.272 OA
HETATM    2  O   UNK N   1      37.405  14.372  15.722  0.00  0.00    -0.272 OA
HETATM    3  O   UNK N   1      36.085  14.574  11.492  0.00  0.00    -0.247 OA
HETATM    4  N   UNK N   1      35.109  13.017  12.743  0.00  0.00    -0.278 N 
HETATM    5  N   UNK N   1      36.744  14.469  13.610  0.00  0.00    -0.278 N 
HETATM    6  C   UNK N   1      35.708  12.788  15.178  0.00  0.00     0.126 A 
HETATM    7  C   UNK N   1      34.931  12.380  13.928  0.00  0.00     0.244 A 
HETATM    8  C   UNK N   1      36.671  13.931  14.850  0.00  0.00     0.244 A 
HETATM    9  C   UNK N   1      35.983  14.036  12.581  0.00  0.00     0.329 A 
HETATM   10  H   UNK N   1      34.578  12.722  11.968  0.00  0.00     0.173 HD
HETATM   11  H   UNK N   1      37.376  15.206  13.452  0.00  0.00     0.173 HD
ENDROOT
BRANCH   6  12
HETATM   12  C   UNK N   1      36.591  11.621  15.706  0.00  0.00     0.033 C 
BRANCH  12  13
HETATM   13  C   UNK N   1      37.141  10.515  14.782  0.00  0.00    -0.021 C 
HETATM   14  C   UNK N   1      38.582  10.700  14.359  0.00  0.00     0.009 C 
HETATM   15  C   UNK N   1      36.859   9.091  15.211  0.00  0.00     0.009 C 
ENDBRANCH  12  13
ENDBRANCH   6  12
BRANCH   6  16
HETATM   16  C   UNK N   1      34.667  13.268  16.216  0.00  0.00     0.055 C 
BRANCH  16  17
HETATM   17  C   UNK N   1      34.963  12.898  17.640  0.00  0.00    -0.035 C 
HETATM   18  C   UNK N   1      35.234  13.830  18.547  0.00  0.00     0.007 C 
ENDBRANCH  16  17
ENDBRANCH   6  16
TORSDOF 4
ENDMDL
MODEL 4
REMARK VINA RESULT:      -5.5      1.587      3.634
REMARK  4 active torsions:
REMARK  status: ('A' for Active; 'I' for Inactive)
REMARK    1  A    between atoms: C_6  and  C_7 
REMARK    2  A    between atoms: C_6  and  C_9 
REMARK    3  A    between atoms: C_7  and  C_8 
REMARK    4  A    between atoms: C_9  and  C_14 
ROOT
HETATM    1  O   UNK N   1      34.155  17.952   6.450  0.00  0.00    -0.272 OA
HETATM    2  O   UNK N   1      32.042  14.916   9.374  0.00  0.00    -0.272 OA
HETATM    3  O   UNK N   1      35.643  17.217  10.566  0.00  0.00    -0.247 OA
HETATM    4  N   UNK N   1      34.906  17.564   8.497  0.00  0.00    -0.278 N 
HETATM    5  N   UNK N   1      33.840  16.066   9.965  0.00  0.00    -0.278 N 
HETATM    6  C   UNK N   1      32.849  16.373   7.668  0.00  0.00     0.126 A 
HETATM    7  C   UNK N   1      34.022  17.335   7.494  0.00  0.00     0.244 A 
HETATM    8  C   UNK N   1      32.886  15.742   9.061  0.00  0.00     0.244 A 
HETATM    9  C   UNK N   1      34.822  16.957   9.702  0.00  0.00     0.329 A 
HETATM   10  H   UNK N   1      35.641  18.200   8.340  0.00  0.00     0.173 HD
HETATM   11  H   UNK N   1      33.818  15.636  10.850  0.00  0.00     0.173 HD
ENDROOT
BRANCH   6  12
HETATM   12  C   UNK N   1      32.928  15.191   6.660  0.00  0.00     0.033 C 
BRANCH  12  13
HETATM   13  C   UNK N   1      32.025  15.104   5.412  0.00  0.00    -0.021 C 
HETATM   14  C   UNK N   1      32.618  15.708   4.158  0.00  0.00     0.009 C 
HETATM   15  C   UNK N   1      31.393  13.756   5.143  0.00  0.00     0.009 C 
ENDBRANCH  12  13
ENDBRANCH   6  12
BRANCH   6  16
HETATM   16  C   UNK N   1      31.557  17.208   7.510  0.00  0.00     0.055 C 
BRANCH  16  17
HETATM   17  C   UNK N   1      31.291  18.195   8.609  0.00  0.00    -0.035 C 
HETATM   18  C   UNK N   1      30.050  18.470   8.996  0.00  0.00     0.007 C 
ENDBRANCH  16  17
ENDBRANCH   6  16
TORSDOF 4
ENDMDL
MODEL 5
REMARK VINA RESULT:      -5.5      1.752      3.978
REMARK  4 active torsions:
REMARK  status: ('A' for Active; 'I' for Inactive)
REMARK    1  A    between atoms: C_6  and  C_7 
REMARK    2  A    between atoms: C_6  and  C_9 
REMARK    3  A    between atoms: C_7  and  C_8 
REMARK    4  A    between atoms: C_9  and  C_14 
ROOT
HETATM    1  O   UNK N   1      34.076  18.058   6.377  0.00  0.00    -0.272 OA
HETATM    2  O   UNK N   1      32.099  14.929   9.297  0.00  0.00    -0.272 OA
HETATM    3  O   UNK N   1      35.630  17.343  10.472  0.00  0.00    -0.247 OA
HETATM    4  N   UNK N   1      34.861  17.681   8.413  0.00  0.00    -0.278 N 
HETATM    5  N   UNK N   1      33.862  16.136   9.879  0.00  0.00    -0.278 N 
HETATM    6  C   UNK N   1      32.838  16.426   7.595  0.00  0.00     0.126 A 
HETATM    7  C   UNK N   1      33.975  17.430   7.417  0.00  0.00     0.244 A 
HETATM    8  C   UNK N   1      32.911  15.786   8.982  0.00  0.00     0.244 A 
HETATM    9  C   UNK N   1      34.810  17.062   9.614  0.00  0.00     0.329 A 
HETATM   10  H   UNK N   1      35.572  18.344   8.253  0.00  0.00     0.173 HD
HETATM   11  H   UNK N   1      33.864  15.699  10.760  0.00  0.00     0.173 HD
ENDROOT
BRANCH   6  12
HETATM   12  C   UNK N   1      32.948  15.255   6.576  0.00  0.00     0.033 C 
BRANCH  12  13
HETATM   13  C   UNK N   1      34.206  14.369   6.465  0.00  0.00    -0.021 C 
HETATM   14  C   UNK N   1      33.956  12.888   6.647  0.00  0.00     0.009 C 
HETATM   15  C   UNK N   1      35.111  14.647   5.283  0.00  0.00     0.009 C 
ENDBRANCH  12  13
ENDBRANCH   6  12
BRANCH   6  16
HETATM   16  C   UNK N   1      31.516  17.216   7.456  0.00  0.00     0.055 C 
BRANCH  16  17
HETATM   17  C   UNK N   1      31.239  18.204   8.552  0.00  0.00    -0.035 C 
HETATM   18  C   UNK N   1      30.047  18.264   9.134  0.00  0.00     0.007 C 
ENDBRANCH  16  17
ENDBRANCH   6  16
TORSDOF 4
ENDMDL
MODEL 6
REMARK VINA RESULT:      -5.5      1.659      2.223
REMARK  4 active torsions:
REMARK  status: ('A' for Active; 'I' for Inactive)
REMARK    1  A    between atoms: C_6  and  C_7 
REMARK    2  A    between atoms: C_6  and  C_9 
REMARK    3  A    between atoms: C_7  and  C_8 
REMARK    4  A    between atoms: C_9  and  C_14 
ROOT
HETATM    1  O   UNK N   1      32.121  14.995   9.184  0.00  0.00    -0.272 OA
HETATM    2  O   UNK N   1      34.120  18.041   6.192  0.00  0.00    -0.272 OA
HETATM    3  O   UNK N   1      35.557  17.546  10.360  0.00  0.00    -0.247 OA
HETATM    4  N   UNK N   1      33.821  16.287   9.772  0.00  0.00    -0.278 N 
HETATM    5  N   UNK N   1      34.834  17.791   8.274  0.00  0.00    -0.278 N 
HETATM    6  C   UNK N   1      32.902  16.409   7.432  0.00  0.00     0.126 A 
HETATM    7  C   UNK N   1      32.913  15.863   8.858  0.00  0.00     0.244 A 
HETATM    8  C   UNK N   1      33.996  17.465   7.263  0.00  0.00     0.244 A 
HETATM    9  C   UNK N   1      34.761  17.218   9.496  0.00  0.00     0.329 A 
HETATM   10  H   UNK N   1      33.793  15.898  10.677  0.00  0.00     0.173 HD
HETATM   11  H   UNK N   1      35.524  18.473   8.114  0.00  0.00     0.173 HD
ENDROOT
BRANCH   6  12
HETATM   12  C   UNK N   1      31.560  17.127   7.107  0.00  0.00     0.033 C 
BRANCH  12  13
HETATM   13  C   UNK N   1      30.683  16.737   5.899  0.00  0.00    -0.021 C 
HETATM   14  C   UNK N   1      29.201  16.660   6.191  0.00  0.00     0.009 C 
HETATM   15  C   UNK N   1      30.966  17.476   4.609  0.00  0.00     0.009 C 
ENDBRANCH  12  13
ENDBRANCH   6  12
BRANCH   6  16
HETATM   16  C   UNK N   1      33.183  15.214   6.492  0.00  0.00     0.055 C 
BRANCH  16  17
HETATM   17  C   UNK N   1      34.560  14.627   6.593  0.00  0.00    -0.035 C 
HETATM   18  C   UNK N   1      35.371  14.597   5.541  0.00  0.00     0.007 C 
ENDBRANCH  16  17
ENDBRANCH   6  16
TORSDOF 4
ENDMDL
MODEL 7
REMARK VINA RESULT:      -5.3     12.951     14.659
REMARK  4 active torsions:
REMARK  status: ('A' for Active; 'I' for Inactive)
REMARK    1  A    between atoms: C_6  and  C_7 
REMARK    2  A    between atoms: C_6  and  C_9 
REMARK    3  A    between atoms: C_7  and  C_8 
REMARK    4  A    between atoms: C_9  and  C_14 
ROOT
HETATM    1  O   UNK N   1      29.388  23.006  -5.963  0.00  0.00    -0.272 OA
HETATM    2  O   UNK N   1      30.360  22.893  -1.351  0.00  0.00    -0.272 OA
HETATM    3  O   UNK N   1      26.467  24.350  -2.903  0.00  0.00    -0.247 OA
HETATM    4  N   UNK N   1      27.943  23.697  -4.433  0.00  0.00    -0.278 N 
HETATM    5  N   UNK N   1      28.418  23.621  -2.131  0.00  0.00    -0.278 N 
HETATM    6  C   UNK N   1      30.188  22.802  -3.727  0.00  0.00     0.126 A 
HETATM    7  C   UNK N   1      29.152  23.190  -4.781  0.00  0.00     0.244 A 
HETATM    8  C   UNK N   1      29.655  23.107  -2.326  0.00  0.00     0.244 A 
HETATM    9  C   UNK N   1      27.575  23.903  -3.148  0.00  0.00     0.329 A 
HETATM   10  H   UNK N   1      27.305  23.923  -5.149  0.00  0.00     0.173 HD
HETATM   11  H   UNK N   1      28.120  23.794  -1.209  0.00  0.00     0.173 HD
ENDROOT
BRANCH   6  12
HETATM   12  C   UNK N   1      31.494  23.634  -3.880  0.00  0.00     0.033 C 
BRANCH  12  13
HETATM   13  C   UNK N   1      31.503  25.062  -4.462  0.00  0.00    -0.021 C 
HETATM   14  C   UNK N   1      30.978  26.131  -3.529  0.00  0.00     0.009 C 
HETATM   15  C   UNK N   1      32.783  25.492  -5.147  0.00  0.00     0.009 C 
ENDBRANCH  12  13
ENDBRANCH   6  12
BRANCH   6  16
HETATM   16  C   UNK N   1      30.427  21.281  -3.872  0.00  0.00     0.055 C 
BRANCH  16  17
HETATM   17  C   UNK N   1      31.853  20.875  -4.105  0.00  0.00    -0.035 C 
HETATM   18  C   UNK N   1      32.183  20.084  -5.120  0.00  0.00     0.007 C 
ENDBRANCH  16  17
ENDBRANCH   6  16
TORSDOF 4
ENDMDL
MODEL 8
REMARK VINA RESULT:      -5.2      1.969      3.953
REMARK  4 active torsions:
REMARK  status: ('A' for Active; 'I' for Inactive)
REMARK    1  A    between atoms: C_6  and  C_7 
REMARK    2  A    between atoms: C_6  and  C_9 
REMARK    3  A    between atoms: C_7  and  C_8 
REMARK    4  A    between atoms: C_9  and  C_14 
ROOT
HETATM    1  O   UNK N   1      32.382  14.478   7.642  0.00  0.00    -0.272 OA
HETATM    2  O   UNK N   1      34.799  18.526   7.612  0.00  0.00    -0.272 OA
HETATM    3  O   UNK N   1      30.551  18.327   8.878  0.00  0.00    -0.247 OA
HETATM    4  N   UNK N   1      31.468  16.405   8.236  0.00  0.00    -0.278 N 
HETATM    5  N   UNK N   1      32.678  18.422   8.243  0.00  0.00    -0.278 N 
HETATM    6  C   UNK N   1      33.881  16.327   7.526  0.00  0.00     0.126 A 
HETATM    7  C   UNK N   1      32.523  15.680   7.790  0.00  0.00     0.244 A 
HETATM    8  C   UNK N   1      33.812  17.830   7.801  0.00  0.00     0.244 A 
HETATM    9  C   UNK N   1      31.535  17.736   8.464  0.00  0.00     0.329 A 
HETATM   10  H   UNK N   1      30.614  15.941   8.400  0.00  0.00     0.173 HD
HETATM   11  H   UNK N   1      32.686  19.392   8.410  0.00  0.00     0.173 HD
ENDROOT
BRANCH   6  12
HETATM   12  C   UNK N   1      34.299  16.183   6.034  0.00  0.00     0.033 C 
BRANCH  12  13
HETATM   13  C   UNK N   1      33.276  16.211   4.880  0.00  0.00    -0.021 C 
HETATM   14  C   UNK N   1      32.860  17.596   4.435  0.00  0.00     0.009 C 
HETATM   15  C   UNK N   1      33.578  15.308   3.703  0.00  0.00     0.009 C 
ENDBRANCH  12  13
ENDBRANCH   6  12
BRANCH   6  16
HETATM   16  C   UNK N   1      34.889  15.667   8.495  0.00  0.00     0.055 C 
BRANCH  16  17
HETATM   17  C   UNK N   1      34.609  15.877   9.954  0.00  0.00    -0.035 C 
HETATM   18  C   UNK N   1      35.504  16.455  10.747  0.00  0.00     0.007 C 
ENDBRANCH  16  17
ENDBRANCH   6  16
TORSDOF 4
ENDMDL
MODEL 9
REMARK VINA RESULT:      -5.2      8.092      9.604
REMARK  4 active torsions:
REMARK  status: ('A' for Active; 'I' for Inactive)
REMARK    1  A    between atoms: C_6  and  C_7 
REMARK    2  A    between atoms: C_6  and  C_9 
REMARK    3  A    between atoms: C_7  and  C_8 
REMARK    4  A    between atoms: C_9  and  C_14 
ROOT
HETATM    1  O   UNK N   1      37.406  11.223  13.819  0.00  0.00    -0.272 OA
HETATM    2  O   UNK N   1      33.792  13.104  16.191  0.00  0.00    -0.272 OA
HETATM    3  O   UNK N   1      37.700  15.171  15.822  0.00  0.00    -0.247 OA
HETATM    4  N   UNK N   1      37.554  13.182  14.840  0.00  0.00    -0.278 N 
HETATM    5  N   UNK N   1      35.746  14.132  16.005  0.00  0.00    -0.278 N 
HETATM    6  C   UNK N   1      35.396  11.888  14.913  0.00  0.00     0.126 A 
HETATM    7  C   UNK N   1      36.856  12.070  14.502  0.00  0.00     0.244 A 
HETATM    8  C   UNK N   1      34.929  13.086  15.742  0.00  0.00     0.244 A 
HETATM    9  C   UNK N   1      37.021  14.192  15.564  0.00  0.00     0.329 A 
HETATM   10  H   UNK N   1      38.491  13.257  14.543  0.00  0.00     0.173 HD
HETATM   11  H   UNK N   1      35.396  14.881  16.539  0.00  0.00     0.173 HD
ENDROOT
BRANCH   6  12
HETATM   12  C   UNK N   1      35.212  10.639  15.823  0.00  0.00     0.033 C 
BRANCH  12  13
HETATM   13  C   UNK N   1      36.091  10.382  17.064  0.00  0.00    -0.021 C 
HETATM   14  C   UNK N   1      35.398  10.608  18.390  0.00  0.00     0.009 C 
HETATM   15  C   UNK N   1      36.888   9.095  17.057  0.00  0.00     0.009 C 
ENDBRANCH  12  13
ENDBRANCH   6  12
BRANCH   6  16
HETATM   16  C   UNK N   1      34.570  11.804  13.609  0.00  0.00     0.055 C 
BRANCH  16  17
HETATM   17  C   UNK N   1      33.922  10.477  13.342  0.00  0.00    -0.035 C 
HETATM   18  C   UNK N   1      33.802  10.011  12.104  0.00  0.00     0.007 C 
ENDBRANCH  16  17
ENDBRANCH   6  16
TORSDOF 4
ENDMDL
