MODEL 1
REMARK VINA RESULT:      -6.6      0.000      0.000
REMARK  9 active torsions:
REMARK  status: ('A' for Active; 'I' for Inactive)
REMARK    1  A    between atoms: O_1  and  C_15 
REMARK    2  A    between atoms: N_4  and  C_16 
REMARK    3  A    between atoms: N_5  and  C_10 
REMARK    4  A    between atoms: N_5  and  C_17 
REMARK       I    between atoms: N_5  and  C_18 
REMARK    5  A    between atoms: N_6  and  C_19 
REMARK    6  A    between atoms: N_8  and  C_29 
REMARK    7  A    between atoms: C_10  and  C_15 
REMARK    8  A    between atoms: C_16  and  C_19 
REMARK    9  A    between atoms: C_18  and  C_20 
ROOT
HETATM    1  N   UNK N   1      31.793  17.222   6.167  0.00  0.00     0.090 N 
HETATM    2  C   UNK N   1      29.715  15.892   4.624  0.00  0.00     0.065 C 
HETATM    3  C   UNK N   1      30.654  16.960   4.012  0.00  0.00     0.064 C 
HETATM    4  C   UNK N   1      30.447  15.124   5.750  0.00  0.00     0.064 C 
HETATM    5  C   UNK N   1      32.000  17.091   4.723  0.00  0.00     0.275 C 
HETATM    6  C   UNK N   1      31.096  16.071   6.775  0.00  0.00     0.275 C 
ENDROOT
BRANCH   2   7
HETATM    7  N   UNK N   1      28.408  16.412   5.139  0.00  0.00    -0.306 N 
HETATM    8  C   UNK N   1      27.466  15.473   5.565  0.00  0.00     0.224 C 
HETATM    9  O   UNK N   1      27.733  14.279   5.540  0.00  0.00    -0.273 OA
BRANCH   7  10
HETATM   10  C   UNK N   1      28.129  17.845   5.226  0.00  0.00     0.038 A 
HETATM   11  C   UNK N   1      27.654  18.579   4.119  0.00  0.00     0.030 A 
HETATM   12  C   UNK N   1      27.336  19.935   4.218  0.00  0.00     0.002 A 
HETATM   13  C   UNK N   1      27.477  20.595   5.436  0.00  0.00     0.000 A 
HETATM   14  C   UNK N   1      27.942  19.899   6.549  0.00  0.00     0.002 A 
HETATM   15  C   UNK N   1      28.259  18.544   6.442  0.00  0.00     0.030 A 
ENDBRANCH   7  10
BRANCH   8  16
HETATM   16  C   UNK N   1      26.099  15.838   6.072  0.00  0.00     0.099 C 
HETATM   17  C   UNK N   1      25.624  14.857   7.125  0.00  0.00     0.014 C 
ENDBRANCH   8  16
ENDBRANCH   2   7
BRANCH   2  18
HETATM   18  C   UNK N   1      29.430  14.981   3.409  0.00  0.00     0.198 C 
BRANCH  18  19
HETATM   19  O   UNK N   1      28.873  15.658   2.318  0.00  0.00    -0.393 OA
HETATM   20  C   UNK N   1      27.819  14.838   1.907  0.00  0.00     0.201 C 
ENDBRANCH  18  19
ENDBRANCH   2  18
BRANCH   1  21
HETATM   21  C   UNK N   1      33.068  17.461   6.850  0.00  0.00     0.294 C 
BRANCH  21  22
HETATM   22  C   UNK N   1      32.893  17.754   8.345  0.00  0.00     0.181 C 
BRANCH  22  23
HETATM   23  N   UNK N   1      33.978  17.192   9.146  0.00  0.00    -0.226 N 
HETATM   24  N   UNK N   1      35.056  17.835   9.581  0.00  0.00    -0.002 NA
HETATM   25  N   UNK N   1      35.812  16.992  10.283  0.00  0.00    -0.002 NA
HETATM   26  N   UNK N   1      35.228  15.802  10.305  0.00  0.00    -0.228 N 
HETATM   27  C   UNK N   1      34.087  15.926   9.596  0.00  0.00     0.354 A 
HETATM   28  O   UNK N   1      33.284  15.032   9.393  0.00  0.00    -0.244 OA
BRANCH  26  29
HETATM   29  C   UNK N   1      35.749  14.614  10.963  0.00  0.00     0.147 C 
HETATM   30  C   UNK N   1      35.916  14.870  12.449  0.00  0.00     0.028 C 
ENDBRANCH  26  29
ENDBRANCH  22  23
ENDBRANCH  21  22
ENDBRANCH   1  21
TORSDOF 9
ENDMDL
MODEL 2
REMARK VINA RESULT:      -6.5      4.536     10.862
REMARK  9 active torsions:
REMARK  status: ('A' for Active; 'I' for Inactive)
REMARK    1  A    between atoms: O_1  and  C_15 
REMARK    2  A    between atoms: N_4  and  C_16 
REMARK    3  A    between atoms: N_5  and  C_10 
REMARK    4  A    between atoms: N_5  and  C_17 
REMARK       I    between atoms: N_5  and  C_18 
REMARK    5  A    between atoms: N_6  and  C_19 
REMARK    6  A    between atoms: N_8  and  C_29 
REMARK    7  A    between atoms: C_10  and  C_15 
REMARK    8  A    between atoms: C_16  and  C_19 
REMARK    9  A    between atoms: C_18  and  C_20 
ROOT
HETATM    1  N   UNK N   1      36.332  14.102  11.281  0.00  0.00     0.090 N 
HETATM    2  C   UNK N   1      36.183  11.265  11.908  0.00  0.00     0.065 C 
HETATM    3  C   UNK N   1      34.931  12.174  11.852  0.00  0.00     0.064 C 
HETATM    4  C   UNK N   1      37.255  11.778  10.919  0.00  0.00     0.064 C 
HETATM    5  C   UNK N   1      35.088  13.401  10.956  0.00  0.00     0.275 C 
HETATM    6  C   UNK N   1      37.544  13.279  11.098  0.00  0.00     0.275 C 
ENDROOT
BRANCH   2   7
HETATM    7  N   UNK N   1      36.792  11.099  13.267  0.00  0.00    -0.306 N 
HETATM    8  C   UNK N   1      37.867  10.215  13.386  0.00  0.00     0.224 C 
HETATM    9  O   UNK N   1      38.298   9.635  12.399  0.00  0.00    -0.273 OA
BRANCH   7  10
HETATM   10  C   UNK N   1      36.308  11.851  14.425  0.00  0.00     0.038 A 
HETATM   11  C   UNK N   1      35.360  11.312  15.319  0.00  0.00     0.030 A 
HETATM   12  C   UNK N   1      34.941  12.010  16.454  0.00  0.00     0.002 A 
HETATM   13  C   UNK N   1      35.468  13.269  16.730  0.00  0.00     0.000 A 
HETATM   14  C   UNK N   1      36.407  13.829  15.868  0.00  0.00     0.002 A 
HETATM   15  C   UNK N   1      36.820  13.126  14.735  0.00  0.00     0.030 A 
ENDBRANCH   7  10
BRANCH   8  16
HETATM   16  C   UNK N   1      38.557   9.917  14.687  0.00  0.00     0.099 C 
HETATM   17  C   UNK N   1      38.054   8.622  15.291  0.00  0.00     0.014 C 
ENDBRANCH   8  16
ENDBRANCH   2   7
BRANCH   2  18
HETATM   18  C   UNK N   1      35.609   9.900  11.464  0.00  0.00     0.198 C 
BRANCH  18  19
HETATM   19  O   UNK N   1      34.687   9.359  12.367  0.00  0.00    -0.393 OA
HETATM   20  C   UNK N   1      35.038   8.009  12.447  0.00  0.00     0.201 C 
ENDBRANCH  18  19
ENDBRANCH   2  18
BRANCH   1  21
HETATM   21  C   UNK N   1      36.441  15.342  10.506  0.00  0.00     0.294 C 
BRANCH  21  22
HETATM   22  C   UNK N   1      35.339  16.352  10.851  0.00  0.00     0.181 C 
BRANCH  22  23
HETATM   23  N   UNK N   1      34.848  17.055   9.668  0.00  0.00    -0.226 N 
HETATM   24  N   UNK N   1      35.291  18.215   9.194  0.00  0.00    -0.002 NA
HETATM   25  N   UNK N   1      34.602  18.530   8.099  0.00  0.00    -0.002 NA
HETATM   26  N   UNK N   1      33.711  17.577   7.858  0.00  0.00    -0.228 N 
HETATM   27  C   UNK N   1      33.864  16.660   8.835  0.00  0.00     0.354 A 
HETATM   28  O   UNK N   1      33.211  15.636   8.948  0.00  0.00    -0.244 OA
BRANCH  26  29
HETATM   29  C   UNK N   1      32.763  17.562   6.755  0.00  0.00     0.147 C 
HETATM   30  C   UNK N   1      33.493  17.352   5.441  0.00  0.00     0.028 C 
ENDBRANCH  26  29
ENDBRANCH  22  23
ENDBRANCH  21  22
ENDBRANCH   1  21
TORSDOF 9
ENDMDL
MODEL 3
REMARK VINA RESULT:      -6.3      3.940      9.073
REMARK  9 active torsions:
REMARK  status: ('A' for Active; 'I' for Inactive)
REMARK    1  A    between atoms: O_1  and  C_15 
REMARK    2  A    between atoms: N_4  and  C_16 
REMARK    3  A    between atoms: N_5  and  C_10 
REMARK    4  A    between atoms: N_5  and  C_17 
REMARK       I    between atoms: N_5  and  C_18 
REMARK    5  A    between atoms: N_6  and  C_19 
REMARK    6  A    between atoms: N_8  and  C_29 
REMARK    7  A    between atoms: C_10  and  C_15 
REMARK    8  A    between atoms: C_16  and  C_19 
REMARK    9  A    between atoms: C_18  and  C_20 
ROOT
HETATM    1  N   UNK N   1      27.002  18.729   3.976  0.00  0.00     0.090 N 
HETATM    2  C   UNK N   1      27.953  17.147   6.224  0.00  0.00     0.065 C 
HETATM    3  C   UNK N   1      28.225  18.665   6.100  0.00  0.00     0.064 C 
HETATM    4  C   UNK N   1      26.608  16.791   5.549  0.00  0.00     0.064 C 
HETATM    5  C   UNK N   1      27.199  19.417   5.254  0.00  0.00     0.275 C 
HETATM    6  C   UNK N   1      26.510  17.344   4.117  0.00  0.00     0.275 C 
ENDROOT
BRANCH   2   7
HETATM    7  N   UNK N   1      29.033  16.258   5.689  0.00  0.00    -0.306 N 
HETATM    8  C   UNK N   1      28.705  14.923   5.444  0.00  0.00     0.224 C 
HETATM    9  O   UNK N   1      27.564  14.525   5.636  0.00  0.00    -0.273 OA
BRANCH   7  10
HETATM   10  C   UNK N   1      30.375  16.764   5.402  0.00  0.00     0.038 A 
HETATM   11  C   UNK N   1      31.365  16.857   6.402  0.00  0.00     0.030 A 
HETATM   12  C   UNK N   1      32.662  17.289   6.115  0.00  0.00     0.002 A 
HETATM   13  C   UNK N   1      33.007  17.633   4.810  0.00  0.00     0.000 A 
HETATM   14  C   UNK N   1      32.053  17.550   3.798  0.00  0.00     0.002 A 
HETATM   15  C   UNK N   1      30.759  17.119   4.094  0.00  0.00     0.030 A 
ENDBRANCH   7  10
BRANCH   8  16
HETATM   16  C   UNK N   1      29.689  13.904   4.942  0.00  0.00     0.099 C 
HETATM   17  C   UNK N   1      29.476  13.615   3.470  0.00  0.00     0.014 C 
ENDBRANCH   8  16
ENDBRANCH   2   7
BRANCH   2  18
HETATM   18  C   UNK N   1      27.885  16.958   7.757  0.00  0.00     0.198 C 
BRANCH  18  19
HETATM   19  O   UNK N   1      28.250  18.099   8.480  0.00  0.00    -0.393 OA
HETATM   20  C   UNK N   1      28.942  17.599   9.585  0.00  0.00     0.201 C 
ENDBRANCH  18  19
ENDBRANCH   2  18
BRANCH   1  21
HETATM   21  C   UNK N   1      26.104  19.500   3.111  0.00  0.00     0.294 C 
BRANCH  21  22
HETATM   22  C   UNK N   1      25.208  20.465   3.897  0.00  0.00     0.181 C 
BRANCH  22  23
HETATM   23  N   UNK N   1      23.814  20.396   3.466  0.00  0.00    -0.226 N 
HETATM   24  N   UNK N   1      23.152  21.319   2.777  0.00  0.00    -0.002 NA
HETATM   25  N   UNK N   1      21.906  20.896   2.568  0.00  0.00    -0.002 NA
HETATM   26  N   UNK N   1      21.756  19.699   3.119  0.00  0.00    -0.228 N 
HETATM   27  C   UNK N   1      22.944  19.389   3.679  0.00  0.00     0.354 A 
HETATM   28  O   UNK N   1      23.189  18.360   4.286  0.00  0.00    -0.244 OA
BRANCH  26  29
HETATM   29  C   UNK N   1      20.535  18.909   3.114  0.00  0.00     0.147 C 
HETATM   30  C   UNK N   1      20.353  18.237   1.766  0.00  0.00     0.028 C 
ENDBRANCH  26  29
ENDBRANCH  22  23
ENDBRANCH  21  22
ENDBRANCH   1  21
TORSDOF 9
ENDMDL
MODEL 4
REMARK VINA RESULT:      -6.2      4.408      9.007
REMARK  9 active torsions:
REMARK  status: ('A' for Active; 'I' for Inactive)
REMARK    1  A    between atoms: O_1  and  C_15 
REMARK    2  A    between atoms: N_4  and  C_16 
REMARK    3  A    between atoms: N_5  and  C_10 
REMARK    4  A    between atoms: N_5  and  C_17 
REMARK       I    between atoms: N_5  and  C_18 
REMARK    5  A    between atoms: N_6  and  C_19 
REMARK    6  A    between atoms: N_8  and  C_29 
REMARK    7  A    between atoms: C_10  and  C_15 
REMARK    8  A    between atoms: C_16  and  C_19 
REMARK    9  A    between atoms: C_18  and  C_20 
ROOT
HETATM    1  N   UNK N   1      25.100  15.744   6.176  0.00  0.00     0.090 N 
HETATM    2  C   UNK N   1      27.302  16.834   4.617  0.00  0.00     0.065 C 
HETATM    3  C   UNK N   1      27.405  15.491   5.380  0.00  0.00     0.064 C 
HETATM    4  C   UNK N   1      25.845  17.075   4.161  0.00  0.00     0.064 C 
HETATM    5  C   UNK N   1      26.063  14.797   5.609  0.00  0.00     0.275 C 
HETATM    6  C   UNK N   1      24.838  16.913   5.313  0.00  0.00     0.275 C 
ENDROOT
BRANCH   2   7
HETATM    7  N   UNK N   1      27.798  18.032   5.366  0.00  0.00    -0.306 N 
HETATM    8  C   UNK N   1      27.560  19.288   4.801  0.00  0.00     0.224 C 
HETATM    9  O   UNK N   1      26.940  19.381   3.751  0.00  0.00    -0.273 OA
BRANCH   7  10
HETATM   10  C   UNK N   1      28.479  17.908   6.655  0.00  0.00     0.038 A 
HETATM   11  C   UNK N   1      27.793  18.065   7.877  0.00  0.00     0.030 A 
HETATM   12  C   UNK N   1      28.434  17.892   9.106  0.00  0.00     0.002 A 
HETATM   13  C   UNK N   1      29.782  17.548   9.146  0.00  0.00     0.000 A 
HETATM   14  C   UNK N   1      30.488  17.384   7.956  0.00  0.00     0.002 A 
HETATM   15  C   UNK N   1      29.842  17.560   6.732  0.00  0.00     0.030 A 
ENDBRANCH   7  10
BRANCH   8  16
HETATM   16  C   UNK N   1      28.027  20.577   5.415  0.00  0.00     0.099 C 
HETATM   17  C   UNK N   1      26.891  21.293   6.118  0.00  0.00     0.014 C 
ENDBRANCH   8  16
ENDBRANCH   2   7
BRANCH   2  18
HETATM   18  C   UNK N   1      28.241  16.592   3.413  0.00  0.00     0.198 C 
BRANCH  18  19
HETATM   19  O   UNK N   1      29.312  15.738   3.699  0.00  0.00    -0.393 OA
HETATM   20  C   UNK N   1      30.436  16.433   3.246  0.00  0.00     0.201 C 
ENDBRANCH  18  19
ENDBRANCH   2  18
BRANCH   1  21
HETATM   21  C   UNK N   1      23.844  15.064   6.504  0.00  0.00     0.294 C 
BRANCH  21  22
HETATM   22  C   UNK N   1      22.611  15.824   6.000  0.00  0.00     0.181 C 
BRANCH  22  23
HETATM   23  N   UNK N   1      21.601  15.987   7.043  0.00  0.00    -0.226 N 
HETATM   24  N   UNK N   1      21.145  15.043   7.859  0.00  0.00    -0.002 NA
HETATM   25  N   UNK N   1      20.237  15.574   8.676  0.00  0.00    -0.002 NA
HETATM   26  N   UNK N   1      20.101  16.863   8.393  0.00  0.00    -0.228 N 
HETATM   27  C   UNK N   1      20.949  17.119   7.376  0.00  0.00     0.354 A 
HETATM   28  O   UNK N   1      21.099  18.204   6.840  0.00  0.00    -0.244 OA
BRANCH  26  29
HETATM   29  C   UNK N   1      19.196  17.786   9.060  0.00  0.00     0.147 C 
HETATM   30  C   UNK N   1      17.805  17.189   9.140  0.00  0.00     0.028 C 
ENDBRANCH  26  29
ENDBRANCH  22  23
ENDBRANCH  21  22
ENDBRANCH   1  21
TORSDOF 9
ENDMDL
MODEL 5
REMARK VINA RESULT:      -6.2      7.427      9.683
REMARK  9 active torsions:
REMARK  status: ('A' for Active; 'I' for Inactive)
REMARK    1  A    between atoms: O_1  and  C_15 
REMARK    2  A    between atoms: N_4  and  C_16 
REMARK    3  A    between atoms: N_5  and  C_10 
REMARK    4  A    between atoms: N_5  and  C_17 
REMARK       I    between atoms: N_5  and  C_18 
REMARK    5  A    between atoms: N_6  and  C_19 
REMARK    6  A    between atoms: N_8  and  C_29 
REMARK    7  A    between atoms: C_10  and  C_15 
REMARK    8  A    between atoms: C_16  and  C_19 
REMARK    9  A    between atoms: C_18  and  C_20 
ROOT
HETATM    1  N   UNK N   1      21.085  16.010   5.599  0.00  0.00     0.090 N 
HETATM    2  C   UNK N   1      22.355  18.128   4.062  0.00  0.00     0.065 C 
HETATM    3  C   UNK N   1      21.349  17.133   3.436  0.00  0.00     0.064 C 
HETATM    4  C   UNK N   1      22.017  18.358   5.553  0.00  0.00     0.064 C 
HETATM    5  C   UNK N   1      20.364  16.528   4.435  0.00  0.00     0.275 C 
HETATM    6  C   UNK N   1      21.858  17.037   6.326  0.00  0.00     0.275 C 
ENDROOT
BRANCH   2   7
HETATM    7  N   UNK N   1      23.798  17.747   3.928  0.00  0.00    -0.306 N 
HETATM    8  C   UNK N   1      24.083  16.429   3.564  0.00  0.00     0.224 C 
HETATM    9  O   UNK N   1      23.174  15.643   3.338  0.00  0.00    -0.273 OA
BRANCH   7  10
HETATM   10  C   UNK N   1      24.874  18.716   4.137  0.00  0.00     0.038 A 
HETATM   11  C   UNK N   1      25.389  19.495   3.080  0.00  0.00     0.030 A 
HETATM   12  C   UNK N   1      26.378  20.458   3.292  0.00  0.00     0.002 A 
HETATM   13  C   UNK N   1      26.874  20.675   4.575  0.00  0.00     0.000 A 
HETATM   14  C   UNK N   1      26.385  19.924   5.641  0.00  0.00     0.002 A 
HETATM   15  C   UNK N   1      25.398  18.962   5.421  0.00  0.00     0.030 A 
ENDBRANCH   7  10
BRANCH   8  16
HETATM   16  C   UNK N   1      25.479  15.889   3.425  0.00  0.00     0.099 C 
HETATM   17  C   UNK N   1      25.842  15.674   1.969  0.00  0.00     0.014 C 
ENDBRANCH   8  16
ENDBRANCH   2   7
BRANCH   2  18
HETATM   18  C   UNK N   1      22.111  19.403   3.222  0.00  0.00     0.198 C 
BRANCH  18  19
HETATM   19  O   UNK N   1      20.877  19.411   2.561  0.00  0.00    -0.393 OA
HETATM   20  C   UNK N   1      20.861  20.631   1.880  0.00  0.00     0.201 C 
ENDBRANCH  18  19
ENDBRANCH   2  18
BRANCH   1  21
HETATM   21  C   UNK N   1      20.164  15.328   6.513  0.00  0.00     0.294 C 
BRANCH  21  22
HETATM   22  C   UNK N   1      20.350  15.761   7.973  0.00  0.00     0.181 C 
BRANCH  22  23
HETATM   23  N   UNK N   1      20.541  14.619   8.864  0.00  0.00    -0.226 N 
HETATM   24  N   UNK N   1      19.654  14.126   9.721  0.00  0.00    -0.002 NA
HETATM   25  N   UNK N   1      20.190  13.083  10.352  0.00  0.00    -0.002 NA
HETATM   26  N   UNK N   1      21.425  12.895   9.907  0.00  0.00    -0.228 N 
HETATM   27  C   UNK N   1      21.643  13.852   8.982  0.00  0.00     0.354 A 
HETATM   28  O   UNK N   1      22.678  14.001   8.354  0.00  0.00    -0.244 OA
BRANCH  26  29
HETATM   29  C   UNK N   1      22.341  11.859  10.358  0.00  0.00     0.147 C 
HETATM   30  C   UNK N   1      22.688  12.068  11.819  0.00  0.00     0.028 C 
ENDBRANCH  26  29
ENDBRANCH  22  23
ENDBRANCH  21  22
ENDBRANCH   1  21
TORSDOF 9
ENDMDL
MODEL 6
REMARK VINA RESULT:      -6.2      4.164      7.498
REMARK  9 active torsions:
REMARK  status: ('A' for Active; 'I' for Inactive)
REMARK    1  A    between atoms: O_1  and  C_15 
REMARK    2  A    between atoms: N_4  and  C_16 
REMARK    3  A    between atoms: N_5  and  C_10 
REMARK    4  A    between atoms: N_5  and  C_17 
REMARK       I    between atoms: N_5  and  C_18 
REMARK    5  A    between atoms: N_6  and  C_19 
REMARK    6  A    between atoms: N_8  and  C_29 
REMARK    7  A    between atoms: C_10  and  C_15 
REMARK    8  A    between atoms: C_16  and  C_19 
REMARK    9  A    between atoms: C_18  and  C_20 
ROOT
HETATM    1  N   UNK N   1      25.650  15.297   6.104  0.00  0.00     0.090 N 
HETATM    2  C   UNK N   1      27.751  16.714   4.674  0.00  0.00     0.065 C 
HETATM    3  C   UNK N   1      28.004  15.384   5.425  0.00  0.00     0.064 C 
HETATM    4  C   UNK N   1      26.298  16.756   4.145  0.00  0.00     0.064 C 
HETATM    5  C   UNK N   1      26.764  14.505   5.576  0.00  0.00     0.275 C 
HETATM    6  C   UNK N   1      25.268  16.433   5.242  0.00  0.00     0.275 C 
ENDROOT
BRANCH   2   7
HETATM    7  N   UNK N   1      28.035  17.956   5.461  0.00  0.00    -0.306 N 
HETATM    8  C   UNK N   1      27.726  19.180   4.865  0.00  0.00     0.224 C 
HETATM    9  O   UNK N   1      27.214  19.211   3.754  0.00  0.00    -0.273 OA
BRANCH   7  10
HETATM   10  C   UNK N   1      28.586  17.900   6.816  0.00  0.00     0.038 A 
HETATM   11  C   UNK N   1      27.764  17.997   7.957  0.00  0.00     0.030 A 
HETATM   12  C   UNK N   1      28.285  17.889   9.249  0.00  0.00     0.002 A 
HETATM   13  C   UNK N   1      29.648  17.672   9.433  0.00  0.00     0.000 A 
HETATM   14  C   UNK N   1      30.487  17.569   8.326  0.00  0.00     0.002 A 
HETATM   15  C   UNK N   1      29.959  17.680   7.038  0.00  0.00     0.030 A 
ENDBRANCH   7  10
BRANCH   8  16
HETATM   16  C   UNK N   1      27.986  20.510   5.514  0.00  0.00     0.099 C 
HETATM   17  C   UNK N   1      26.697  21.153   5.984  0.00  0.00     0.014 C 
ENDBRANCH   8  16
ENDBRANCH   2   7
BRANCH   2  18
HETATM   18  C   UNK N   1      28.773  16.629   3.517  0.00  0.00     0.198 C 
BRANCH  18  19
HETATM   19  O   UNK N   1      29.850  15.775   3.781  0.00  0.00    -0.393 OA
HETATM   20  C   UNK N   1      30.978  16.555   3.516  0.00  0.00     0.201 C 
ENDBRANCH  18  19
ENDBRANCH   2  18
BRANCH   1  21
HETATM   21  C   UNK N   1      24.487  14.441   6.359  0.00  0.00     0.294 C 
BRANCH  21  22
HETATM   22  C   UNK N   1      24.876  13.064   6.911  0.00  0.00     0.181 C 
BRANCH  22  23
HETATM   23  N   UNK N   1      24.519  12.917   8.320  0.00  0.00    -0.226 N 
HETATM   24  N   UNK N   1      25.253  13.284   9.366  0.00  0.00    -0.002 NA
HETATM   25  N   UNK N   1      24.592  12.994  10.485  0.00  0.00    -0.002 NA
HETATM   26  N   UNK N   1      23.430  12.438  10.171  0.00  0.00    -0.228 N 
HETATM   27  C   UNK N   1      23.385  12.390   8.824  0.00  0.00     0.354 A 
HETATM   28  O   UNK N   1      22.464  11.936   8.165  0.00  0.00    -0.244 OA
BRANCH  26  29
HETATM   29  C   UNK N   1      22.428  11.973  11.118  0.00  0.00     0.147 C 
HETATM   30  C   UNK N   1      23.027  11.878  12.508  0.00  0.00     0.028 C 
ENDBRANCH  26  29
ENDBRANCH  22  23
ENDBRANCH  21  22
ENDBRANCH   1  21
TORSDOF 9
ENDMDL
MODEL 7
REMARK VINA RESULT:      -6.2     11.736     14.698
REMARK  9 active torsions:
REMARK  status: ('A' for Active; 'I' for Inactive)
REMARK    1  A    between atoms: O_1  and  C_15 
REMARK    2  A    between atoms: N_4  and  C_16 
REMARK    3  A    between atoms: N_5  and  C_10 
REMARK    4  A    between atoms: N_5  and  C_17 
REMARK       I    between atoms: N_5  and  C_18 
REMARK    5  A    between atoms: N_6  and  C_19 
REMARK    6  A    between atoms: N_8  and  C_29 
REMARK    7  A    between atoms: C_10  and  C_15 
REMARK    8  A    between atoms: C_16  and  C_19 
REMARK    9  A    between atoms: C_18  and  C_20 
ROOT
HETATM    1  N   UNK N   1      28.628  23.682  -3.606  0.00  0.00     0.090 N 
HETATM    2  C   UNK N   1      26.882  25.560  -4.980  0.00  0.00     0.065 C 
HETATM    3  C   UNK N   1      26.339  24.401  -4.110  0.00  0.00     0.064 C 
HETATM    4  C   UNK N   1      28.247  26.039  -4.435  0.00  0.00     0.064 C 
HETATM    5  C   UNK N   1      27.305  23.927  -3.026  0.00  0.00     0.275 C 
HETATM    6  C   UNK N   1      29.233  24.875  -4.229  0.00  0.00     0.275 C 
ENDROOT
BRANCH   2   7
HETATM    7  N   UNK N   1      27.003  25.258  -6.442  0.00  0.00    -0.306 N 
HETATM    8  C   UNK N   1      27.221  26.335  -7.305  0.00  0.00     0.224 C 
HETATM    9  O   UNK N   1      27.336  27.468  -6.858  0.00  0.00    -0.273 OA
BRANCH   7  10
HETATM   10  C   UNK N   1      26.929  23.890  -6.955  0.00  0.00     0.038 A 
HETATM   11  C   UNK N   1      28.083  23.101  -7.139  0.00  0.00     0.030 A 
HETATM   12  C   UNK N   1      28.006  21.777  -7.577  0.00  0.00     0.002 A 
HETATM   13  C   UNK N   1      26.765  21.201  -7.836  0.00  0.00     0.000 A 
HETATM   14  C   UNK N   1      25.605  21.953  -7.662  0.00  0.00     0.002 A 
HETATM   15  C   UNK N   1      25.691  23.276  -7.226  0.00  0.00     0.030 A 
ENDBRANCH   7  10
BRANCH   8  16
HETATM   16  C   UNK N   1      27.328  26.195  -8.798  0.00  0.00     0.099 C 
HETATM   17  C   UNK N   1      25.958  26.143  -9.444  0.00  0.00     0.014 C 
ENDBRANCH   8  16
ENDBRANCH   2   7
BRANCH   2  18
HETATM   18  C   UNK N   1      25.789  26.637  -4.797  0.00  0.00     0.198 C 
BRANCH  18  19
HETATM   19  O   UNK N   1      25.825  27.268  -3.548  0.00  0.00    -0.393 OA
HETATM   20  C   UNK N   1      25.857  28.631  -3.852  0.00  0.00     0.201 C 
ENDBRANCH  18  19
ENDBRANCH   2  18
BRANCH   1  21
HETATM   21  C   UNK N   1      29.534  23.121  -2.599  0.00  0.00     0.294 C 
BRANCH  21  22
HETATM   22  C   UNK N   1      31.009  23.412  -2.903  0.00  0.00     0.181 C 
BRANCH  22  23
HETATM   23  N   UNK N   1      31.639  22.331  -3.657  0.00  0.00    -0.226 N 
HETATM   24  N   UNK N   1      31.473  22.064  -4.948  0.00  0.00    -0.002 NA
HETATM   25  N   UNK N   1      32.217  21.008  -5.274  0.00  0.00    -0.002 NA
HETATM   26  N   UNK N   1      32.866  20.587  -4.197  0.00  0.00    -0.228 N 
HETATM   27  C   UNK N   1      32.506  21.410  -3.191  0.00  0.00     0.354 A 
HETATM   28  O   UNK N   1      32.899  21.330  -2.039  0.00  0.00    -0.244 OA
BRANCH  26  29
HETATM   29  C   UNK N   1      33.772  19.450  -4.143  0.00  0.00     0.147 C 
HETATM   30  C   UNK N   1      35.169  19.875  -4.553  0.00  0.00     0.028 C 
ENDBRANCH  26  29
ENDBRANCH  22  23
ENDBRANCH  21  22
ENDBRANCH   1  21
TORSDOF 9
ENDMDL
MODEL 8
REMARK VINA RESULT:      -6.1     11.779     14.899
REMARK  9 active torsions:
REMARK  status: ('A' for Active; 'I' for Inactive)
REMARK    1  A    between atoms: O_1  and  C_15 
REMARK    2  A    between atoms: N_4  and  C_16 
REMARK    3  A    between atoms: N_5  and  C_10 
REMARK    4  A    between atoms: N_5  and  C_17 
REMARK       I    between atoms: N_5  and  C_18 
REMARK    5  A    between atoms: N_6  and  C_19 
REMARK    6  A    between atoms: N_8  and  C_29 
REMARK    7  A    between atoms: C_10  and  C_15 
REMARK    8  A    between atoms: C_16  and  C_19 
REMARK    9  A    between atoms: C_18  and  C_20 
ROOT
HETATM    1  N   UNK N   1      28.601  24.086  -3.745  0.00  0.00     0.090 N 
HETATM    2  C   UNK N   1      26.870  26.268  -4.585  0.00  0.00     0.065 C 
HETATM    3  C   UNK N   1      26.318  24.941  -4.012  0.00  0.00     0.064 C 
HETATM    4  C   UNK N   1      28.253  26.579  -3.967  0.00  0.00     0.064 C 
HETATM    5  C   UNK N   1      27.293  24.202  -3.096  0.00  0.00     0.275 C 
HETATM    6  C   UNK N   1      29.220  25.386  -4.071  0.00  0.00     0.275 C 
ENDROOT
BRANCH   2   7
HETATM    7  N   UNK N   1      26.962  26.330  -6.078  0.00  0.00    -0.306 N 
HETATM    8  C   UNK N   1      26.056  25.560  -6.811  0.00  0.00     0.224 C 
HETATM    9  O   UNK N   1      25.208  24.893  -6.233  0.00  0.00    -0.273 OA
BRANCH   7  10
HETATM   10  C   UNK N   1      27.938  27.184  -6.756  0.00  0.00     0.038 A 
HETATM   11  C   UNK N   1      27.826  28.590  -6.750  0.00  0.00     0.030 A 
HETATM   12  C   UNK N   1      28.789  29.406  -7.350  0.00  0.00     0.002 A 
HETATM   13  C   UNK N   1      29.898  28.834  -7.968  0.00  0.00     0.000 A 
HETATM   14  C   UNK N   1      30.039  27.448  -7.989  0.00  0.00     0.002 A 
HETATM   15  C   UNK N   1      29.072  26.640  -7.389  0.00  0.00     0.030 A 
ENDBRANCH   7  10
BRANCH   8  16
HETATM   16  C   UNK N   1      26.047  25.490  -8.312  0.00  0.00     0.099 C 
HETATM   17  C   UNK N   1      25.411  24.204  -8.799  0.00  0.00     0.014 C 
ENDBRANCH   8  16
ENDBRANCH   2   7
BRANCH   2  18
HETATM   18  C   UNK N   1      25.802  27.285  -4.122  0.00  0.00     0.198 C 
BRANCH  18  19
HETATM   19  O   UNK N   1      26.201  28.061  -3.028  0.00  0.00    -0.393 OA
HETATM   20  C   UNK N   1      26.263  29.362  -3.534  0.00  0.00     0.201 C 
ENDBRANCH  18  19
ENDBRANCH   2  18
BRANCH   1  21
HETATM   21  C   UNK N   1      29.512  23.282  -2.924  0.00  0.00     0.294 C 
BRANCH  21  22
HETATM   22  C   UNK N   1      29.894  21.955  -3.591  0.00  0.00     0.181 C 
BRANCH  22  23
HETATM   23  N   UNK N   1      31.275  21.574  -3.306  0.00  0.00    -0.226 N 
HETATM   24  N   UNK N   1      31.942  21.800  -2.180  0.00  0.00    -0.002 NA
HETATM   25  N   UNK N   1      33.172  21.300  -2.294  0.00  0.00    -0.002 NA
HETATM   26  N   UNK N   1      33.306  20.749  -3.493  0.00  0.00    -0.228 N 
HETATM   27  C   UNK N   1      32.125  20.921  -4.122  0.00  0.00     0.354 A 
HETATM   28  O   UNK N   1      31.870  20.547  -5.255  0.00  0.00    -0.244 OA
BRANCH  26  29
HETATM   29  C   UNK N   1      34.507  20.106  -4.002  0.00  0.00     0.147 C 
HETATM   30  C   UNK N   1      35.644  21.107  -4.078  0.00  0.00     0.028 C 
ENDBRANCH  26  29
ENDBRANCH  22  23
ENDBRANCH  21  22
ENDBRANCH   1  21
TORSDOF 9
ENDMDL
MODEL 9
REMARK VINA RESULT:      -6.1      7.989     11.024
REMARK  9 active torsions:
REMARK  status: ('A' for Active; 'I' for Inactive)
REMARK    1  A    between atoms: O_1  and  C_15 
REMARK    2  A    between atoms: N_4  and  C_16 
REMARK    3  A    between atoms: N_5  and  C_10 
REMARK    4  A    between atoms: N_5  and  C_17 
REMARK       I    between atoms: N_5  and  C_18 
REMARK    5  A    between atoms: N_6  and  C_19 
REMARK    6  A    between atoms: N_8  and  C_29 
REMARK    7  A    between atoms: C_10  and  C_15 
REMARK    8  A    between atoms: C_16  and  C_19 
REMARK    9  A    between atoms: C_18  and  C_20 
ROOT
HETATM    1  N   UNK N   1      20.431  17.039   2.366  0.00  0.00     0.090 N 
HETATM    2  C   UNK N   1      20.219  14.150   2.629  0.00  0.00     0.065 C 
HETATM    3  C   UNK N   1      20.186  15.102   3.849  0.00  0.00     0.064 C 
HETATM    4  C   UNK N   1      19.621  14.854   1.389  0.00  0.00     0.064 C 
HETATM    5  C   UNK N   1      19.705  16.516   3.525  0.00  0.00     0.275 C 
HETATM    6  C   UNK N   1      20.253  16.234   1.141  0.00  0.00     0.275 C 
ENDROOT
BRANCH   2   7
HETATM    7  N   UNK N   1      21.567  13.594   2.289  0.00  0.00    -0.306 N 
HETATM    8  C   UNK N   1      21.644  12.703   1.215  0.00  0.00     0.224 C 
HETATM    9  O   UNK N   1      20.640  12.428   0.572  0.00  0.00    -0.273 OA
BRANCH   7  10
HETATM   10  C   UNK N   1      22.770  13.984   3.025  0.00  0.00     0.038 A 
HETATM   11  C   UNK N   1      23.236  13.245   4.132  0.00  0.00     0.030 A 
HETATM   12  C   UNK N   1      24.415  13.588   4.800  0.00  0.00     0.002 A 
HETATM   13  C   UNK N   1      25.165  14.679   4.370  0.00  0.00     0.000 A 
HETATM   14  C   UNK N   1      24.733  15.429   3.279  0.00  0.00     0.002 A 
HETATM   15  C   UNK N   1      23.554  15.081   2.618  0.00  0.00     0.030 A 
ENDBRANCH   7  10
BRANCH   8  16
HETATM   16  C   UNK N   1      22.918  12.036   0.778  0.00  0.00     0.099 C 
HETATM   17  C   UNK N   1      23.567  12.791  -0.365  0.00  0.00     0.014 C 
ENDBRANCH   8  16
ENDBRANCH   2   7
BRANCH   2  18
HETATM   18  C   UNK N   1      19.321  12.986   3.108  0.00  0.00     0.198 C 
BRANCH  18  19
HETATM   19  O   UNK N   1      18.080  12.932   2.464  0.00  0.00    -0.393 OA
HETATM   20  C   UNK N   1      17.795  11.567   2.382  0.00  0.00     0.201 C 
ENDBRANCH  18  19
ENDBRANCH   2  18
BRANCH   1  21
HETATM   21  C   UNK N   1      20.058  18.435   2.114  0.00  0.00     0.294 C 
BRANCH  21  22
HETATM   22  C   UNK N   1      20.391  19.358   3.292  0.00  0.00     0.181 C 
BRANCH  22  23
HETATM   23  N   UNK N   1      21.772  19.832   3.246  0.00  0.00    -0.226 N 
HETATM   24  N   UNK N   1      22.206  20.954   2.679  0.00  0.00    -0.002 NA
HETATM   25  N   UNK N   1      23.524  21.046   2.848  0.00  0.00    -0.002 NA
HETATM   26  N   UNK N   1      23.949  19.986   3.523  0.00  0.00    -0.228 N 
HETATM   27  C   UNK N   1      22.859  19.231   3.769  0.00  0.00     0.354 A 
HETATM   28  O   UNK N   1      22.859  18.169   4.369  0.00  0.00    -0.244 OA
BRANCH  26  29
HETATM   29  C   UNK N   1      25.329  19.717   3.897  0.00  0.00     0.147 C 
HETATM   30  C   UNK N   1      26.269  20.600   3.099  0.00  0.00     0.028 C 
ENDBRANCH  26  29
ENDBRANCH  22  23
ENDBRANCH  21  22
ENDBRANCH   1  21
TORSDOF 9
ENDMDL
