MODEL 1
REMARK VINA RESULT:      -6.9      0.000      0.000
REMARK  4 active torsions:
REMARK  status: ('A' for Active; 'I' for Inactive)
REMARK    1  A    between atoms: C_5  and  O_1 
REMARK    2  A    between atoms: O_2  and  C_23 
REMARK    3  A    between atoms: N_3  and  C_16 
REMARK    4  A    between atoms: C_16  and  C_17 
ROOT
HETATM    1  N   UNK N   1      29.567  24.614  -3.922  0.00  0.00     0.096 N 
HETATM    2  C   UNK N   1      26.888  25.509  -4.651  0.00  0.00     0.022 C 
HETATM    3  C   UNK N   1      28.123  26.443  -4.844  0.00  0.00     0.101 C 
HETATM    4  C   UNK N   1      29.349  25.545  -5.080  0.00  0.00     0.262 C 
HETATM    5  C   UNK N   1      27.107  24.812  -3.312  0.00  0.00     0.048 C 
HETATM    6  C   UNK N   1      25.562  26.306  -4.624  0.00  0.00     0.017 C 
HETATM    7  C   UNK N   1      27.877  27.407  -6.019  0.00  0.00     0.041 C 
HETATM    8  C   UNK N   1      26.789  24.402  -5.714  0.00  0.00    -0.037 A 
HETATM    9  C   UNK N   1      28.367  23.938  -3.391  0.00  0.00     0.274 C 
HETATM   10  C   UNK N   1      29.181  24.833  -6.435  0.00  0.00     0.078 C 
HETATM   11  C   UNK N   1      25.736  27.824  -4.657  0.00  0.00     0.001 C 
HETATM   12  C   UNK N   1      26.598  28.248  -5.850  0.00  0.00     0.003 C 
HETATM   13  C   UNK N   1      27.889  24.101  -6.555  0.00  0.00    -0.049 A 
HETATM   14  C   UNK N   1      25.651  23.580  -5.780  0.00  0.00     0.045 A 
HETATM   15  C   UNK N   1      27.814  23.044  -7.463  0.00  0.00     0.010 A 
HETATM   16  C   UNK N   1      25.588  22.518  -6.688  0.00  0.00     0.066 A 
HETATM   17  C   UNK N   1      26.666  22.259  -7.536  0.00  0.00     0.037 A 
ENDROOT
BRANCH   1  18
HETATM   18  C   UNK N   1      30.475  23.497  -4.219  0.00  0.00     0.277 C 
BRANCH  18  19
HETATM   19  C   UNK N   1      29.894  22.109  -3.984  0.00  0.00     0.014 A 
HETATM   20  C   UNK N   1      30.086  21.308  -5.258  0.00  0.00     0.006 A 
HETATM   21  C   UNK N   1      31.188  20.499  -4.605  0.00  0.00     0.001 A 
HETATM   22  C   UNK N   1      30.954  21.250  -3.313  0.00  0.00     0.006 A 
ENDBRANCH  18  19
ENDBRANCH   1  18
BRANCH   3  23
HETATM   23  O   UNK N   1      28.346  27.220  -3.695  0.00  0.00    -0.386 OA
HETATM   24  H   UNK N   1      27.700  27.603  -3.081  0.00  0.00     0.210 HD
ENDBRANCH   3  23
BRANCH  16  25
HETATM   25  O   UNK N   1      24.498  21.739  -6.736  0.00  0.00    -0.361 OA
HETATM   26  H   UNK N   1      23.993  21.620  -7.516  0.00  0.00     0.217 HD
ENDBRANCH  16  25
TORSDOF 4
ENDMDL
MODEL 2
REMARK VINA RESULT:      -6.4     10.506     12.620
REMARK  4 active torsions:
REMARK  status: ('A' for Active; 'I' for Inactive)
REMARK    1  A    between atoms: C_5  and  O_1 
REMARK    2  A    between atoms: O_2  and  C_23 
REMARK    3  A    between atoms: N_3  and  C_16 
REMARK    4  A    between atoms: C_16  and  C_17 
ROOT
HETATM    1  N   UNK N   1      28.130  17.638   6.799  0.00  0.00     0.096 N 
HETATM    2  C   UNK N   1      26.313  17.663   4.517  0.00  0.00     0.022 C 
HETATM    3  C   UNK N   1      26.938  18.988   5.055  0.00  0.00     0.101 C 
HETATM    4  C   UNK N   1      28.295  18.635   5.687  0.00  0.00     0.262 C 
HETATM    5  C   UNK N   1      25.951  16.849   5.754  0.00  0.00     0.048 C 
HETATM    6  C   UNK N   1      25.047  17.927   3.666  0.00  0.00     0.017 C 
HETATM    7  C   UNK N   1      27.080  20.008   3.911  0.00  0.00     0.041 C 
HETATM    8  C   UNK N   1      27.300  16.812   3.700  0.00  0.00    -0.037 A 
HETATM    9  C   UNK N   1      27.230  16.499   6.528  0.00  0.00     0.274 C 
HETATM   10  C   UNK N   1      29.251  18.177   4.570  0.00  0.00     0.078 C 
HETATM   11  C   UNK N   1      24.599  19.389   3.637  0.00  0.00     0.001 C 
HETATM   12  C   UNK N   1      25.747  20.303   3.198  0.00  0.00     0.003 C 
HETATM   13  C   UNK N   1      28.690  17.077   3.736  0.00  0.00    -0.049 A 
HETATM   14  C   UNK N   1      26.852  15.673   3.009  0.00  0.00     0.045 A 
HETATM   15  C   UNK N   1      29.584  16.250   3.052  0.00  0.00     0.010 A 
HETATM   16  C   UNK N   1      27.756  14.845   2.334  0.00  0.00     0.066 A 
HETATM   17  C   UNK N   1      29.119  15.143   2.347  0.00  0.00     0.037 A 
ENDROOT
BRANCH   1  18
HETATM   18  C   UNK N   1      29.382  16.985   7.203  0.00  0.00     0.277 C 
BRANCH  18  19
HETATM   19  C   UNK N   1      29.725  17.100   8.682  0.00  0.00     0.014 A 
HETATM   20  C   UNK N   1      30.917  18.031   8.808  0.00  0.00     0.006 A 
HETATM   21  C   UNK N   1      30.028  19.126   9.359  0.00  0.00     0.001 A 
HETATM   22  C   UNK N   1      28.849  18.180   9.298  0.00  0.00     0.006 A 
ENDBRANCH  18  19
ENDBRANCH   1  18
BRANCH   3  23
HETATM   23  O   UNK N   1      26.116  19.563   6.039  0.00  0.00    -0.386 OA
HETATM   24  H   UNK N   1      25.774  19.169   6.857  0.00  0.00     0.210 HD
ENDBRANCH   3  23
BRANCH  16  25
HETATM   25  O   UNK N   1      27.316  13.759   1.683  0.00  0.00    -0.361 OA
HETATM   26  H   UNK N   1      27.738  13.419   0.919  0.00  0.00     0.217 HD
ENDBRANCH  16  25
TORSDOF 4
ENDMDL
MODEL 3
REMARK VINA RESULT:      -6.4     11.681     13.328
REMARK  4 active torsions:
REMARK  status: ('A' for Active; 'I' for Inactive)
REMARK    1  A    between atoms: C_5  and  O_1 
REMARK    2  A    between atoms: O_2  and  C_23 
REMARK    3  A    between atoms: N_3  and  C_16 
REMARK    4  A    between atoms: C_16  and  C_17 
ROOT
HETATM    1  N   UNK N   1      23.645  16.779   4.936  0.00  0.00     0.096 N 
HETATM    2  C   UNK N   1      21.149  16.212   3.535  0.00  0.00     0.022 C 
HETATM    3  C   UNK N   1      21.254  16.041   5.083  0.00  0.00     0.101 C 
HETATM    4  C   UNK N   1      22.316  17.033   5.587  0.00  0.00     0.262 C 
HETATM    5  C   UNK N   1      22.462  15.677   2.974  0.00  0.00     0.048 C 
HETATM    6  C   UNK N   1      19.957  15.419   2.947  0.00  0.00     0.017 C 
HETATM    7  C   UNK N   1      19.880  16.281   5.736  0.00  0.00     0.041 C 
HETATM    8  C   UNK N   1      21.045  17.681   3.091  0.00  0.00    -0.037 A 
HETATM    9  C   UNK N   1      23.625  16.543   3.478  0.00  0.00     0.274 C 
HETATM   10  C   UNK N   1      21.782  18.464   5.387  0.00  0.00     0.078 C 
HETATM   11  C   UNK N   1      19.222  14.541   3.960  0.00  0.00     0.001 C 
HETATM   12  C   UNK N   1      18.778  15.364   5.174  0.00  0.00     0.003 C 
HETATM   13  C   UNK N   1      21.345  18.735   3.988  0.00  0.00    -0.049 A 
HETATM   14  C   UNK N   1      20.780  17.999   1.748  0.00  0.00     0.045 A 
HETATM   15  C   UNK N   1      21.322  20.061   3.552  0.00  0.00     0.010 A 
HETATM   16  C   UNK N   1      20.768  19.331   1.318  0.00  0.00     0.066 A 
HETATM   17  C   UNK N   1      21.027  20.360   2.224  0.00  0.00     0.037 A 
ENDROOT
BRANCH   1  18
HETATM   18  C   UNK N   1      24.600  17.886   5.081  0.00  0.00     0.277 C 
BRANCH  18  19
HETATM   19  C   UNK N   1      25.181  18.417   3.777  0.00  0.00     0.014 A 
HETATM   20  C   UNK N   1      24.985  19.922   3.765  0.00  0.00     0.006 A 
HETATM   21  C   UNK N   1      26.462  20.135   4.021  0.00  0.00     0.001 A 
HETATM   22  C   UNK N   1      26.673  18.638   3.968  0.00  0.00     0.006 A 
ENDBRANCH  18  19
ENDBRANCH   1  18
BRANCH   3  23
HETATM   23  O   UNK N   1      21.661  14.737   5.414  0.00  0.00    -0.386 OA
HETATM   24  H   UNK N   1      21.438  13.899   4.980  0.00  0.00     0.210 HD
ENDBRANCH   3  23
BRANCH  16  25
HETATM   25  O   UNK N   1      20.518  19.620   0.033  0.00  0.00    -0.361 OA
HETATM   26  H   UNK N   1      20.340  18.962  -0.610  0.00  0.00     0.217 HD
ENDBRANCH  16  25
TORSDOF 4
ENDMDL
MODEL 4
REMARK VINA RESULT:      -6.3     18.026     21.414
REMARK  4 active torsions:
REMARK  status: ('A' for Active; 'I' for Inactive)
REMARK    1  A    between atoms: C_5  and  O_1 
REMARK    2  A    between atoms: O_2  and  C_23 
REMARK    3  A    between atoms: N_3  and  C_16 
REMARK    4  A    between atoms: C_16  and  C_17 
ROOT
HETATM    1  N   UNK N   1      34.594  12.393  12.010  0.00  0.00     0.096 N 
HETATM    2  C   UNK N   1      35.114  14.068   9.679  0.00  0.00     0.022 C 
HETATM    3  C   UNK N   1      34.757  14.706  11.057  0.00  0.00     0.101 C 
HETATM    4  C   UNK N   1      35.241  13.741  12.152  0.00  0.00     0.262 C 
HETATM    5  C   UNK N   1      34.203  12.855   9.541  0.00  0.00     0.048 C 
HETATM    6  C   UNK N   1      34.870  15.052   8.509  0.00  0.00     0.017 C 
HETATM    7  C   UNK N   1      35.408  16.096  11.181  0.00  0.00     0.041 C 
HETATM    8  C   UNK N   1      36.559  13.547   9.605  0.00  0.00    -0.037 A 
HETATM    9  C   UNK N   1      34.533  11.838  10.643  0.00  0.00     0.274 C 
HETATM   10  C   UNK N   1      36.781  13.704  12.126  0.00  0.00     0.078 C 
HETATM   11  C   UNK N   1      34.217  16.372   8.918  0.00  0.00     0.001 C 
HETATM   12  C   UNK N   1      35.013  17.050  10.038  0.00  0.00     0.003 C 
HETATM   13  C   UNK N   1      37.335  13.386  10.780  0.00  0.00    -0.049 A 
HETATM   14  C   UNK N   1      37.089  13.094   8.385  0.00  0.00     0.045 A 
HETATM   15  C   UNK N   1      38.617  12.839  10.709  0.00  0.00     0.010 A 
HETATM   16  C   UNK N   1      38.372  12.539   8.326  0.00  0.00     0.066 A 
HETATM   17  C   UNK N   1      39.138  12.424   9.486  0.00  0.00     0.037 A 
ENDROOT
BRANCH   1  18
HETATM   18  C   UNK N   1      35.260  11.330  12.773  0.00  0.00     0.277 C 
BRANCH  18  19
HETATM   19  C   UNK N   1      34.327  10.322  13.430  0.00  0.00     0.014 A 
HETATM   20  C   UNK N   1      35.159   9.468  14.370  0.00  0.00     0.006 A 
HETATM   21  C   UNK N   1      34.560  10.173  15.570  0.00  0.00     0.001 A 
HETATM   22  C   UNK N   1      33.680  10.979  14.640  0.00  0.00     0.006 A 
ENDBRANCH  18  19
ENDBRANCH   1  18
BRANCH   3  23
HETATM   23  O   UNK N   1      33.368  14.874  11.184  0.00  0.00    -0.386 OA
HETATM   24  H   UNK N   1      32.752  15.339  10.598  0.00  0.00     0.210 HD
ENDBRANCH   3  23
BRANCH  16  25
HETATM   25  O   UNK N   1      38.864  12.106   7.156  0.00  0.00    -0.361 OA
HETATM   26  H   UNK N   1      38.340  12.029   6.382  0.00  0.00     0.217 HD
ENDBRANCH  16  25
TORSDOF 4
ENDMDL
MODEL 5
REMARK VINA RESULT:      -6.3     12.554     14.573
REMARK  4 active torsions:
REMARK  status: ('A' for Active; 'I' for Inactive)
REMARK    1  A    between atoms: C_5  and  O_1 
REMARK    2  A    between atoms: O_2  and  C_23 
REMARK    3  A    between atoms: N_3  and  C_16 
REMARK    4  A    between atoms: C_16  and  C_17 
ROOT
HETATM    1  N   UNK N   1      32.352  14.828   4.575  0.00  0.00     0.096 N 
HETATM    2  C   UNK N   1      32.099  16.201   7.137  0.00  0.00     0.022 C 
HETATM    3  C   UNK N   1      33.327  16.459   6.210  0.00  0.00     0.101 C 
HETATM    4  C   UNK N   1      32.869  16.225   4.760  0.00  0.00     0.262 C 
HETATM    5  C   UNK N   1      31.837  14.701   7.062  0.00  0.00     0.048 C 
HETATM    6  C   UNK N   1      32.384  16.617   8.600  0.00  0.00     0.017 C 
HETATM    7  C   UNK N   1      33.862  17.886   6.426  0.00  0.00     0.041 C 
HETATM    8  C   UNK N   1      30.816  16.899   6.655  0.00  0.00    -0.037 A 
HETATM    9  C   UNK N   1      31.446  14.321   5.626  0.00  0.00     0.274 C 
HETATM   10  C   UNK N   1      31.858  17.324   4.384  0.00  0.00     0.078 C 
HETATM   11  C   UNK N   1      33.824  17.061   8.861  0.00  0.00     0.001 C 
HETATM   12  C   UNK N   1      34.235  18.174   7.892  0.00  0.00     0.003 C 
HETATM   13  C   UNK N   1      30.725  17.430   5.346  0.00  0.00    -0.049 A 
HETATM   14  C   UNK N   1      29.665  16.903   7.462  0.00  0.00     0.045 A 
HETATM   15  C   UNK N   1      29.529  17.992   4.894  0.00  0.00     0.010 A 
HETATM   16  C   UNK N   1      28.469  17.460   6.997  0.00  0.00     0.066 A 
HETATM   17  C   UNK N   1      28.407  18.015   5.718  0.00  0.00     0.037 A 
ENDROOT
BRANCH   1  18
HETATM   18  C   UNK N   1      31.572  14.640   3.344  0.00  0.00     0.277 C 
BRANCH  18  19
HETATM   19  C   UNK N   1      30.139  14.169   3.550  0.00  0.00     0.014 A 
HETATM   20  C   UNK N   1      29.232  15.095   2.761  0.00  0.00     0.006 A 
HETATM   21  C   UNK N   1      28.995  14.014   1.727  0.00  0.00     0.001 A 
HETATM   22  C   UNK N   1      29.844  13.066   2.545  0.00  0.00     0.006 A 
ENDBRANCH  18  19
ENDBRANCH   1  18
BRANCH   3  23
HETATM   23  O   UNK N   1      34.370  15.564   6.504  0.00  0.00    -0.386 OA
HETATM   24  H   UNK N   1      34.924  15.049   5.896  0.00  0.00     0.210 HD
ENDBRANCH   3  23
BRANCH  16  25
HETATM   25  O   UNK N   1      27.377  17.453   7.775  0.00  0.00    -0.361 OA
HETATM   26  H   UNK N   1      27.049  18.222   8.198  0.00  0.00     0.217 HD
ENDBRANCH  16  25
TORSDOF 4
ENDMDL
MODEL 6
REMARK VINA RESULT:      -6.3     21.670     25.406
REMARK  4 active torsions:
REMARK  status: ('A' for Active; 'I' for Inactive)
REMARK    1  A    between atoms: C_5  and  O_1 
REMARK    2  A    between atoms: O_2  and  C_23 
REMARK    3  A    between atoms: N_3  and  C_16 
REMARK    4  A    between atoms: C_16  and  C_17 
ROOT
HETATM    1  N   UNK N   1      35.380  11.394  12.952  0.00  0.00     0.096 N 
HETATM    2  C   UNK N   1      35.231  10.735  15.790  0.00  0.00     0.022 C 
HETATM    3  C   UNK N   1      36.172   9.939  14.833  0.00  0.00     0.101 C 
HETATM    4  C   UNK N   1      36.583  10.888  13.694  0.00  0.00     0.262 C 
HETATM    5  C   UNK N   1      33.944  10.960  15.005  0.00  0.00     0.048 C 
HETATM    6  C   UNK N   1      34.930   9.948  17.088  0.00  0.00     0.017 C 
HETATM    7  C   UNK N   1      37.390   9.407  15.611  0.00  0.00     0.041 C 
HETATM    8  C   UNK N   1      35.773  12.126  16.159  0.00  0.00    -0.037 A 
HETATM    9  C   UNK N   1      34.239  11.837  13.779  0.00  0.00     0.274 C 
HETATM   10  C   UNK N   1      37.472  12.001  14.282  0.00  0.00     0.078 C 
HETATM   11  C   UNK N   1      35.495   8.527  17.110  0.00  0.00     0.001 C 
HETATM   12  C   UNK N   1      36.998   8.533  16.817  0.00  0.00     0.003 C 
HETATM   13  C   UNK N   1      36.842  12.706  15.433  0.00  0.00    -0.049 A 
HETATM   14  C   UNK N   1      35.129  12.902  17.138  0.00  0.00     0.045 A 
HETATM   15  C   UNK N   1      37.274  14.001  15.726  0.00  0.00     0.010 A 
HETATM   16  C   UNK N   1      35.564  14.202  17.419  0.00  0.00     0.066 A 
HETATM   17  C   UNK N   1      36.644  14.744  16.721  0.00  0.00     0.037 A 
ENDROOT
BRANCH   1  18
HETATM   18  C   UNK N   1      35.651  12.564  12.105  0.00  0.00     0.277 C 
BRANCH  18  19
HETATM   19  C   UNK N   1      34.937  13.843  12.519  0.00  0.00     0.014 A 
HETATM   20  C   UNK N   1      35.983  14.937  12.636  0.00  0.00     0.006 A 
HETATM   21  C   UNK N   1      35.489  15.573  11.353  0.00  0.00     0.001 A 
HETATM   22  C   UNK N   1      34.402  14.523  11.268  0.00  0.00     0.006 A 
ENDBRANCH  18  19
ENDBRANCH   1  18
BRANCH   3  23
HETATM   23  O   UNK N   1      35.503   8.834  14.281  0.00  0.00    -0.386 OA
HETATM   24  H   UNK N   1      35.865   7.981  13.993  0.00  0.00     0.210 HD
ENDBRANCH   3  23
BRANCH  16  25
HETATM   25  O   UNK N   1      34.937  14.933  18.352  0.00  0.00    -0.361 OA
HETATM   26  H   UNK N   1      35.149  14.882  19.264  0.00  0.00     0.217 HD
ENDBRANCH  16  25
TORSDOF 4
ENDMDL
MODEL 7
REMARK VINA RESULT:      -6.2      1.578      5.155
REMARK  4 active torsions:
REMARK  status: ('A' for Active; 'I' for Inactive)
REMARK    1  A    between atoms: C_5  and  O_1 
REMARK    2  A    between atoms: O_2  and  C_23 
REMARK    3  A    between atoms: N_3  and  C_16 
REMARK    4  A    between atoms: C_16  and  C_17 
ROOT
HETATM    1  N   UNK N   1      30.231  25.893  -4.939  0.00  0.00     0.096 N 
HETATM    2  C   UNK N   1      29.647  23.120  -5.635  0.00  0.00     0.022 C 
HETATM    3  C   UNK N   1      30.419  23.470  -4.324  0.00  0.00     0.101 C 
HETATM    4  C   UNK N   1      29.958  24.867  -3.876  0.00  0.00     0.262 C 
HETATM    5  C   UNK N   1      30.203  24.059  -6.700  0.00  0.00     0.048 C 
HETATM    6  C   UNK N   1      29.868  21.648  -6.058  0.00  0.00     0.017 C 
HETATM    7  C   UNK N   1      30.149  22.399  -3.251  0.00  0.00     0.041 C 
HETATM    8  C   UNK N   1      28.137  23.398  -5.545  0.00  0.00    -0.037 A 
HETATM    9  C   UNK N   1      29.878  25.511  -6.321  0.00  0.00     0.274 C 
HETATM   10  C   UNK N   1      28.481  24.782  -3.450  0.00  0.00     0.078 C 
HETATM   11  C   UNK N   1      30.880  20.889  -5.199  0.00  0.00     0.001 C 
HETATM   12  C   UNK N   1      30.512  20.976  -3.715  0.00  0.00     0.003 C 
HETATM   13  C   UNK N   1      27.604  24.185  -4.496  0.00  0.00    -0.049 A 
HETATM   14  C   UNK N   1      27.277  22.986  -6.578  0.00  0.00     0.045 A 
HETATM   15  C   UNK N   1      26.243  24.495  -4.468  0.00  0.00     0.010 A 
HETATM   16  C   UNK N   1      25.916  23.308  -6.545  0.00  0.00     0.066 A 
HETATM   17  C   UNK N   1      25.400  24.052  -5.483  0.00  0.00     0.037 A 
ENDROOT
BRANCH   1  18
HETATM   18  C   UNK N   1      29.507  27.156  -4.747  0.00  0.00     0.277 C 
BRANCH  18  19
HETATM   19  C   UNK N   1      28.586  27.556  -5.891  0.00  0.00     0.014 A 
HETATM   20  C   UNK N   1      27.241  27.925  -5.293  0.00  0.00     0.006 A 
HETATM   21  C   UNK N   1      27.508  29.394  -5.550  0.00  0.00     0.001 A 
HETATM   22  C   UNK N   1      28.820  29.025  -6.208  0.00  0.00     0.006 A 
ENDBRANCH  18  19
ENDBRANCH   1  18
BRANCH   3  23
HETATM   23  O   UNK N   1      31.804  23.502  -4.555  0.00  0.00    -0.386 OA
HETATM   24  H   UNK N   1      32.391  24.269  -4.645  0.00  0.00     0.210 HD
ENDBRANCH   3  23
BRANCH  16  25
HETATM   25  O   UNK N   1      25.108  22.913  -7.539  0.00  0.00    -0.361 OA
HETATM   26  H   UNK N   1      25.386  22.870  -8.433  0.00  0.00     0.217 HD
ENDBRANCH  16  25
TORSDOF 4
ENDMDL
MODEL 8
REMARK VINA RESULT:      -6.1      1.997      4.412
REMARK  4 active torsions:
REMARK  status: ('A' for Active; 'I' for Inactive)
REMARK    1  A    between atoms: C_5  and  O_1 
REMARK    2  A    between atoms: O_2  and  C_23 
REMARK    3  A    between atoms: N_3  and  C_16 
REMARK    4  A    between atoms: C_16  and  C_17 
ROOT
HETATM    1  N   UNK N   1      28.761  24.489  -5.037  0.00  0.00     0.096 N 
HETATM    2  C   UNK N   1      27.790  26.457  -6.959  0.00  0.00     0.022 C 
HETATM    3  C   UNK N   1      27.293  24.979  -7.009  0.00  0.00     0.101 C 
HETATM    4  C   UNK N   1      27.361  24.420  -5.578  0.00  0.00     0.262 C 
HETATM    5  C   UNK N   1      29.282  26.377  -6.658  0.00  0.00     0.048 C 
HETATM    6  C   UNK N   1      27.558  27.189  -8.304  0.00  0.00     0.017 C 
HETATM    7  C   UNK N   1      25.866  24.920  -7.586  0.00  0.00     0.041 C 
HETATM    8  C   UNK N   1      27.152  27.276  -5.824  0.00  0.00    -0.037 A 
HETATM    9  C   UNK N   1      29.491  25.751  -5.271  0.00  0.00     0.274 C 
HETATM   10  C   UNK N   1      26.318  25.155  -4.715  0.00  0.00     0.078 C 
HETATM   11  C   UNK N   1      27.025  26.296  -9.424  0.00  0.00     0.001 C 
HETATM   12  C   UNK N   1      25.754  25.565  -8.981  0.00  0.00     0.003 C 
HETATM   13  C   UNK N   1      26.453  26.638  -4.771  0.00  0.00    -0.049 A 
HETATM   14  C   UNK N   1      27.368  28.663  -5.742  0.00  0.00     0.045 A 
HETATM   15  C   UNK N   1      25.946  27.384  -3.706  0.00  0.00     0.010 A 
HETATM   16  C   UNK N   1      26.863  29.401  -4.666  0.00  0.00     0.066 A 
HETATM   17  C   UNK N   1      26.142  28.762  -3.657  0.00  0.00     0.037 A 
ENDROOT
BRANCH   1  18
HETATM   18  C   UNK N   1      28.845  24.320  -3.580  0.00  0.00     0.277 C 
BRANCH  18  19
HETATM   19  C   UNK N   1      29.149  22.904  -3.109  0.00  0.00     0.014 A 
HETATM   20  C   UNK N   1      30.040  22.253  -4.150  0.00  0.00     0.006 A 
HETATM   21  C   UNK N   1      31.235  22.368  -3.228  0.00  0.00     0.001 A 
HETATM   22  C   UNK N   1      30.338  22.957  -2.161  0.00  0.00     0.006 A 
ENDBRANCH  18  19
ENDBRANCH   1  18
BRANCH   3  23
HETATM   23  O   UNK N   1      28.120  24.202  -7.838  0.00  0.00    -0.386 OA
HETATM   24  H   UNK N   1      28.811  23.569  -7.591  0.00  0.00     0.210 HD
ENDBRANCH   3  23
BRANCH  16  25
HETATM   25  O   UNK N   1      27.080  30.722  -4.598  0.00  0.00    -0.361 OA
HETATM   26  H   UNK N   1      26.491  31.354  -4.963  0.00  0.00     0.217 HD
ENDBRANCH  16  25
TORSDOF 4
ENDMDL
MODEL 9
REMARK VINA RESULT:      -6.1     22.742     26.083
REMARK  4 active torsions:
REMARK  status: ('A' for Active; 'I' for Inactive)
REMARK    1  A    between atoms: C_5  and  O_1 
REMARK    2  A    between atoms: O_2  and  C_23 
REMARK    3  A    between atoms: N_3  and  C_16 
REMARK    4  A    between atoms: C_16  and  C_17 
ROOT
HETATM    1  N   UNK N   1      36.032   9.047  15.677  0.00  0.00     0.096 N 
HETATM    2  C   UNK N   1      36.552  11.103  13.675  0.00  0.00     0.022 C 
HETATM    3  C   UNK N   1      35.400  10.070  13.478  0.00  0.00     0.101 C 
HETATM    4  C   UNK N   1      34.914   9.649  14.875  0.00  0.00     0.262 C 
HETATM    5  C   UNK N   1      37.718  10.311  14.256  0.00  0.00     0.048 C 
HETATM    6  C   UNK N   1      36.971  11.761  12.338  0.00  0.00     0.017 C 
HETATM    7  C   UNK N   1      34.271  10.691  12.635  0.00  0.00     0.041 C 
HETATM    8  C   UNK N   1      36.215  12.205  14.694  0.00  0.00    -0.037 A 
HETATM    9  C   UNK N   1      37.325   9.758  15.633  0.00  0.00     0.274 C 
HETATM   10  C   UNK N   1      34.241  10.861  15.545  0.00  0.00     0.078 C 
HETATM   11  C   UNK N   1      36.279  11.180  11.104  0.00  0.00     0.001 C 
HETATM   12  C   UNK N   1      34.756  11.211  11.269  0.00  0.00     0.003 C 
HETATM   13  C   UNK N   1      35.110  12.072  15.569  0.00  0.00    -0.049 A 
HETATM   14  C   UNK N   1      37.077  13.302  14.865  0.00  0.00     0.045 A 
HETATM   15  C   UNK N   1      34.859  13.041  16.541  0.00  0.00     0.010 A 
HETATM   16  C   UNK N   1      36.822  14.264  15.848  0.00  0.00     0.066 A 
HETATM   17  C   UNK N   1      35.707  14.138  16.676  0.00  0.00     0.037 A 
ENDROOT
BRANCH   1  18
HETATM   18  C   UNK N   1      35.749   8.956  17.116  0.00  0.00     0.277 C 
BRANCH  18  19
HETATM   19  C   UNK N   1      36.686   9.756  18.012  0.00  0.00     0.014 A 
HETATM   20  C   UNK N   1      35.830  10.570  18.964  0.00  0.00     0.006 A 
HETATM   21  C   UNK N   1      36.196   9.652  20.110  0.00  0.00     0.001 A 
HETATM   22  C   UNK N   1      37.104   8.876  19.181  0.00  0.00     0.006 A 
ENDBRANCH  18  19
ENDBRANCH   1  18
BRANCH   3  23
HETATM   23  O   UNK N   1      35.862   8.931  12.798  0.00  0.00    -0.386 OA
HETATM   24  H   UNK N   1      36.762   8.716  12.505  0.00  0.00     0.210 HD
ENDBRANCH   3  23
BRANCH  16  25
HETATM   25  O   UNK N   1      37.656  15.303  16.003  0.00  0.00    -0.361 OA
HETATM   26  H   UNK N   1      38.335  15.316  16.648  0.00  0.00     0.217 HD
ENDBRANCH  16  25
TORSDOF 4
ENDMDL
