MODEL 1
REMARK VINA RESULT:      -7.0      0.000      0.000
REMARK  6 active torsions:
REMARK  status: ('A' for Active; 'I' for Inactive)
REMARK    1  A    between atoms: N_2  and  C_9 
REMARK    2  A    between atoms: N_3  and  C_4 
REMARK    3  A    between atoms: N_3  and  C_11 
REMARK       I    between atoms: N_3  and  C_12 
REMARK    4  A    between atoms: C_9  and  C_10 
REMARK    5  A    between atoms: C_10  and  C_13 
REMARK    6  A    between atoms: C_12  and  C_14 
ROOT
HETATM    1  N   UNK N   1      36.119  12.942  12.335  0.00  0.00    -0.412 N 
HETATM    2  C   UNK N   1      36.520  15.223  10.553  0.00  0.00     0.096 C 
HETATM    3  C   UNK N   1      37.449  14.008  10.419  0.00  0.00     0.045 C 
HETATM    4  C   UNK N   1      36.096  15.389  12.000  0.00  0.00     0.045 C 
HETATM    5  C   UNK N   1      36.995  12.737  11.167  0.00  0.00     0.119 C 
HETATM    6  C   UNK N   1      35.304  14.160  12.399  0.00  0.00     0.119 C 
ENDROOT
BRANCH   2   7
HETATM    7  N   UNK N   1      35.392  15.412   9.608  0.00  0.00    -0.313 N 
HETATM    8  C   UNK N   1      34.874  16.694   9.529  0.00  0.00     0.224 C 
HETATM    9  O   UNK N   1      35.384  17.600  10.176  0.00  0.00    -0.273 OA
BRANCH   7  10
HETATM   10  C   UNK N   1      34.847  14.319   8.814  0.00  0.00     0.037 A 
HETATM   11  C   UNK N   1      33.850  13.463   9.325  0.00  0.00     0.030 A 
HETATM   12  C   UNK N   1      33.329  12.412   8.564  0.00  0.00     0.002 A 
HETATM   13  C   UNK N   1      33.802  12.187   7.272  0.00  0.00     0.000 A 
HETATM   14  C   UNK N   1      34.789  13.016   6.744  0.00  0.00     0.002 A 
HETATM   15  C   UNK N   1      35.297  14.068   7.509  0.00  0.00     0.030 A 
ENDBRANCH   7  10
BRANCH   8  16
HETATM   16  C   UNK N   1      33.645  17.033   8.729  0.00  0.00     0.099 C 
HETATM   17  C   UNK N   1      33.897  18.219   7.818  0.00  0.00     0.014 C 
ENDBRANCH   8  16
ENDBRANCH   2   7
BRANCH   1  18
HETATM   18  C   UNK N   1      36.750  12.601  13.605  0.00  0.00     0.121 C 
BRANCH  18  19
HETATM   19  C   UNK N   1      35.749  12.422  14.737  0.00  0.00     0.058 C 
BRANCH  19  20
HETATM   20  C   UNK N   1      36.018  13.445  15.787  0.00  0.00    -0.057 A 
HETATM   21  C   UNK N   1      35.296  13.439  16.989  0.00  0.00     0.007 A 
HETATM   22  C   UNK N   1      35.540  14.420  17.955  0.00  0.00     0.001 A 
HETATM   23  C   UNK N   1      36.504  15.406  17.722  0.00  0.00     0.000 A 
HETATM   24  C   UNK N   1      37.227  15.408  16.525  0.00  0.00     0.001 A 
HETATM   25  C   UNK N   1      36.983  14.430  15.559  0.00  0.00     0.007 A 
ENDBRANCH  19  20
ENDBRANCH  18  19
ENDBRANCH   1  18
TORSDOF 6
ENDMDL
MODEL 2
REMARK VINA RESULT:      -6.6      0.996      1.901
REMARK  6 active torsions:
REMARK  status: ('A' for Active; 'I' for Inactive)
REMARK    1  A    between atoms: N_2  and  C_9 
REMARK    2  A    between atoms: N_3  and  C_4 
REMARK    3  A    between atoms: N_3  and  C_11 
REMARK       I    between atoms: N_3  and  C_12 
REMARK    4  A    between atoms: C_9  and  C_10 
REMARK    5  A    between atoms: C_10  and  C_13 
REMARK    6  A    between atoms: C_12  and  C_14 
ROOT
HETATM    1  N   UNK N   1      35.922  13.016  12.476  0.00  0.00    -0.412 N 
HETATM    2  C   UNK N   1      36.531  15.154  10.581  0.00  0.00     0.096 C 
HETATM    3  C   UNK N   1      37.389  13.882  10.559  0.00  0.00     0.045 C 
HETATM    4  C   UNK N   1      36.062  15.434  11.996  0.00  0.00     0.045 C 
HETATM    5  C   UNK N   1      36.829  12.688  11.361  0.00  0.00     0.119 C 
HETATM    6  C   UNK N   1      35.182  14.281  12.433  0.00  0.00     0.119 C 
ENDROOT
BRANCH   2   7
HETATM    7  N   UNK N   1      35.456  15.350   9.579  0.00  0.00    -0.313 N 
HETATM    8  C   UNK N   1      34.938  16.632   9.486  0.00  0.00     0.224 C 
HETATM    9  O   UNK N   1      35.409  17.532  10.169  0.00  0.00    -0.273 OA
BRANCH   7  10
HETATM   10  C   UNK N   1      34.958  14.264   8.745  0.00  0.00     0.037 A 
HETATM   11  C   UNK N   1      35.485  14.021   7.460  0.00  0.00     0.030 A 
HETATM   12  C   UNK N   1      35.005  12.981   6.659  0.00  0.00     0.002 A 
HETATM   13  C   UNK N   1      33.977  12.162   7.123  0.00  0.00     0.000 A 
HETATM   14  C   UNK N   1      33.438  12.381   8.388  0.00  0.00     0.002 A 
HETATM   15  C   UNK N   1      33.929  13.418   9.184  0.00  0.00     0.030 A 
ENDBRANCH   7  10
BRANCH   8  16
HETATM   16  C   UNK N   1      33.753  16.976   8.625  0.00  0.00     0.099 C 
HETATM   17  C   UNK N   1      33.948  18.314   7.938  0.00  0.00     0.014 C 
ENDBRANCH   8  16
ENDBRANCH   2   7
BRANCH   1  18
HETATM   18  C   UNK N   1      36.481  12.717  13.790  0.00  0.00     0.121 C 
BRANCH  18  19
HETATM   19  C   UNK N   1      35.855  13.543  14.904  0.00  0.00     0.058 C 
BRANCH  19  20
HETATM   20  C   UNK N   1      35.762  12.707  16.133  0.00  0.00    -0.057 A 
HETATM   21  C   UNK N   1      36.097  11.346  16.097  0.00  0.00     0.007 A 
HETATM   22  C   UNK N   1      35.980  10.566  17.251  0.00  0.00     0.001 A 
HETATM   23  C   UNK N   1      35.530  11.144  18.443  0.00  0.00     0.000 A 
HETATM   24  C   UNK N   1      35.201  12.503  18.480  0.00  0.00     0.001 A 
HETATM   25  C   UNK N   1      35.316  13.283  17.326  0.00  0.00     0.007 A 
ENDBRANCH  19  20
ENDBRANCH  18  19
ENDBRANCH   1  18
TORSDOF 6
ENDMDL
MODEL 3
REMARK VINA RESULT:      -6.6      4.393      9.328
REMARK  6 active torsions:
REMARK  status: ('A' for Active; 'I' for Inactive)
REMARK    1  A    between atoms: N_2  and  C_9 
REMARK    2  A    between atoms: N_3  and  C_4 
REMARK    3  A    between atoms: N_3  and  C_11 
REMARK       I    between atoms: N_3  and  C_12 
REMARK    4  A    between atoms: C_9  and  C_10 
REMARK    5  A    between atoms: C_10  and  C_13 
REMARK    6  A    between atoms: C_12  and  C_14 
ROOT
HETATM    1  N   UNK N   1      30.168  16.707   7.936  0.00  0.00    -0.412 N 
HETATM    2  C   UNK N   1      32.830  17.589   7.115  0.00  0.00     0.096 C 
HETATM    3  C   UNK N   1      32.124  18.334   8.256  0.00  0.00     0.045 C 
HETATM    4  C   UNK N   1      31.803  17.076   6.122  0.00  0.00     0.045 C 
HETATM    5  C   UNK N   1      30.876  17.636   8.836  0.00  0.00     0.119 C 
HETATM    6  C   UNK N   1      30.916  16.080   6.841  0.00  0.00     0.119 C 
ENDROOT
BRANCH   2   7
HETATM    7  N   UNK N   1      33.879  16.584   7.413  0.00  0.00    -0.313 N 
HETATM    8  C   UNK N   1      34.576  16.091   6.321  0.00  0.00     0.224 C 
HETATM    9  O   UNK N   1      34.346  16.529   5.201  0.00  0.00    -0.273 OA
BRANCH   7  10
HETATM   10  C   UNK N   1      34.161  16.127   8.767  0.00  0.00     0.037 A 
HETATM   11  C   UNK N   1      33.546  14.976   9.299  0.00  0.00     0.030 A 
HETATM   12  C   UNK N   1      33.814  14.540  10.600  0.00  0.00     0.002 A 
HETATM   13  C   UNK N   1      34.702  15.253  11.405  0.00  0.00     0.000 A 
HETATM   14  C   UNK N   1      35.323  16.394  10.903  0.00  0.00     0.002 A 
HETATM   15  C   UNK N   1      35.054  16.818   9.600  0.00  0.00     0.030 A 
ENDBRANCH   7  10
BRANCH   8  16
HETATM   16  C   UNK N   1      35.575  14.970   6.425  0.00  0.00     0.099 C 
HETATM   17  C   UNK N   1      34.948  13.643   6.042  0.00  0.00     0.014 C 
ENDBRANCH   8  16
ENDBRANCH   2   7
BRANCH   1  18
HETATM   18  C   UNK N   1      28.844  17.173   7.541  0.00  0.00     0.121 C 
BRANCH  18  19
HETATM   19  C   UNK N   1      28.605  18.638   7.876  0.00  0.00     0.058 C 
BRANCH  19  20
HETATM   20  C   UNK N   1      28.020  19.318   6.687  0.00  0.00    -0.057 A 
HETATM   21  C   UNK N   1      27.248  20.479   6.838  0.00  0.00     0.007 A 
HETATM   22  C   UNK N   1      26.683  21.094   5.716  0.00  0.00     0.001 A 
HETATM   23  C   UNK N   1      26.889  20.550   4.444  0.00  0.00     0.000 A 
HETATM   24  C   UNK N   1      27.663  19.395   4.293  0.00  0.00     0.001 A 
HETATM   25  C   UNK N   1      28.226  18.780   5.414  0.00  0.00     0.007 A 
ENDBRANCH  19  20
ENDBRANCH  18  19
ENDBRANCH   1  18
TORSDOF 6
ENDMDL
MODEL 4
REMARK VINA RESULT:      -6.5     17.511     21.313
REMARK  6 active torsions:
REMARK  status: ('A' for Active; 'I' for Inactive)
REMARK    1  A    between atoms: N_2  and  C_9 
REMARK    2  A    between atoms: N_3  and  C_4 
REMARK    3  A    between atoms: N_3  and  C_11 
REMARK       I    between atoms: N_3  and  C_12 
REMARK    4  A    between atoms: C_9  and  C_10 
REMARK    5  A    between atoms: C_10  and  C_13 
REMARK    6  A    between atoms: C_12  and  C_14 
ROOT
HETATM    1  N   UNK N   1      28.638  23.988  -3.678  0.00  0.00    -0.412 N 
HETATM    2  C   UNK N   1      26.402  24.002  -5.559  0.00  0.00     0.096 C 
HETATM    3  C   UNK N   1      26.101  24.013  -4.054  0.00  0.00     0.045 C 
HETATM    4  C   UNK N   1      27.680  23.227  -5.823  0.00  0.00     0.045 C 
HETATM    5  C   UNK N   1      27.305  24.312  -3.136  0.00  0.00     0.119 C 
HETATM    6  C   UNK N   1      28.817  23.952  -5.133  0.00  0.00     0.119 C 
ENDROOT
BRANCH   2   7
HETATM    7  N   UNK N   1      26.329  25.257  -6.347  0.00  0.00    -0.313 N 
HETATM    8  C   UNK N   1      26.056  25.112  -7.697  0.00  0.00     0.224 C 
HETATM    9  O   UNK N   1      25.837  24.000  -8.160  0.00  0.00    -0.273 OA
BRANCH   7  10
HETATM   10  C   UNK N   1      26.542  26.568  -5.748  0.00  0.00     0.037 A 
HETATM   11  C   UNK N   1      25.503  27.254  -5.088  0.00  0.00     0.030 A 
HETATM   12  C   UNK N   1      25.706  28.514  -4.517  0.00  0.00     0.002 A 
HETATM   13  C   UNK N   1      26.958  29.122  -4.601  0.00  0.00     0.000 A 
HETATM   14  C   UNK N   1      28.002  28.466  -5.248  0.00  0.00     0.002 A 
HETATM   15  C   UNK N   1      27.790  27.205  -5.809  0.00  0.00     0.030 A 
ENDBRANCH   7  10
BRANCH   8  16
HETATM   16  C   UNK N   1      26.082  26.262  -8.667  0.00  0.00     0.099 C 
HETATM   17  C   UNK N   1      27.393  26.306  -9.427  0.00  0.00     0.014 C 
ENDBRANCH   8  16
ENDBRANCH   2   7
BRANCH   1  18
HETATM   18  C   UNK N   1      29.296  22.885  -2.986  0.00  0.00     0.121 C 
BRANCH  18  19
HETATM   19  C   UNK N   1      30.792  23.102  -2.812  0.00  0.00     0.058 C 
BRANCH  19  20
HETATM   20  C   UNK N   1      31.520  21.922  -3.357  0.00  0.00    -0.057 A 
HETATM   21  C   UNK N   1      32.846  21.664  -2.980  0.00  0.00     0.007 A 
HETATM   22  C   UNK N   1      33.526  20.569  -3.519  0.00  0.00     0.001 A 
HETATM   23  C   UNK N   1      32.882  19.728  -4.434  0.00  0.00     0.000 A 
HETATM   24  C   UNK N   1      31.558  19.981  -4.806  0.00  0.00     0.001 A 
HETATM   25  C   UNK N   1      30.879  21.078  -4.268  0.00  0.00     0.007 A 
ENDBRANCH  19  20
ENDBRANCH  18  19
ENDBRANCH   1  18
TORSDOF 6
ENDMDL
MODEL 5
REMARK VINA RESULT:      -6.5      2.683      4.649
REMARK  6 active torsions:
REMARK  status: ('A' for Active; 'I' for Inactive)
REMARK    1  A    between atoms: N_2  and  C_9 
REMARK    2  A    between atoms: N_3  and  C_4 
REMARK    3  A    between atoms: N_3  and  C_11 
REMARK       I    between atoms: N_3  and  C_12 
REMARK    4  A    between atoms: C_9  and  C_10 
REMARK    5  A    between atoms: C_10  and  C_13 
REMARK    6  A    between atoms: C_12  and  C_14 
ROOT
HETATM    1  N   UNK N   1      34.502  15.243   9.887  0.00  0.00    -0.412 N 
HETATM    2  C   UNK N   1      33.506  14.734   7.188  0.00  0.00     0.096 C 
HETATM    3  C   UNK N   1      32.813  14.047   8.373  0.00  0.00     0.045 C 
HETATM    4  C   UNK N   1      34.983  14.911   7.488  0.00  0.00     0.045 C 
HETATM    5  C   UNK N   1      33.185  14.591   9.769  0.00  0.00     0.119 C 
HETATM    6  C   UNK N   1      35.110  15.828   8.687  0.00  0.00     0.119 C 
ENDROOT
BRANCH   2   7
HETATM    7  N   UNK N   1      32.906  15.939   6.566  0.00  0.00    -0.313 N 
HETATM    8  C   UNK N   1      33.456  16.338   5.359  0.00  0.00     0.224 C 
HETATM    9  O   UNK N   1      34.345  15.672   4.843  0.00  0.00    -0.273 OA
BRANCH   7  10
HETATM   10  C   UNK N   1      31.812  16.675   7.185  0.00  0.00     0.037 A 
HETATM   11  C   UNK N   1      32.047  17.649   8.176  0.00  0.00     0.030 A 
HETATM   12  C   UNK N   1      30.996  18.353   8.772  0.00  0.00     0.002 A 
HETATM   13  C   UNK N   1      29.680  18.091   8.394  0.00  0.00     0.000 A 
HETATM   14  C   UNK N   1      29.420  17.132   7.418  0.00  0.00     0.002 A 
HETATM   15  C   UNK N   1      30.477  16.440   6.823  0.00  0.00     0.030 A 
ENDBRANCH   7  10
BRANCH   8  16
HETATM   16  C   UNK N   1      33.065  17.612   4.660  0.00  0.00     0.099 C 
HETATM   17  C   UNK N   1      32.178  17.329   3.464  0.00  0.00     0.014 C 
ENDBRANCH   8  16
ENDBRANCH   2   7
BRANCH   1  18
HETATM   18  C   UNK N   1      35.449  14.500  10.711  0.00  0.00     0.121 C 
BRANCH  18  19
HETATM   19  C   UNK N   1      35.832  15.237  11.987  0.00  0.00     0.058 C 
BRANCH  19  20
HETATM   20  C   UNK N   1      35.843  14.269  13.120  0.00  0.00    -0.057 A 
HETATM   21  C   UNK N   1      36.603  14.527  14.270  0.00  0.00     0.007 A 
HETATM   22  C   UNK N   1      36.626  13.599  15.316  0.00  0.00     0.001 A 
HETATM   23  C   UNK N   1      35.888  12.415  15.214  0.00  0.00     0.000 A 
HETATM   24  C   UNK N   1      35.126  12.160  14.070  0.00  0.00     0.001 A 
HETATM   25  C   UNK N   1      35.105  13.086  13.024  0.00  0.00     0.007 A 
ENDBRANCH  19  20
ENDBRANCH  18  19
ENDBRANCH   1  18
TORSDOF 6
ENDMDL
MODEL 6
REMARK VINA RESULT:      -6.4      8.950     11.767
REMARK  6 active torsions:
REMARK  status: ('A' for Active; 'I' for Inactive)
REMARK    1  A    between atoms: N_2  and  C_9 
REMARK    2  A    between atoms: N_3  and  C_4 
REMARK    3  A    between atoms: N_3  and  C_11 
REMARK       I    between atoms: N_3  and  C_12 
REMARK    4  A    between atoms: C_9  and  C_10 
REMARK    5  A    between atoms: C_10  and  C_13 
REMARK    6  A    between atoms: C_12  and  C_14 
ROOT
HETATM    1  N   UNK N   1      25.289  15.621   6.555  0.00  0.00    -0.412 N 
HETATM    2  C   UNK N   1      27.145  15.871   4.313  0.00  0.00     0.096 C 
HETATM    3  C   UNK N   1      25.671  16.241   4.097  0.00  0.00     0.045 C 
HETATM    4  C   UNK N   1      27.251  14.752   5.332  0.00  0.00     0.045 C 
HETATM    5  C   UNK N   1      24.824  16.379   5.380  0.00  0.00     0.119 C 
HETATM    6  C   UNK N   1      26.709  15.267   6.650  0.00  0.00     0.119 C 
ENDROOT
BRANCH   2   7
HETATM    7  N   UNK N   1      28.160  16.930   4.530  0.00  0.00    -0.313 N 
HETATM    8  C   UNK N   1      29.475  16.573   4.279  0.00  0.00     0.224 C 
HETATM    9  O   UNK N   1      29.733  15.456   3.850  0.00  0.00    -0.273 OA
BRANCH   7  10
HETATM   10  C   UNK N   1      27.808  18.267   4.990  0.00  0.00     0.037 A 
HETATM   11  C   UNK N   1      27.400  19.272   4.090  0.00  0.00     0.030 A 
HETATM   12  C   UNK N   1      27.066  20.556   4.532  0.00  0.00     0.002 A 
HETATM   13  C   UNK N   1      27.138  20.866   5.889  0.00  0.00     0.000 A 
HETATM   14  C   UNK N   1      27.539  19.891   6.800  0.00  0.00     0.002 A 
HETATM   15  C   UNK N   1      27.864  18.610   6.349  0.00  0.00     0.030 A 
ENDBRANCH   7  10
BRANCH   8  16
HETATM   16  C   UNK N   1      30.641  17.476   4.577  0.00  0.00     0.099 C 
HETATM   17  C   UNK N   1      31.297  17.105   5.892  0.00  0.00     0.014 C 
ENDBRANCH   8  16
ENDBRANCH   2   7
BRANCH   1  18
HETATM   18  C   UNK N   1      24.395  14.533   6.938  0.00  0.00     0.121 C 
BRANCH  18  19
HETATM   19  C   UNK N   1      25.049  13.530   7.877  0.00  0.00     0.058 C 
BRANCH  19  20
HETATM   20  C   UNK N   1      24.065  13.132   8.923  0.00  0.00    -0.057 A 
HETATM   21  C   UNK N   1      22.716  13.500   8.809  0.00  0.00     0.007 A 
HETATM   22  C   UNK N   1      21.808  13.143   9.810  0.00  0.00     0.001 A 
HETATM   23  C   UNK N   1      22.244  12.418  10.923  0.00  0.00     0.000 A 
HETATM   24  C   UNK N   1      23.588  12.046  11.034  0.00  0.00     0.001 A 
HETATM   25  C   UNK N   1      24.497  12.404  10.035  0.00  0.00     0.007 A 
ENDBRANCH  19  20
ENDBRANCH  18  19
ENDBRANCH   1  18
TORSDOF 6
ENDMDL
MODEL 7
REMARK VINA RESULT:      -6.3      7.314     11.970
REMARK  6 active torsions:
REMARK  status: ('A' for Active; 'I' for Inactive)
REMARK    1  A    between atoms: N_2  and  C_9 
REMARK    2  A    between atoms: N_3  and  C_4 
REMARK    3  A    between atoms: N_3  and  C_11 
REMARK       I    between atoms: N_3  and  C_12 
REMARK    4  A    between atoms: C_9  and  C_10 
REMARK    5  A    between atoms: C_10  and  C_13 
REMARK    6  A    between atoms: C_12  and  C_14 
ROOT
HETATM    1  N   UNK N   1      28.135  17.400   4.099  0.00  0.00    -0.412 N 
HETATM    2  C   UNK N   1      29.526  16.643   6.554  0.00  0.00     0.096 C 
HETATM    3  C   UNK N   1      28.882  15.541   5.701  0.00  0.00     0.045 C 
HETATM    4  C   UNK N   1      28.717  17.921   6.442  0.00  0.00     0.045 C 
HETATM    5  C   UNK N   1      28.439  15.969   4.286  0.00  0.00     0.119 C 
HETATM    6  C   UNK N   1      28.760  18.376   4.998  0.00  0.00     0.119 C 
ENDROOT
BRANCH   2   7
HETATM    7  N   UNK N   1      30.986  16.889   6.480  0.00  0.00    -0.313 N 
HETATM    8  C   UNK N   1      31.558  17.494   7.588  0.00  0.00     0.224 C 
HETATM    9  O   UNK N   1      30.871  17.741   8.571  0.00  0.00    -0.273 OA
BRANCH   7  10
HETATM   10  C   UNK N   1      31.781  16.532   5.312  0.00  0.00     0.037 A 
HETATM   11  C   UNK N   1      32.501  15.322   5.254  0.00  0.00     0.030 A 
HETATM   12  C   UNK N   1      33.266  14.980   4.134  0.00  0.00     0.002 A 
HETATM   13  C   UNK N   1      33.334  15.850   3.047  0.00  0.00     0.000 A 
HETATM   14  C   UNK N   1      32.634  17.053   3.079  0.00  0.00     0.002 A 
HETATM   15  C   UNK N   1      31.867  17.381   4.199  0.00  0.00     0.030 A 
ENDBRANCH   7  10
BRANCH   8  16
HETATM   16  C   UNK N   1      32.994  17.942   7.628  0.00  0.00     0.099 C 
HETATM   17  C   UNK N   1      33.813  17.067   8.557  0.00  0.00     0.014 C 
ENDBRANCH   8  16
ENDBRANCH   2   7
BRANCH   1  18
HETATM   18  C   UNK N   1      26.723  17.667   3.846  0.00  0.00     0.121 C 
BRANCH  18  19
HETATM   19  C   UNK N   1      26.359  19.136   4.010  0.00  0.00     0.058 C 
BRANCH  19  20
HETATM   20  C   UNK N   1      24.901  19.305   3.750  0.00  0.00    -0.057 A 
HETATM   21  C   UNK N   1      24.432  20.392   2.999  0.00  0.00     0.007 A 
HETATM   22  C   UNK N   1      23.060  20.553   2.784  0.00  0.00     0.001 A 
HETATM   23  C   UNK N   1      22.156  19.629   3.318  0.00  0.00     0.000 A 
HETATM   24  C   UNK N   1      22.624  18.542   4.063  0.00  0.00     0.001 A 
HETATM   25  C   UNK N   1      23.995  18.381   4.280  0.00  0.00     0.007 A 
ENDBRANCH  19  20
ENDBRANCH  18  19
ENDBRANCH   1  18
TORSDOF 6
ENDMDL
MODEL 8
REMARK VINA RESULT:      -6.2      7.961     12.522
REMARK  6 active torsions:
REMARK  status: ('A' for Active; 'I' for Inactive)
REMARK    1  A    between atoms: N_2  and  C_9 
REMARK    2  A    between atoms: N_3  and  C_4 
REMARK    3  A    between atoms: N_3  and  C_11 
REMARK       I    between atoms: N_3  and  C_12 
REMARK    4  A    between atoms: C_9  and  C_10 
REMARK    5  A    between atoms: C_10  and  C_13 
REMARK    6  A    between atoms: C_12  and  C_14 
ROOT
HETATM    1  N   UNK N   1      27.109  18.645   5.165  0.00  0.00    -0.412 N 
HETATM    2  C   UNK N   1      28.506  17.531   7.478  0.00  0.00     0.096 C 
HETATM    3  C   UNK N   1      27.433  16.681   6.783  0.00  0.00     0.045 C 
HETATM    4  C   UNK N   1      28.140  19.001   7.381  0.00  0.00     0.045 C 
HETATM    5  C   UNK N   1      26.962  17.198   5.406  0.00  0.00     0.119 C 
HETATM    6  C   UNK N   1      28.129  19.385   5.916  0.00  0.00     0.119 C 
ENDROOT
BRANCH   2   7
HETATM    7  N   UNK N   1      29.944  17.288   7.211  0.00  0.00    -0.313 N 
HETATM    8  C   UNK N   1      30.826  17.727   8.185  0.00  0.00     0.224 C 
HETATM    9  O   UNK N   1      30.396  18.228   9.216  0.00  0.00    -0.273 OA
BRANCH   7  10
HETATM   10  C   UNK N   1      30.413  16.639   5.994  0.00  0.00     0.037 A 
HETATM   11  C   UNK N   1      30.731  17.380   4.838  0.00  0.00     0.030 A 
HETATM   12  C   UNK N   1      31.178  16.756   3.670  0.00  0.00     0.002 A 
HETATM   13  C   UNK N   1      31.311  15.369   3.629  0.00  0.00     0.000 A 
HETATM   14  C   UNK N   1      31.003  14.612   4.756  0.00  0.00     0.002 A 
HETATM   15  C   UNK N   1      30.563  15.246   5.921  0.00  0.00     0.030 A 
ENDBRANCH   7  10
BRANCH   8  16
HETATM   16  C   UNK N   1      32.320  17.686   8.016  0.00  0.00     0.099 C 
HETATM   17  C   UNK N   1      32.914  16.467   8.695  0.00  0.00     0.014 C 
ENDBRANCH   8  16
ENDBRANCH   2   7
BRANCH   1  18
HETATM   18  C   UNK N   1      25.836  19.351   5.068  0.00  0.00     0.121 C 
BRANCH  18  19
HETATM   19  C   UNK N   1      25.407  19.607   3.631  0.00  0.00     0.058 C 
BRANCH  19  20
HETATM   20  C   UNK N   1      23.918  19.596   3.561  0.00  0.00    -0.057 A 
HETATM   21  C   UNK N   1      23.179  18.622   4.246  0.00  0.00     0.007 A 
HETATM   22  C   UNK N   1      21.785  18.607   4.151  0.00  0.00     0.001 A 
HETATM   23  C   UNK N   1      21.127  19.566   3.373  0.00  0.00     0.000 A 
HETATM   24  C   UNK N   1      21.864  20.541   2.694  0.00  0.00     0.001 A 
HETATM   25  C   UNK N   1      23.258  20.555   2.787  0.00  0.00     0.007 A 
ENDBRANCH  19  20
ENDBRANCH  18  19
ENDBRANCH   1  18
TORSDOF 6
ENDMDL
MODEL 9
REMARK VINA RESULT:      -6.2      5.120      9.293
REMARK  6 active torsions:
REMARK  status: ('A' for Active; 'I' for Inactive)
REMARK    1  A    between atoms: N_2  and  C_9 
REMARK    2  A    between atoms: N_3  and  C_4 
REMARK    3  A    between atoms: N_3  and  C_11 
REMARK       I    between atoms: N_3  and  C_12 
REMARK    4  A    between atoms: C_9  and  C_10 
REMARK    5  A    between atoms: C_10  and  C_13 
REMARK    6  A    between atoms: C_12  and  C_14 
ROOT
HETATM    1  N   UNK N   1      30.821  17.072   7.851  0.00  0.00    -0.412 N 
HETATM    2  C   UNK N   1      33.042  17.097   5.952  0.00  0.00     0.096 C 
HETATM    3  C   UNK N   1      33.211  17.819   7.296  0.00  0.00     0.045 C 
HETATM    4  C   UNK N   1      31.593  17.170   5.507  0.00  0.00     0.045 C 
HETATM    5  C   UNK N   1      32.135  17.510   8.358  0.00  0.00     0.119 C 
HETATM    6  C   UNK N   1      30.752  16.436   6.531  0.00  0.00     0.119 C 
ENDROOT
BRANCH   2   7
HETATM    7  N   UNK N   1      33.629  15.751   5.746  0.00  0.00    -0.313 N 
HETATM    8  C   UNK N   1      33.809  15.361   4.428  0.00  0.00     0.224 C 
HETATM    9  O   UNK N   1      33.538  16.137   3.520  0.00  0.00    -0.273 OA
BRANCH   7  10
HETATM   10  C   UNK N   1      33.989  14.878   6.855  0.00  0.00     0.037 A 
HETATM   11  C   UNK N   1      35.290  14.876   7.399  0.00  0.00     0.030 A 
HETATM   12  C   UNK N   1      35.636  14.036   8.461  0.00  0.00     0.002 A 
HETATM   13  C   UNK N   1      34.688  13.168   9.000  0.00  0.00     0.000 A 
HETATM   14  C   UNK N   1      33.396  13.148   8.480  0.00  0.00     0.002 A 
HETATM   15  C   UNK N   1      33.058  13.997   7.424  0.00  0.00     0.030 A 
ENDBRANCH   7  10
BRANCH   8  16
HETATM   16  C   UNK N   1      34.261  13.981   4.036  0.00  0.00     0.099 C 
HETATM   17  C   UNK N   1      33.079  13.091   3.708  0.00  0.00     0.014 C 
ENDBRANCH   8  16
ENDBRANCH   2   7
BRANCH   1  18
HETATM   18  C   UNK N   1      29.754  18.038   8.085  0.00  0.00     0.121 C 
BRANCH  18  19
HETATM   19  C   UNK N   1      28.438  17.639   7.433  0.00  0.00     0.058 C 
BRANCH  19  20
HETATM   20  C   UNK N   1      27.977  18.749   6.553  0.00  0.00    -0.057 A 
HETATM   21  C   UNK N   1      28.002  18.610   5.157  0.00  0.00     0.007 A 
HETATM   22  C   UNK N   1      27.591  19.668   4.342  0.00  0.00     0.001 A 
HETATM   23  C   UNK N   1      27.154  20.866   4.918  0.00  0.00     0.000 A 
HETATM   24  C   UNK N   1      27.124  21.003   6.310  0.00  0.00     0.001 A 
HETATM   25  C   UNK N   1      27.537  19.946   7.125  0.00  0.00     0.007 A 
ENDBRANCH  19  20
ENDBRANCH  18  19
ENDBRANCH   1  18
TORSDOF 6
ENDMDL
