REMARK  5 active torsions:
REMARK  status: ('A' for Active; 'I' for Inactive)
REMARK    1  A    between atoms: C_9  and  O_1 
REMARK    2  A    between atoms: O_1  and  C_22 
REMARK    3  A    between atoms: C_22  and  C_23 
REMARK    4  A    between atoms: C_23  and  C_24 
REMARK    5  A    between atoms: C_24  and  C_25 
ROOT
HETATM    1  O   UNK N   1      -0.589  -4.022  -1.466  0.00  0.00    -0.293 OA
HETATM    2  C   UNK N   1       6.530  -2.094   0.189  0.00  0.00     0.001 C 
HETATM    3  C   UNK N   1       6.573  -0.688   0.787  0.00  0.00    -0.013 C 
HETATM    4  C   UNK N   1       5.169  -2.748   0.452  0.00  0.00    -0.005 C 
HETATM    5  C   UNK N   1       4.009  -1.876  -0.132  0.00  0.00    -0.002 C 
HETATM    6  C   UNK N   1       5.552   0.186   0.055  0.00  0.00     0.012 C 
HETATM    7  C   UNK N   1       8.051  -0.339   0.669  0.00  0.00     0.140 C 
HETATM    8  C   UNK N   1       7.722  -2.783   0.833  0.00  0.00     0.008 C 
HETATM    9  C   UNK N   1       4.140  -0.395   0.300  0.00  0.00     0.006 C 
HETATM   10  C   UNK N   1       2.687  -2.485   0.398  0.00  0.00     0.019 C 
HETATM   11  C   UNK N   1       8.735  -1.657   1.084  0.00  0.00     0.034 C 
HETATM   12  C   UNK N   1       5.084  -4.176  -0.113  0.00  0.00     0.010 C 
HETATM   13  C   UNK N   1       6.247  -0.648   2.293  0.00  0.00     0.018 C 
HETATM   14  C   UNK N   1       3.774  -4.839   0.329  0.00  0.00     0.035 C 
HETATM   15  C   UNK N   1       2.620  -3.951  -0.028  0.00  0.00    -0.072 C 
HETATM   16  C   UNK N   1       1.420  -1.669   0.053  0.00  0.00     0.017 C 
HETATM   17  C   UNK N   1       0.770  -2.101  -1.249  0.00  0.00     0.084 C 
HETATM   18  C   UNK N   1       1.585  -4.454  -0.717  0.00  0.00     0.053 C 
HETATM   19  C   UNK N   1       0.502  -3.568  -1.163  0.00  0.00     0.149 C 
ENDROOT
BRANCH   7  20
HETATM   20  O   UNK N   1       8.423  -0.027  -0.625  0.00  0.00    -0.315 OA
BRANCH  20  21
HETATM   21  C   UNK N   1       9.693   0.332  -0.957  0.00  0.00     0.259 C 
HETATM   22  O   UNK N   1       9.961   0.557  -2.128  0.00  0.00    -0.265 OA
BRANCH  21  23
HETATM   23  C   UNK N   1      10.790   0.454   0.073  0.00  0.00     0.116 C 
BRANCH  23  24
HETATM   24  C   UNK N   1      10.475   1.514   1.127  0.00  0.00     0.048 C 
BRANCH  24  25
HETATM   25  C   UNK N   1      10.340   2.867   0.514  0.00  0.00    -0.058 A 
HETATM   26  C   UNK N   1       9.106   3.524   0.557  0.00  0.00     0.007 A 
HETATM   27  C   UNK N   1       8.962   4.780  -0.038  0.00  0.00     0.001 A 
HETATM   28  C   UNK N   1      10.052   5.379  -0.677  0.00  0.00     0.000 A 
HETATM   29  C   UNK N   1      11.287   4.725  -0.717  0.00  0.00     0.001 A 
HETATM   30  C   UNK N   1      11.432   3.469  -0.122  0.00  0.00     0.007 A 
ENDBRANCH  24  25
ENDBRANCH  23  24
ENDBRANCH  21  23
ENDBRANCH  20  21
ENDBRANCH   7  20
TORSDOF 5
