MODEL 1
REMARK VINA RESULT:      -7.3      0.000      0.000
REMARK  1 active torsions:
REMARK  status: ('A' for Active; 'I' for Inactive)
REMARK    1  A    between atoms: C_8  and  C_11 
ROOT
HETATM    1 Cl   UNK N   1      28.198  17.822   9.372  0.00  0.00    -0.084 Cl
HETATM    2  O   UNK N   1      32.543  16.636   2.607  0.00  0.00    -0.271 OA
HETATM    3  N   UNK N   1      31.926  17.097   4.712  0.00  0.00    -0.320 N 
HETATM    4  N   UNK N   1      29.290  17.042   3.143  0.00  0.00    -0.380 N 
ATOM      5  HN  UNK N   1      28.848  17.296   2.260  1.00  0.00     0.160 HD
HETATM    6  C   UNK N   1      29.531  17.430   5.562  0.00  0.00     0.020 A 
HETATM    7  C   UNK N   1      30.944  17.187   5.766  0.00  0.00     0.049 A 
HETATM    8  C   UNK N   1      28.849  17.610   4.213  0.00  0.00     0.051 C 
HETATM    9  C   UNK N   1      30.351  16.084   3.097  0.00  0.00     0.223 C 
HETATM   10  C   UNK N   1      31.658  16.660   3.452  0.00  0.00     0.241 C 
HETATM   11  C   UNK N   1      28.734  17.614   6.709  0.00  0.00     0.040 A 
HETATM   12  C   UNK N   1      31.429  17.150   7.092  0.00  0.00     0.032 A 
HETATM   13  C   UNK N   1      33.302  17.429   5.030  0.00  0.00     0.159 C 
HETATM   14  C   UNK N   1      29.249  17.557   7.998  0.00  0.00     0.035 A 
HETATM   15  C   UNK N   1      30.598  17.321   8.190  0.00  0.00     0.026 A 
ENDROOT
BRANCH   8  16
HETATM   16  C   UNK N   1      27.559  18.381   4.057  0.00  0.00    -0.009 A 
HETATM   17  C   UNK N   1      27.591  19.788   4.104  0.00  0.00     0.014 A 
HETATM   18  C   UNK N   1      26.426  20.540   3.928  0.00  0.00     0.001 A 
HETATM   19  C   UNK N   1      25.209  19.900   3.690  0.00  0.00     0.000 A 
HETATM   20  C   UNK N   1      25.156  18.507   3.642  0.00  0.00     0.001 A 
HETATM   21  C   UNK N   1      26.319  17.755   3.830  0.00  0.00     0.014 A 
ENDBRANCH   8  16
TORSDOF 1
ENDMDL
MODEL 2
REMARK VINA RESULT:      -6.9      8.548     10.697
REMARK  1 active torsions:
REMARK  status: ('A' for Active; 'I' for Inactive)
REMARK    1  A    between atoms: C_8  and  C_11 
ROOT
HETATM    1 Cl   UNK N   1      20.553  10.946   4.994  0.00  0.00    -0.084 Cl
HETATM    2  O   UNK N   1      20.917  18.744   7.255  0.00  0.00    -0.271 OA
HETATM    3  N   UNK N   1      21.047  16.837   6.083  0.00  0.00    -0.320 N 
HETATM    4  N   UNK N   1      20.585  15.921   8.974  0.00  0.00    -0.380 N 
ATOM      5  HN  UNK N   1      20.820  16.109   9.949  1.00  0.00     0.160 HD
HETATM    6  C   UNK N   1      20.795  14.459   7.005  0.00  0.00     0.020 A 
HETATM    7  C   UNK N   1      20.834  15.418   5.922  0.00  0.00     0.049 A 
HETATM    8  C   UNK N   1      20.949  14.785   8.484  0.00  0.00     0.051 C 
HETATM    9  C   UNK N   1      19.878  16.938   8.260  0.00  0.00     0.223 C 
HETATM   10  C   UNK N   1      20.680  17.545   7.185  0.00  0.00     0.241 C 
HETATM   11  C   UNK N   1      20.703  13.097   6.659  0.00  0.00     0.040 A 
HETATM   12  C   UNK N   1      20.779  14.931   4.597  0.00  0.00     0.032 A 
HETATM   13  C   UNK N   1      21.629  17.572   4.975  0.00  0.00     0.159 C 
HETATM   14  C   UNK N   1      20.638  12.658   5.343  0.00  0.00     0.035 A 
HETATM   15  C   UNK N   1      20.672  13.577   4.309  0.00  0.00     0.026 A 
ENDROOT
BRANCH   8  16
HETATM   16  C   UNK N   1      21.445  13.770   9.487  0.00  0.00    -0.009 A 
HETATM   17  C   UNK N   1      22.823  13.486   9.552  0.00  0.00     0.014 A 
HETATM   18  C   UNK N   1      23.327  12.580  10.489  0.00  0.00     0.001 A 
HETATM   19  C   UNK N   1      22.466  11.952  11.388  0.00  0.00     0.000 A 
HETATM   20  C   UNK N   1      21.097  12.219  11.340  0.00  0.00     0.001 A 
HETATM   21  C   UNK N   1      20.592  13.115  10.394  0.00  0.00     0.014 A 
ENDBRANCH   8  16
TORSDOF 1
ENDMDL
MODEL 3
REMARK VINA RESULT:      -6.5     12.058     13.217
REMARK  1 active torsions:
REMARK  status: ('A' for Active; 'I' for Inactive)
REMARK    1  A    between atoms: C_8  and  C_11 
ROOT
HETATM    1 Cl   UNK N   1      30.902  23.549  -3.642  0.00  0.00    -0.084 Cl
HETATM    2  O   UNK N   1      25.324  21.525  -9.195  0.00  0.00    -0.271 OA
HETATM    3  N   UNK N   1      27.261  21.866  -8.119  0.00  0.00    -0.320 N 
HETATM    4  N   UNK N   1      25.189  23.405  -6.460  0.00  0.00    -0.380 N 
ATOM      5  HN  UNK N   1      24.357  23.992  -6.514  1.00  0.00     0.160 HD
HETATM    6  C   UNK N   1      27.590  23.201  -5.956  0.00  0.00     0.020 A 
HETATM    7  C   UNK N   1      28.028  22.253  -6.959  0.00  0.00     0.049 A 
HETATM    8  C   UNK N   1      26.251  23.925  -5.946  0.00  0.00     0.051 C 
HETATM    9  C   UNK N   1      25.086  22.070  -6.960  0.00  0.00     0.223 C 
HETATM   10  C   UNK N   1      25.901  21.845  -8.164  0.00  0.00     0.241 C 
HETATM   11  C   UNK N   1      28.516  23.559  -4.957  0.00  0.00     0.040 A 
HETATM   12  C   UNK N   1      29.346  21.753  -6.873  0.00  0.00     0.032 A 
HETATM   13  C   UNK N   1      27.980  21.405  -9.292  0.00  0.00     0.159 C 
HETATM   14  C   UNK N   1      29.801  23.033  -4.900  0.00  0.00     0.035 A 
HETATM   15  C   UNK N   1      30.215  22.125  -5.857  0.00  0.00     0.026 A 
ENDROOT
BRANCH   8  16
HETATM   16  C   UNK N   1      26.056  25.251  -5.248  0.00  0.00    -0.009 A 
HETATM   17  C   UNK N   1      25.368  26.283  -5.916  0.00  0.00     0.014 A 
HETATM   18  C   UNK N   1      25.135  27.512  -5.293  0.00  0.00     0.001 A 
HETATM   19  C   UNK N   1      25.573  27.729  -3.987  0.00  0.00     0.000 A 
HETATM   20  C   UNK N   1      26.258  26.720  -3.309  0.00  0.00     0.001 A 
HETATM   21  C   UNK N   1      26.502  25.496  -3.937  0.00  0.00     0.014 A 
ENDBRANCH   8  16
TORSDOF 1
ENDMDL
MODEL 4
REMARK VINA RESULT:      -6.3      2.163      5.906
REMARK  1 active torsions:
REMARK  status: ('A' for Active; 'I' for Inactive)
REMARK    1  A    between atoms: C_8  and  C_11 
ROOT
HETATM    1 Cl   UNK N   1      28.243  17.874   9.382  0.00  0.00    -0.084 Cl
HETATM    2  O   UNK N   1      32.333  16.650   2.466  0.00  0.00    -0.271 OA
HETATM    3  N   UNK N   1      30.719  16.766   4.017  0.00  0.00    -0.320 N 
HETATM    4  N   UNK N   1      33.319  17.150   5.598  0.00  0.00    -0.380 N 
ATOM      5  HN  UNK N   1      34.288  16.844   5.683  1.00  0.00     0.160 HD
HETATM    6  C   UNK N   1      31.038  17.190   6.524  0.00  0.00     0.020 A 
HETATM    7  C   UNK N   1      30.227  17.121   5.327  0.00  0.00     0.049 A 
HETATM    8  C   UNK N   1      32.535  16.922   6.597  0.00  0.00     0.051 C 
HETATM    9  C   UNK N   1      32.937  17.796   4.382  0.00  0.00     0.223 C 
HETATM   10  C   UNK N   1      31.987  17.003   3.586  0.00  0.00     0.241 C 
HETATM   11  C   UNK N   1      30.373  17.429   7.743  0.00  0.00     0.040 A 
HETATM   12  C   UNK N   1      28.832  17.296   5.456  0.00  0.00     0.032 A 
HETATM   13  C   UNK N   1      29.786  16.181   3.072  0.00  0.00     0.159 C 
HETATM   14  C   UNK N   1      28.999  17.609   7.826  0.00  0.00     0.035 A 
HETATM   15  C   UNK N   1      28.226  17.546   6.680  0.00  0.00     0.026 A 
ENDROOT
BRANCH   8  16
HETATM   16  C   UNK N   1      33.213  16.469   7.869  0.00  0.00    -0.009 A 
HETATM   17  C   UNK N   1      33.020  15.148   8.315  0.00  0.00     0.014 A 
HETATM   18  C   UNK N   1      33.658  14.678   9.467  0.00  0.00     0.001 A 
HETATM   19  C   UNK N   1      34.510  15.515  10.186  0.00  0.00     0.000 A 
HETATM   20  C   UNK N   1      34.714  16.829   9.761  0.00  0.00     0.001 A 
HETATM   21  C   UNK N   1      34.066  17.302   8.616  0.00  0.00     0.014 A 
ENDBRANCH   8  16
TORSDOF 1
ENDMDL
MODEL 5
REMARK VINA RESULT:      -6.3      3.159      6.385
REMARK  1 active torsions:
REMARK  status: ('A' for Active; 'I' for Inactive)
REMARK    1  A    between atoms: C_8  and  C_11 
ROOT
HETATM    1 Cl   UNK N   1      31.584  14.313   3.270  0.00  0.00    -0.084 Cl
HETATM    2  O   UNK N   1      27.390  20.056   7.205  0.00  0.00    -0.271 OA
HETATM    3  N   UNK N   1      28.321  18.788   5.607  0.00  0.00    -0.320 N 
HETATM    4  N   UNK N   1      29.739  17.923   8.186  0.00  0.00    -0.380 N 
ATOM      5  HN  UNK N   1      30.128  18.256   9.068  1.00  0.00     0.160 HD
HETATM    6  C   UNK N   1      30.118  16.991   5.939  0.00  0.00     0.020 A 
HETATM    7  C   UNK N   1      29.085  17.646   5.165  0.00  0.00     0.049 A 
HETATM    8  C   UNK N   1      30.553  17.381   7.345  0.00  0.00     0.051 C 
HETATM    9  C   UNK N   1      28.335  18.093   7.981  0.00  0.00     0.223 C 
HETATM   10  C   UNK N   1      28.025  19.052   6.909  0.00  0.00     0.241 C 
HETATM   11  C   UNK N   1      30.851  15.969   5.305  0.00  0.00     0.040 A 
HETATM   12  C   UNK N   1      28.880  17.222   3.833  0.00  0.00     0.032 A 
HETATM   13  C   UNK N   1      27.773  19.677   4.599  0.00  0.00     0.159 C 
HETATM   14  C   UNK N   1      30.610  15.572   3.996  0.00  0.00     0.035 A 
HETATM   15  C   UNK N   1      29.620  16.197   3.259  0.00  0.00     0.026 A 
ENDROOT
BRANCH   8  16
HETATM   16  C   UNK N   1      31.931  17.070   7.879  0.00  0.00    -0.009 A 
HETATM   17  C   UNK N   1      32.978  17.984   7.650  0.00  0.00     0.014 A 
HETATM   18  C   UNK N   1      34.259  17.752   8.157  0.00  0.00     0.001 A 
HETATM   19  C   UNK N   1      34.516  16.608   8.914  0.00  0.00     0.000 A 
HETATM   20  C   UNK N   1      33.493  15.689   9.151  0.00  0.00     0.001 A 
HETATM   21  C   UNK N   1      32.214  15.916   8.633  0.00  0.00     0.014 A 
ENDBRANCH   8  16
TORSDOF 1
ENDMDL
MODEL 6
REMARK VINA RESULT:      -6.3     14.109     15.699
REMARK  1 active torsions:
REMARK  status: ('A' for Active; 'I' for Inactive)
REMARK    1  A    between atoms: C_8  and  C_11 
ROOT
HETATM    1 Cl   UNK N   1      29.315  27.510 -10.384  0.00  0.00    -0.084 Cl
HETATM    2  O   UNK N   1      25.311  28.014  -3.330  0.00  0.00    -0.271 OA
HETATM    3  N   UNK N   1      26.808  28.286  -4.976  0.00  0.00    -0.320 N 
HETATM    4  N   UNK N   1      25.138  25.869  -5.861  0.00  0.00    -0.380 N 
ATOM      5  HN  UNK N   1      24.668  25.025  -5.535  1.00  0.00     0.160 HD
HETATM    6  C   UNK N   1      26.989  26.894  -7.120  0.00  0.00     0.020 A 
HETATM    7  C   UNK N   1      27.285  28.063  -6.320  0.00  0.00     0.049 A 
HETATM    8  C   UNK N   1      26.115  25.724  -6.690  0.00  0.00     0.051 C 
HETATM    9  C   UNK N   1      24.661  27.121  -5.362  0.00  0.00     0.223 C 
HETATM   10  C   UNK N   1      25.634  27.799  -4.491  0.00  0.00     0.241 C 
HETATM   11  C   UNK N   1      27.640  26.779  -8.364  0.00  0.00     0.040 A 
HETATM   12  C   UNK N   1      28.201  29.007  -6.833  0.00  0.00     0.032 A 
HETATM   13  C   UNK N   1      27.594  29.139  -4.103  0.00  0.00     0.159 C 
HETATM   14  C   UNK N   1      28.525  27.738  -8.839  0.00  0.00     0.035 A 
HETATM   15  C   UNK N   1      28.805  28.856  -8.075  0.00  0.00     0.026 A 
ENDROOT
BRANCH   8  16
HETATM   16  C   UNK N   1      26.271  24.341  -7.277  0.00  0.00    -0.009 A 
HETATM   17  C   UNK N   1      27.244  23.474  -6.743  0.00  0.00     0.014 A 
HETATM   18  C   UNK N   1      27.397  22.174  -7.233  0.00  0.00     0.001 A 
HETATM   19  C   UNK N   1      26.572  21.712  -8.258  0.00  0.00     0.000 A 
HETATM   20  C   UNK N   1      25.603  22.555  -8.802  0.00  0.00     0.001 A 
HETATM   21  C   UNK N   1      25.459  23.859  -8.320  0.00  0.00     0.014 A 
ENDBRANCH   8  16
TORSDOF 1
ENDMDL
MODEL 7
REMARK VINA RESULT:      -6.2     11.036     12.665
REMARK  1 active torsions:
REMARK  status: ('A' for Active; 'I' for Inactive)
REMARK    1  A    between atoms: C_8  and  C_11 
ROOT
HETATM    1 Cl   UNK N   1      28.194  22.502  -9.459  0.00  0.00    -0.084 Cl
HETATM    2  O   UNK N   1      30.846  23.065  -1.797  0.00  0.00    -0.271 OA
HETATM    3  N   UNK N   1      30.209  22.284  -3.799  0.00  0.00    -0.320 N 
HETATM    4  N   UNK N   1      29.262  25.202  -3.786  0.00  0.00    -0.380 N 
ATOM      5  HN  UNK N   1      28.852  25.936  -3.209  1.00  0.00     0.160 HD
HETATM    6  C   UNK N   1      29.016  23.604  -5.644  0.00  0.00     0.020 A 
HETATM    7  C   UNK N   1      29.770  22.466  -5.162  0.00  0.00     0.049 A 
HETATM    8  C   UNK N   1      28.581  24.798  -4.805  0.00  0.00     0.051 C 
HETATM    9  C   UNK N   1      30.545  24.702  -3.403  0.00  0.00     0.223 C 
HETATM   10  C   UNK N   1      30.502  23.304  -2.947  0.00  0.00     0.241 C 
HETATM   11  C   UNK N   1      28.560  23.562  -6.976  0.00  0.00     0.040 A 
HETATM   12  C   UNK N   1      30.000  21.394  -6.052  0.00  0.00     0.032 A 
HETATM   13  C   UNK N   1      30.418  20.929  -3.323  0.00  0.00     0.159 C 
HETATM   14  C   UNK N   1      28.818  22.493  -7.824  0.00  0.00     0.035 A 
HETATM   15  C   UNK N   1      29.543  21.408  -7.363  0.00  0.00     0.026 A 
ENDROOT
BRANCH   8  16
HETATM   16  C   UNK N   1      27.383  25.645  -5.166  0.00  0.00    -0.009 A 
HETATM   17  C   UNK N   1      26.090  25.151  -4.906  0.00  0.00     0.014 A 
HETATM   18  C   UNK N   1      24.956  25.917  -5.191  0.00  0.00     0.001 A 
HETATM   19  C   UNK N   1      25.094  27.196  -5.730  0.00  0.00     0.000 A 
HETATM   20  C   UNK N   1      26.366  27.703  -5.997  0.00  0.00     0.001 A 
HETATM   21  C   UNK N   1      27.499  26.932  -5.722  0.00  0.00     0.014 A 
ENDBRANCH   8  16
TORSDOF 1
ENDMDL
MODEL 8
REMARK VINA RESULT:      -6.2      4.332      7.065
REMARK  1 active torsions:
REMARK  status: ('A' for Active; 'I' for Inactive)
REMARK    1  A    between atoms: C_8  and  C_11 
ROOT
HETATM    1 Cl   UNK N   1      23.717  14.298   7.135  0.00  0.00    -0.084 Cl
HETATM    2  O   UNK N   1      22.997  21.044   2.660  0.00  0.00    -0.271 OA
HETATM    3  N   UNK N   1      22.554  19.209   3.869  0.00  0.00    -0.320 N 
HETATM    4  N   UNK N   1      25.553  19.009   3.257  0.00  0.00    -0.380 N 
ATOM      5  HN  UNK N   1      26.264  19.167   2.543  1.00  0.00     0.160 HD
HETATM    6  C   UNK N   1      24.236  17.417   4.596  0.00  0.00     0.020 A 
HETATM    7  C   UNK N   1      22.955  18.086   4.683  0.00  0.00     0.049 A 
HETATM    8  C   UNK N   1      25.371  17.795   3.655  0.00  0.00     0.051 C 
HETATM    9  C   UNK N   1      24.837  20.149   3.738  0.00  0.00     0.223 C 
HETATM   10  C   UNK N   1      23.415  20.132   3.362  0.00  0.00     0.241 C 
HETATM   11  C   UNK N   1      24.414  16.259   5.377  0.00  0.00     0.040 A 
HETATM   12  C   UNK N   1      21.974  17.539   5.539  0.00  0.00     0.032 A 
HETATM   13  C   UNK N   1      21.136  19.409   3.631  0.00  0.00     0.159 C 
HETATM   14  C   UNK N   1      23.428  15.759   6.217  0.00  0.00     0.035 A 
HETATM   15  C   UNK N   1      22.206  16.402   6.301  0.00  0.00     0.026 A 
ENDROOT
BRANCH   8  16
HETATM   16  C   UNK N   1      26.413  16.798   3.206  0.00  0.00    -0.009 A 
HETATM   17  C   UNK N   1      26.047  15.784   2.300  0.00  0.00     0.014 A 
HETATM   18  C   UNK N   1      26.989  14.863   1.832  0.00  0.00     0.001 A 
HETATM   19  C   UNK N   1      28.317  14.947   2.250  0.00  0.00     0.000 A 
HETATM   20  C   UNK N   1      28.700  15.944   3.148  0.00  0.00     0.001 A 
HETATM   21  C   UNK N   1      27.755  16.856   3.626  0.00  0.00     0.014 A 
ENDBRANCH   8  16
TORSDOF 1
ENDMDL
MODEL 9
REMARK VINA RESULT:      -5.9      7.162      8.759
REMARK  1 active torsions:
REMARK  status: ('A' for Active; 'I' for Inactive)
REMARK    1  A    between atoms: C_8  and  C_11 
ROOT
HETATM    1 Cl   UNK N   1      25.990  15.766   4.769  0.00  0.00    -0.084 Cl
HETATM    2  O   UNK N   1      19.581  14.257   9.534  0.00  0.00    -0.271 OA
HETATM    3  N   UNK N   1      21.480  14.059   8.359  0.00  0.00    -0.320 N 
HETATM    4  N   UNK N   1      20.253  16.696   7.381  0.00  0.00    -0.380 N 
ATOM      5  HN  UNK N   1      19.378  17.161   7.140  1.00  0.00     0.160 HD
HETATM    6  C   UNK N   1      22.394  15.730   6.644  0.00  0.00     0.020 A 
HETATM    7  C   UNK N   1      22.536  14.598   7.535  0.00  0.00     0.049 A 
HETATM    8  C   UNK N   1      21.125  16.546   6.443  0.00  0.00     0.051 C 
HETATM    9  C   UNK N   1      20.415  16.260   8.733  0.00  0.00     0.223 C 
HETATM   10  C   UNK N   1      20.451  14.794   8.861  0.00  0.00     0.241 C 
HETATM   11  C   UNK N   1      23.492  16.045   5.819  0.00  0.00     0.040 A 
HETATM   12  C   UNK N   1      23.757  13.888   7.522  0.00  0.00     0.032 A 
HETATM   13  C   UNK N   1      21.552  12.659   8.733  0.00  0.00     0.159 C 
HETATM   14  C   UNK N   1      24.681  15.328   5.845  0.00  0.00     0.035 A 
HETATM   15  C   UNK N   1      24.816  14.250   6.700  0.00  0.00     0.026 A 
ENDROOT
BRANCH   8  16
HETATM   16  C   UNK N   1      20.851  17.313   5.170  0.00  0.00    -0.009 A 
HETATM   17  C   UNK N   1      21.277  18.651   5.070  0.00  0.00     0.014 A 
HETATM   18  C   UNK N   1      21.076  19.385   3.898  0.00  0.00     0.001 A 
HETATM   19  C   UNK N   1      20.458  18.790   2.798  0.00  0.00     0.000 A 
HETATM   20  C   UNK N   1      20.028  17.465   2.876  0.00  0.00     0.001 A 
HETATM   21  C   UNK N   1      20.218  16.736   4.054  0.00  0.00     0.014 A 
ENDBRANCH   8  16
TORSDOF 1
ENDMDL
