REMARK  7 active torsions:
REMARK  status: ('A' for Active; 'I' for Inactive)
REMARK    1  A    between atoms: O_1  and  C_11 
REMARK    2  A    between atoms: N_3  and  C_8 
REMARK    3  A    between atoms: C_4  and  C_5 
REMARK    4  A    between atoms: C_4  and  C_7 
REMARK    5  A    between atoms: C_4  and  C_8 
REMARK    6  A    between atoms: C_5  and  C_6 
REMARK    7  A    between atoms: C_7  and  C_11 
ROOT
HETATM    1  C   UNK N   1       2.746  -0.129   0.094  0.00  0.00     0.013 C 
ENDROOT
BRANCH   1   2
HETATM    2  C   UNK N   1       1.512   0.673  -0.324  0.00  0.00     0.010 C 
BRANCH   2   3
HETATM    3  C   UNK N   1       1.395   2.022   0.379  0.00  0.00    -0.022 C 
HETATM    4  C   UNK N   1       0.031   2.608   0.082  0.00  0.00     0.009 C 
HETATM    5  C   UNK N   1       2.451   2.999  -0.106  0.00  0.00     0.009 C 
ENDBRANCH   2   3
ENDBRANCH   1   2
BRANCH   1   6
HETATM    6  C   UNK N   1       3.978   0.415  -0.627  0.00  0.00     0.116 C 
BRANCH   6   7
HETATM    7  C   UNK N   1       5.267  -0.051  -0.022  0.00  0.00     0.139 C 
HETATM    8  O   UNK N   1       5.515  -1.242   0.066  0.00  0.00    -0.650 OA
BRANCH   7   9
HETATM    9  O   UNK N   1       6.176   0.854   0.385  0.00  0.00    -0.776 OA
HETATM   10  H   UNK N   1       7.039   0.620   0.668  0.00  0.00     0.167 HD
ENDBRANCH   7   9
ENDBRANCH   6   7
ENDBRANCH   1   6
BRANCH   1  11
HETATM   11  C   UNK N   1       2.551  -1.586  -0.313  0.00  0.00     0.116 C 
BRANCH  11  12
HETATM   12  N   UNK N   1       1.417  -2.170   0.384  0.00  0.00    -0.430 N 
HETATM   13  H   UNK N   1       0.663  -1.686   0.872  0.00  0.00     0.149 HD
HETATM   14  H   UNK N   1       1.368  -3.189   0.384  0.00  0.00     0.149 HD
ENDBRANCH  11  12
ENDBRANCH   1  11
TORSDOF 7
