MODEL 1
REMARK VINA RESULT:      -7.6      0.000      0.000
REMARK  1 active torsions:
REMARK  status: ('A' for Active; 'I' for Inactive)
REMARK    1  A    between atoms: C_12  and  C_17 
ROOT
HETATM    1 Cl   UNK N   1      27.877  17.924   9.398  0.00  0.00    -0.084 Cl
HETATM    2  N   UNK N   1      31.628  16.865   4.822  0.00  0.00    -0.301 N 
HETATM    3  N   UNK N   1      29.049  16.999   3.175  0.00  0.00    -0.383 N 
ATOM      4  HN  UNK N   1      28.613  17.288   2.299  1.00  0.00     0.160 HD
HETATM    5  N   UNK N   1      33.580  16.688   3.725  0.00  0.00    -0.354 N 
ATOM      6  HN  UNK N   1      34.579  16.715   3.520  1.00  0.00     0.166 HD
HETATM    7  C   UNK N   1      30.651  17.074   5.870  0.00  0.00     0.053 A 
HETATM    8  C   UNK N   1      31.392  16.471   3.568  0.00  0.00     0.051 A 
HETATM    9  C   UNK N   1      29.259  17.384   5.624  0.00  0.00     0.020 A 
HETATM   10  C   UNK N   1      30.091  16.021   3.068  0.00  0.00     0.179 C 
HETATM   11  C   UNK N   1      28.594  17.558   4.249  0.00  0.00     0.054 C 
HETATM   12  C   UNK N   1      32.980  16.976   4.897  0.00  0.00     0.084 A 
HETATM   13  C   UNK N   1      32.583  16.359   2.883  0.00  0.00     0.116 A 
HETATM   14  C   UNK N   1      31.112  17.043   7.200  0.00  0.00     0.032 A 
HETATM   15  C   UNK N   1      28.455  17.630   6.754  0.00  0.00     0.040 A 
HETATM   16  C   UNK N   1      33.759  17.368   6.109  0.00  0.00     0.089 C 
HETATM   17  C   UNK N   1      30.273  17.287   8.280  0.00  0.00     0.026 A 
HETATM   18  C   UNK N   1      28.942  17.581   8.053  0.00  0.00     0.035 A 
ENDROOT
BRANCH  11  19
HETATM   19  C   UNK N   1      27.286  18.328   4.086  0.00  0.00     0.030 A 
HETATM   20  C   UNK N   1      27.250  19.749   4.172  0.00  0.00     0.128 A 
HETATM   21  F   UNK N   1      28.364  20.475   4.436  0.00  0.00    -0.205 F 
HETATM   22  C   UNK N   1      26.051  20.443   3.970  0.00  0.00     0.043 A 
HETATM   23  C   UNK N   1      24.873  19.757   3.683  0.00  0.00     0.003 A 
HETATM   24  C   UNK N   1      24.884  18.367   3.609  0.00  0.00     0.001 A 
HETATM   25  C   UNK N   1      26.074  17.667   3.810  0.00  0.00     0.017 A 
ENDBRANCH  11  19
TORSDOF 1
ENDMDL
MODEL 2
REMARK VINA RESULT:      -7.2      3.205      6.844
REMARK  1 active torsions:
REMARK  status: ('A' for Active; 'I' for Inactive)
REMARK    1  A    between atoms: C_12  and  C_17 
ROOT
HETATM    1 Cl   UNK N   1      31.883  14.696   3.550  0.00  0.00    -0.084 Cl
HETATM    2  N   UNK N   1      28.308  18.824   6.065  0.00  0.00    -0.301 N 
HETATM    3  N   UNK N   1      29.935  18.152   8.572  0.00  0.00    -0.383 N 
ATOM      4  HN  UNK N   1      30.366  18.506   9.426  1.00  0.00     0.160 HD
HETATM    5  N   UNK N   1      26.835  20.515   6.177  0.00  0.00    -0.354 N 
ATOM      6  HN  UNK N   1      26.198  21.261   5.898  1.00  0.00     0.166 HD
HETATM    7  C   UNK N   1      29.177  17.785   5.551  0.00  0.00     0.053 A 
HETATM    8  C   UNK N   1      28.060  19.105   7.347  0.00  0.00     0.051 A 
HETATM    9  C   UNK N   1      30.287  17.224   6.291  0.00  0.00     0.020 A 
HETATM   10  C   UNK N   1      28.512  18.293   8.479  0.00  0.00     0.179 C 
HETATM   11  C   UNK N   1      30.738  17.629   7.704  0.00  0.00     0.054 C 
HETATM   12  C   UNK N   1      27.532  19.693   5.367  0.00  0.00     0.084 A 
HETATM   13  C   UNK N   1      27.157  20.142   7.430  0.00  0.00     0.116 A 
HETATM   14  C   UNK N   1      28.963  17.358   4.226  0.00  0.00     0.032 A 
HETATM   15  C   UNK N   1      31.079  16.272   5.620  0.00  0.00     0.040 A 
HETATM   16  C   UNK N   1      27.426  19.771   3.880  0.00  0.00     0.089 C 
HETATM   17  C   UNK N   1      29.771  16.410   3.615  0.00  0.00     0.026 A 
HETATM   18  C   UNK N   1      30.832  15.867   4.315  0.00  0.00     0.035 A 
ENDROOT
BRANCH  11  19
HETATM   19  C   UNK N   1      32.152  17.344   8.203  0.00  0.00     0.030 A 
HETATM   20  C   UNK N   1      32.458  16.148   8.913  0.00  0.00     0.128 A 
HETATM   21  F   UNK N   1      31.504  15.230   9.206  0.00  0.00    -0.205 F 
HETATM   22  C   UNK N   1      33.770  15.878   9.320  0.00  0.00     0.043 A 
HETATM   23  C   UNK N   1      34.798  16.775   9.039  0.00  0.00     0.003 A 
HETATM   24  C   UNK N   1      34.519  17.956   8.359  0.00  0.00     0.001 A 
HETATM   25  C   UNK N   1      33.214  18.234   7.951  0.00  0.00     0.017 A 
ENDBRANCH  11  19
TORSDOF 1
ENDMDL
MODEL 3
REMARK VINA RESULT:      -7.1      8.736     10.701
REMARK  1 active torsions:
REMARK  status: ('A' for Active; 'I' for Inactive)
REMARK    1  A    between atoms: C_12  and  C_17 
ROOT
HETATM    1 Cl   UNK N   1      20.820  10.074   5.636  0.00  0.00    -0.084 Cl
HETATM    2  N   UNK N   1      21.192  16.071   5.840  0.00  0.00    -0.301 N 
HETATM    3  N   UNK N   1      21.185  15.588   8.865  0.00  0.00    -0.383 N 
ATOM      4  HN  UNK N   1      21.545  15.880   9.773  1.00  0.00     0.160 HD
HETATM    5  N   UNK N   1      21.527  18.165   5.100  0.00  0.00    -0.354 N 
ATOM      6  HN  UNK N   1      21.751  18.948   4.486  1.00  0.00     0.166 HD
HETATM    7  C   UNK N   1      21.055  14.630   5.881  0.00  0.00     0.053 A 
HETATM    8  C   UNK N   1      20.986  16.929   6.843  0.00  0.00     0.051 A 
HETATM    9  C   UNK N   1      21.171  13.844   7.091  0.00  0.00     0.020 A 
HETATM   10  C   UNK N   1      20.423  16.566   8.145  0.00  0.00     0.179 C 
HETATM   11  C   UNK N   1      21.468  14.380   8.501  0.00  0.00     0.054 C 
HETATM   12  C   UNK N   1      21.507  16.856   4.777  0.00  0.00     0.084 A 
HETATM   13  C   UNK N   1      21.190  18.218   6.402  0.00  0.00     0.116 A 
HETATM   14  C   UNK N   1      20.871  13.961   4.656  0.00  0.00     0.032 A 
HETATM   15  C   UNK N   1      21.084  12.445   6.949  0.00  0.00     0.040 A 
HETATM   16  C   UNK N   1      21.806  16.378   3.395  0.00  0.00     0.089 C 
HETATM   17  C   UNK N   1      20.785  12.578   4.573  0.00  0.00     0.026 A 
HETATM   18  C   UNK N   1      20.892  11.820   5.724  0.00  0.00     0.035 A 
ENDROOT
BRANCH  11  19
HETATM   19  C   UNK N   1      22.032  13.478   9.596  0.00  0.00     0.030 A 
HETATM   20  C   UNK N   1      21.186  12.900  10.586  0.00  0.00     0.128 A 
HETATM   21  F   UNK N   1      19.854  13.153  10.620  0.00  0.00    -0.205 F 
HETATM   22  C   UNK N   1      21.711  12.035  11.553  0.00  0.00     0.043 A 
HETATM   23  C   UNK N   1      23.069  11.725  11.565  0.00  0.00     0.003 A 
HETATM   24  C   UNK N   1      23.915  12.290  10.616  0.00  0.00     0.001 A 
HETATM   25  C   UNK N   1      23.401  13.155   9.649  0.00  0.00     0.017 A 
ENDBRANCH  11  19
TORSDOF 1
ENDMDL
MODEL 4
REMARK VINA RESULT:      -6.8      5.873      8.403
REMARK  1 active torsions:
REMARK  status: ('A' for Active; 'I' for Inactive)
REMARK    1  A    between atoms: C_12  and  C_17 
ROOT
HETATM    1 Cl   UNK N   1      37.133  13.633   4.797  0.00  0.00    -0.084 Cl
HETATM    2  N   UNK N   1      36.515  14.352  10.733  0.00  0.00    -0.301 N 
HETATM    3  N   UNK N   1      34.350  16.346   9.882  0.00  0.00    -0.383 N 
ATOM      4  HN  UNK N   1      33.435  16.745  10.087  1.00  0.00     0.160 HD
HETATM    5  N   UNK N   1      36.744  13.903  12.922  0.00  0.00    -0.354 N 
ATOM      6  HN  UNK N   1      37.005  13.436  13.790  1.00  0.00     0.166 HD
HETATM    7  C   UNK N   1      36.631  14.275   9.292  0.00  0.00     0.053 A 
HETATM    8  C   UNK N   1      35.901  15.303  11.442  0.00  0.00     0.051 A 
HETATM    9  C   UNK N   1      35.705  14.903   8.374  0.00  0.00     0.020 A 
HETATM   10  C   UNK N   1      35.362  16.542  10.879  0.00  0.00     0.179 C 
HETATM   11  C   UNK N   1      34.461  15.723   8.754  0.00  0.00     0.054 C 
HETATM   12  C   UNK N   1      37.038  13.513  11.665  0.00  0.00     0.084 A 
HETATM   13  C   UNK N   1      36.033  15.039  12.788  0.00  0.00     0.116 A 
HETATM   14  C   UNK N   1      37.668  13.479   8.767  0.00  0.00     0.032 A 
HETATM   15  C   UNK N   1      35.917  14.671   7.001  0.00  0.00     0.040 A 
HETATM   16  C   UNK N   1      37.848  12.291  11.386  0.00  0.00     0.089 C 
HETATM   17  C   UNK N   1      37.836  13.290   7.402  0.00  0.00     0.026 A 
HETATM   18  C   UNK N   1      36.957  13.888   6.519  0.00  0.00     0.035 A 
ENDROOT
BRANCH  11  19
HETATM   19  C   UNK N   1      33.313  15.935   7.771  0.00  0.00     0.030 A 
HETATM   20  C   UNK N   1      33.239  17.105   6.962  0.00  0.00     0.128 A 
HETATM   21  F   UNK N   1      34.162  18.094   7.054  0.00  0.00    -0.205 F 
HETATM   22  C   UNK N   1      32.207  17.261   6.029  0.00  0.00     0.043 A 
HETATM   23  C   UNK N   1      31.234  16.275   5.877  0.00  0.00     0.003 A 
HETATM   24  C   UNK N   1      31.280  15.131   6.667  0.00  0.00     0.001 A 
HETATM   25  C   UNK N   1      32.304  14.968   7.600  0.00  0.00     0.017 A 
ENDBRANCH  11  19
TORSDOF 1
ENDMDL
MODEL 5
REMARK VINA RESULT:      -6.8      2.269      5.734
REMARK  1 active torsions:
REMARK  status: ('A' for Active; 'I' for Inactive)
REMARK    1  A    between atoms: C_12  and  C_17 
ROOT
HETATM    1 Cl   UNK N   1      27.550  21.358   5.983  0.00  0.00    -0.084 Cl
HETATM    2  N   UNK N   1      26.907  16.082   3.174  0.00  0.00    -0.301 N 
HETATM    3  N   UNK N   1      29.921  15.877   3.682  0.00  0.00    -0.383 N 
ATOM      4  HN  UNK N   1      30.705  15.267   3.912  1.00  0.00     0.160 HD
HETATM    5  N   UNK N   1      25.855  14.302   2.297  0.00  0.00    -0.354 N 
ATOM      6  HN  UNK N   1      25.115  13.656   2.024  1.00  0.00     0.166 HD
HETATM    7  C   UNK N   1      27.158  17.355   3.817  0.00  0.00     0.053 A 
HETATM    8  C   UNK N   1      27.811  15.259   2.637  0.00  0.00     0.051 A 
HETATM    9  C   UNK N   1      28.419  17.713   4.431  0.00  0.00     0.020 A 
HETATM   10  C   UNK N   1      29.229  15.581   2.462  0.00  0.00     0.179 C 
HETATM   11  C   UNK N   1      29.671  16.827   4.524  0.00  0.00     0.054 C 
HETATM   12  C   UNK N   1      25.713  15.480   2.939  0.00  0.00     0.084 A 
HETATM   13  C   UNK N   1      27.179  14.161   2.096  0.00  0.00     0.116 A 
HETATM   14  C   UNK N   1      26.082  18.260   3.906  0.00  0.00     0.032 A 
HETATM   15  C   UNK N   1      28.477  18.963   5.078  0.00  0.00     0.040 A 
HETATM   16  C   UNK N   1      24.373  16.014   3.323  0.00  0.00     0.089 C 
HETATM   17  C   UNK N   1      26.196  19.484   4.550  0.00  0.00     0.026 A 
HETATM   18  C   UNK N   1      27.397  19.835   5.137  0.00  0.00     0.035 A 
ENDROOT
BRANCH  11  19
HETATM   19  C   UNK N   1      30.755  17.082   5.568  0.00  0.00     0.030 A 
HETATM   20  C   UNK N   1      30.471  17.010   6.962  0.00  0.00     0.128 A 
HETATM   21  F   UNK N   1      29.223  16.747   7.420  0.00  0.00    -0.205 F 
HETATM   22  C   UNK N   1      31.487  17.197   7.905  0.00  0.00     0.043 A 
HETATM   23  C   UNK N   1      32.794  17.458   7.498  0.00  0.00     0.003 A 
HETATM   24  C   UNK N   1      33.091  17.546   6.142  0.00  0.00     0.001 A 
HETATM   25  C   UNK N   1      32.083  17.363   5.194  0.00  0.00     0.017 A 
ENDBRANCH  11  19
TORSDOF 1
ENDMDL
MODEL 6
REMARK VINA RESULT:      -6.7      2.857      6.449
REMARK  1 active torsions:
REMARK  status: ('A' for Active; 'I' for Inactive)
REMARK    1  A    between atoms: C_12  and  C_17 
ROOT
HETATM    1 Cl   UNK N   1      29.312  14.113   2.850  0.00  0.00    -0.084 Cl
HETATM    2  N   UNK N   1      27.587  19.188   5.572  0.00  0.00    -0.301 N 
HETATM    3  N   UNK N   1      29.528  18.235   7.742  0.00  0.00    -0.383 N 
ATOM      4  HN  UNK N   1      30.220  18.503   8.440  1.00  0.00     0.160 HD
HETATM    5  N   UNK N   1      26.658  21.220   5.797  0.00  0.00    -0.354 N 
ATOM      6  HN  UNK N   1      26.184  22.096   5.574  1.00  0.00     0.166 HD
HETATM    7  C   UNK N   1      28.020  17.926   5.008  0.00  0.00     0.053 A 
HETATM    8  C   UNK N   1      27.723  19.595   6.836  0.00  0.00     0.051 A 
HETATM    9  C   UNK N   1      29.092  17.124   5.558  0.00  0.00     0.020 A 
HETATM   10  C   UNK N   1      28.205  18.753   7.933  0.00  0.00     0.179 C 
HETATM   11  C   UNK N   1      29.947  17.466   6.789  0.00  0.00     0.054 C 
HETATM   12  C   UNK N   1      26.916  20.197   4.958  0.00  0.00     0.084 A 
HETATM   13  C   UNK N   1      27.158  20.842   6.988  0.00  0.00     0.116 A 
HETATM   14  C   UNK N   1      27.402  17.503   3.816  0.00  0.00     0.032 A 
HETATM   15  C   UNK N   1      29.438  15.958   4.849  0.00  0.00     0.040 A 
HETATM   16  C   UNK N   1      26.490  20.221   3.527  0.00  0.00     0.089 C 
HETATM   17  C   UNK N   1      27.779  16.338   3.160  0.00  0.00     0.026 A 
HETATM   18  C   UNK N   1      28.800  15.565   3.680  0.00  0.00     0.035 A 
ENDROOT
BRANCH  11  19
HETATM   19  C   UNK N   1      31.319  16.833   7.010  0.00  0.00     0.030 A 
HETATM   20  C   UNK N   1      32.398  17.076   6.113  0.00  0.00     0.128 A 
HETATM   21  F   UNK N   1      32.246  17.849   5.010  0.00  0.00    -0.205 F 
HETATM   22  C   UNK N   1      33.662  16.529   6.358  0.00  0.00     0.043 A 
HETATM   23  C   UNK N   1      33.887  15.736   7.481  0.00  0.00     0.003 A 
HETATM   24  C   UNK N   1      32.843  15.475   8.363  0.00  0.00     0.001 A 
HETATM   25  C   UNK N   1      31.578  16.015   8.126  0.00  0.00     0.017 A 
ENDBRANCH  11  19
TORSDOF 1
ENDMDL
MODEL 7
REMARK VINA RESULT:      -6.7      4.802      8.256
REMARK  1 active torsions:
REMARK  status: ('A' for Active; 'I' for Inactive)
REMARK    1  A    between atoms: C_12  and  C_17 
ROOT
HETATM    1 Cl   UNK N   1      24.545  14.444   7.188  0.00  0.00    -0.084 Cl
HETATM    2  N   UNK N   1      21.117  17.206   3.093  0.00  0.00    -0.301 N 
HETATM    3  N   UNK N   1      23.038  19.535   3.613  0.00  0.00    -0.383 N 
ATOM      4  HN  UNK N   1      23.547  20.322   3.213  1.00  0.00     0.160 HD
HETATM    5  N   UNK N   1      19.601  17.426   1.451  0.00  0.00    -0.354 N 
ATOM      6  HN  UNK N   1      18.910  17.196   0.738  1.00  0.00     0.166 HD
HETATM    7  C   UNK N   1      21.963  16.632   4.120  0.00  0.00     0.053 A 
HETATM    8  C   UNK N   1      21.003  18.497   2.773  0.00  0.00     0.051 A 
HETATM    9  C   UNK N   1      23.169  17.261   4.615  0.00  0.00     0.020 A 
HETATM   10  C   UNK N   1      21.609  19.598   3.525  0.00  0.00     0.179 C 
HETATM   11  C   UNK N   1      23.758  18.600   4.141  0.00  0.00     0.054 C 
HETATM   12  C   UNK N   1      20.235  16.571   2.279  0.00  0.00     0.084 A 
HETATM   13  C   UNK N   1      20.075  18.647   1.765  0.00  0.00     0.116 A 
HETATM   14  C   UNK N   1      21.619  15.355   4.604  0.00  0.00     0.032 A 
HETATM   15  C   UNK N   1      23.917  16.538   5.563  0.00  0.00     0.040 A 
HETATM   16  C   UNK N   1      19.962  15.103   2.260  0.00  0.00     0.089 C 
HETATM   17  C   UNK N   1      22.390  14.689   5.546  0.00  0.00     0.026 A 
HETATM   18  C   UNK N   1      23.542  15.283   6.026  0.00  0.00     0.035 A 
ENDROOT
BRANCH  11  19
HETATM   19  C   UNK N   1      25.229  18.946   4.359  0.00  0.00     0.030 A 
HETATM   20  C   UNK N   1      26.265  18.217   3.707  0.00  0.00     0.128 A 
HETATM   21  F   UNK N   1      25.993  17.165   2.896  0.00  0.00    -0.205 F 
HETATM   22  C   UNK N   1      27.606  18.579   3.878  0.00  0.00     0.043 A 
HETATM   23  C   UNK N   1      27.951  19.658   4.689  0.00  0.00     0.003 A 
HETATM   24  C   UNK N   1      26.956  20.376   5.346  0.00  0.00     0.001 A 
HETATM   25  C   UNK N   1      25.616  20.020   5.183  0.00  0.00     0.017 A 
ENDBRANCH  11  19
TORSDOF 1
ENDMDL
MODEL 8
REMARK VINA RESULT:      -6.6     11.809     13.447
REMARK  1 active torsions:
REMARK  status: ('A' for Active; 'I' for Inactive)
REMARK    1  A    between atoms: C_12  and  C_17 
ROOT
HETATM    1 Cl   UNK N   1      30.822  23.765  -2.938  0.00  0.00    -0.084 Cl
HETATM    2  N   UNK N   1      27.536  21.983  -7.646  0.00  0.00    -0.301 N 
HETATM    3  N   UNK N   1      25.563  24.066  -6.572  0.00  0.00    -0.383 N 
ATOM      4  HN  UNK N   1      24.874  24.782  -6.802  1.00  0.00     0.160 HD
HETATM    5  N   UNK N   1      27.068  20.989  -9.605  0.00  0.00    -0.354 N 
ATOM      6  HN  UNK N   1      27.181  20.471 -10.476  1.00  0.00     0.166 HD
HETATM    7  C   UNK N   1      28.240  22.436  -6.465  0.00  0.00     0.053 A 
HETATM    8  C   UNK N   1      26.245  22.167  -7.934  0.00  0.00     0.051 A 
HETATM    9  C   UNK N   1      27.823  23.564  -5.660  0.00  0.00     0.020 A 
HETATM   10  C   UNK N   1      25.260  22.736  -7.012  0.00  0.00     0.179 C 
HETATM   11  C   UNK N   1      26.605  24.466  -5.919  0.00  0.00     0.054 C 
HETATM   12  C   UNK N   1      28.015  21.244  -8.680  0.00  0.00     0.084 A 
HETATM   13  C   UNK N   1      25.944  21.562  -9.135  0.00  0.00     0.116 A 
HETATM   14  C   UNK N   1      29.439  21.776  -6.132  0.00  0.00     0.032 A 
HETATM   15  C   UNK N   1      28.658  23.920  -4.584  0.00  0.00     0.040 A 
HETATM   16  C   UNK N   1      29.416  20.747  -8.824  0.00  0.00     0.089 C 
HETATM   17  C   UNK N   1      30.223  22.164  -5.054  0.00  0.00     0.026 A 
HETATM   18  C   UNK N   1      29.830  23.239  -4.280  0.00  0.00     0.035 A 
ENDROOT
BRANCH  11  19
HETATM   19  C   UNK N   1      26.511  25.871  -5.328  0.00  0.00     0.030 A 
HETATM   20  C   UNK N   1      26.827  27.022  -6.104  0.00  0.00     0.128 A 
HETATM   21  F   UNK N   1      27.257  26.920  -7.386  0.00  0.00    -0.205 F 
HETATM   22  C   UNK N   1      26.687  28.305  -5.563  0.00  0.00     0.043 A 
HETATM   23  C   UNK N   1      26.238  28.478  -4.255  0.00  0.00     0.003 A 
HETATM   24  C   UNK N   1      25.938  27.366  -3.475  0.00  0.00     0.001 A 
HETATM   25  C   UNK N   1      26.075  26.083  -4.006  0.00  0.00     0.017 A 
ENDBRANCH  11  19
TORSDOF 1
ENDMDL
MODEL 9
REMARK VINA RESULT:      -6.6     10.814     13.387
REMARK  1 active torsions:
REMARK  status: ('A' for Active; 'I' for Inactive)
REMARK    1  A    between atoms: C_12  and  C_17 
ROOT
HETATM    1 Cl   UNK N   1      28.913  20.372  -8.808  0.00  0.00    -0.084 Cl
HETATM    2  N   UNK N   1      26.943  24.792  -5.242  0.00  0.00    -0.301 N 
HETATM    3  N   UNK N   1      29.102  23.716  -3.354  0.00  0.00    -0.383 N 
ATOM      4  HN  UNK N   1      29.815  23.942  -2.661  1.00  0.00     0.160 HD
HETATM    5  N   UNK N   1      25.859  26.669  -4.654  0.00  0.00    -0.354 N 
ATOM      6  HN  UNK N   1      25.297  27.518  -4.711  1.00  0.00     0.166 HD
HETATM    7  C   UNK N   1      27.445  23.677  -6.017  0.00  0.00     0.053 A 
HETATM    8  C   UNK N   1      27.129  25.016  -3.938  0.00  0.00     0.051 A 
HETATM    9  C   UNK N   1      28.617  22.908  -5.657  0.00  0.00     0.020 A 
HETATM   10  C   UNK N   1      27.756  24.070  -3.013  0.00  0.00     0.179 C 
HETATM   11  C   UNK N   1      29.521  23.143  -4.436  0.00  0.00     0.054 C 
HETATM   12  C   UNK N   1      26.147  25.812  -5.654  0.00  0.00     0.084 A 
HETATM   13  C   UNK N   1      26.469  26.166  -3.564  0.00  0.00     0.116 A 
HETATM   14  C   UNK N   1      26.786  23.379  -7.226  0.00  0.00     0.032 A 
HETATM   15  C   UNK N   1      29.014  21.900  -6.556  0.00  0.00     0.040 A 
HETATM   16  C   UNK N   1      25.625  26.010  -7.039  0.00  0.00     0.089 C 
HETATM   17  C   UNK N   1      27.217  22.368  -8.073  0.00  0.00     0.026 A 
HETATM   18  C   UNK N   1      28.334  21.627  -7.736  0.00  0.00     0.035 A 
ENDROOT
BRANCH  11  19
HETATM   19  C   UNK N   1      30.954  22.619  -4.390  0.00  0.00     0.030 A 
HETATM   20  C   UNK N   1      31.254  21.332  -3.859  0.00  0.00     0.128 A 
HETATM   21  F   UNK N   1      30.289  20.533  -3.340  0.00  0.00    -0.205 F 
HETATM   22  C   UNK N   1      32.567  20.846  -3.871  0.00  0.00     0.043 A 
HETATM   23  C   UNK N   1      33.602  21.613  -4.401  0.00  0.00     0.003 A 
HETATM   24  C   UNK N   1      33.333  22.879  -4.912  0.00  0.00     0.001 A 
HETATM   25  C   UNK N   1      32.028  23.372  -4.903  0.00  0.00     0.017 A 
ENDBRANCH  11  19
TORSDOF 1
ENDMDL
