MODEL 1
REMARK VINA RESULT:      -4.4      0.000      0.000
REMARK  7 active torsions:
REMARK  status: ('A' for Active; 'I' for Inactive)
REMARK    1  A    between atoms: O_1  and  C_11 
REMARK    2  A    between atoms: N_3  and  C_8 
REMARK    3  A    between atoms: C_4  and  C_5 
REMARK    4  A    between atoms: C_4  and  C_7 
REMARK    5  A    between atoms: C_4  and  C_8 
REMARK    6  A    between atoms: C_5  and  C_6 
REMARK    7  A    between atoms: C_7  and  C_11 
ROOT
HETATM    1  C   UNK N   1      31.976  17.147   8.501  0.00  0.00     0.013 C 
ENDROOT
BRANCH   1   2
HETATM    2  C   UNK N   1      30.709  17.515   7.727  0.00  0.00     0.010 C 
BRANCH   2   3
HETATM    3  C   UNK N   1      29.472  17.650   8.611  0.00  0.00    -0.022 C 
HETATM    4  C   UNK N   1      28.329  18.176   7.769  0.00  0.00     0.009 C 
HETATM    5  C   UNK N   1      29.707  18.617   9.757  0.00  0.00     0.009 C 
ENDBRANCH   2   3
ENDBRANCH   1   2
BRANCH   1   6
HETATM    6  C   UNK N   1      33.205  17.613   7.723  0.00  0.00     0.116 C 
BRANCH   6   7
HETATM    7  C   UNK N   1      34.329  18.057   8.608  0.00  0.00     0.139 C 
HETATM    8  O   UNK N   1      35.011  19.022   8.307  0.00  0.00    -0.650 OA
BRANCH   7   9
HETATM    9  O   UNK N   1      34.557  17.411   9.767  0.00  0.00    -0.776 OA
HETATM   10  H   UNK N   1      34.155  17.657  10.577  0.00  0.00     0.167 HD
ENDBRANCH   7   9
ENDBRANCH   6   7
ENDBRANCH   1   6
BRANCH   1  11
HETATM   11  C   UNK N   1      32.043  15.630   8.649  0.00  0.00     0.116 C 
BRANCH  11  12
HETATM   12  N   UNK N   1      32.198  15.253  10.044  0.00  0.00    -0.430 N 
HETATM   13  H   UNK N   1      31.601  14.639  10.599  0.00  0.00     0.149 HD
HETATM   14  H   UNK N   1      33.004  15.650  10.528  0.00  0.00     0.149 HD
ENDBRANCH  11  12
ENDBRANCH   1  11
TORSDOF 7
ENDMDL
MODEL 2
REMARK VINA RESULT:      -4.4      6.182      7.596
REMARK  7 active torsions:
REMARK  status: ('A' for Active; 'I' for Inactive)
REMARK    1  A    between atoms: O_1  and  C_11 
REMARK    2  A    between atoms: N_3  and  C_8 
REMARK    3  A    between atoms: C_4  and  C_5 
REMARK    4  A    between atoms: C_4  and  C_7 
REMARK    5  A    between atoms: C_4  and  C_8 
REMARK    6  A    between atoms: C_5  and  C_6 
REMARK    7  A    between atoms: C_7  and  C_11 
ROOT
HETATM    1  C   UNK N   1      36.262  14.108  12.721  0.00  0.00     0.013 C 
ENDROOT
BRANCH   1   2
HETATM    2  C   UNK N   1      35.558  13.621  13.988  0.00  0.00     0.010 C 
BRANCH   2   3
HETATM    3  C   UNK N   1      36.490  13.483  15.189  0.00  0.00    -0.022 C 
HETATM    4  C   UNK N   1      35.681  13.016  16.380  0.00  0.00     0.009 C 
HETATM    5  C   UNK N   1      37.144  14.806  15.544  0.00  0.00     0.009 C 
ENDBRANCH   2   3
ENDBRANCH   1   2
BRANCH   1   6
HETATM    6  C   UNK N   1      35.238  14.731  11.774  0.00  0.00     0.116 C 
BRANCH   6   7
HETATM    7  C   UNK N   1      35.694  16.034  11.190  0.00  0.00     0.139 C 
HETATM    8  O   UNK N   1      36.815  16.145  10.723  0.00  0.00    -0.650 OA
BRANCH   7   9
HETATM    9  O   UNK N   1      34.841  17.074  11.140  0.00  0.00    -0.776 OA
HETATM   10  H   UNK N   1      35.073  17.908  10.779  0.00  0.00     0.167 HD
ENDBRANCH   7   9
ENDBRANCH   6   7
ENDBRANCH   1   6
BRANCH   1  11
HETATM   11  C   UNK N   1      36.905  12.914  12.021  0.00  0.00     0.116 C 
BRANCH  11  12
HETATM   12  N   UNK N   1      38.100  13.319  11.300  0.00  0.00    -0.430 N 
HETATM   13  H   UNK N   1      39.020  12.879  11.312  0.00  0.00     0.149 HD
HETATM   14  H   UNK N   1      38.007  14.145  10.707  0.00  0.00     0.149 HD
ENDBRANCH  11  12
ENDBRANCH   1  11
TORSDOF 7
ENDMDL
MODEL 3
REMARK VINA RESULT:      -4.4      9.533     11.063
REMARK  7 active torsions:
REMARK  status: ('A' for Active; 'I' for Inactive)
REMARK    1  A    between atoms: O_1  and  C_11 
REMARK    2  A    between atoms: N_3  and  C_8 
REMARK    3  A    between atoms: C_4  and  C_5 
REMARK    4  A    between atoms: C_4  and  C_7 
REMARK    5  A    between atoms: C_4  and  C_8 
REMARK    6  A    between atoms: C_5  and  C_6 
REMARK    7  A    between atoms: C_7  and  C_11 
ROOT
HETATM    1  C   UNK N   1      22.184  12.874  10.377  0.00  0.00     0.013 C 
ENDROOT
BRANCH   1   2
HETATM    2  C   UNK N   1      22.377  12.920   8.860  0.00  0.00     0.010 C 
BRANCH   2   3
HETATM    3  C   UNK N   1      23.497  12.013   8.360  0.00  0.00    -0.022 C 
HETATM    4  C   UNK N   1      24.656  12.875   7.908  0.00  0.00     0.009 C 
HETATM    5  C   UNK N   1      23.046  11.163   7.186  0.00  0.00     0.009 C 
ENDBRANCH   2   3
ENDBRANCH   1   2
BRANCH   1   6
HETATM    6  C   UNK N   1      22.931  11.671  10.951  0.00  0.00     0.116 C 
BRANCH   6   7
HETATM    7  C   UNK N   1      23.913  12.044  12.020  0.00  0.00     0.139 C 
HETATM    8  O   UNK N   1      23.591  12.006  13.196  0.00  0.00    -0.650 OA
BRANCH   7   9
HETATM    9  O   UNK N   1      25.171  12.378  11.681  0.00  0.00    -0.776 OA
HETATM   10  H   UNK N   1      25.870  12.438  12.303  0.00  0.00     0.167 HD
ENDBRANCH   7   9
ENDBRANCH   6   7
ENDBRANCH   1   6
BRANCH   1  11
HETATM   11  C   UNK N   1      20.699  12.711  10.683  0.00  0.00     0.116 C 
BRANCH  11  12
HETATM   12  N   UNK N   1      20.501  11.887  11.864  0.00  0.00    -0.430 N 
HETATM   13  H   UNK N   1      20.954  11.974  12.774  0.00  0.00     0.149 HD
HETATM   14  H   UNK N   1      19.825  11.129  11.772  0.00  0.00     0.149 HD
ENDBRANCH  11  12
ENDBRANCH   1  11
TORSDOF 7
ENDMDL
MODEL 4
REMARK VINA RESULT:      -4.3     10.596     11.321
REMARK  7 active torsions:
REMARK  status: ('A' for Active; 'I' for Inactive)
REMARK    1  A    between atoms: O_1  and  C_11 
REMARK    2  A    between atoms: N_3  and  C_8 
REMARK    3  A    between atoms: C_4  and  C_5 
REMARK    4  A    between atoms: C_4  and  C_7 
REMARK    5  A    between atoms: C_4  and  C_8 
REMARK    6  A    between atoms: C_5  and  C_6 
REMARK    7  A    between atoms: C_7  and  C_11 
ROOT
HETATM    1  C   UNK N   1      21.922  13.091  10.548  0.00  0.00     0.013 C 
ENDROOT
BRANCH   1   2
HETATM    2  C   UNK N   1      22.074  13.635   9.126  0.00  0.00     0.010 C 
BRANCH   2   3
HETATM    3  C   UNK N   1      20.780  14.200   8.548  0.00  0.00    -0.022 C 
HETATM    4  C   UNK N   1      20.700  13.830   7.082  0.00  0.00     0.009 C 
HETATM    5  C   UNK N   1      20.730  15.713   8.662  0.00  0.00     0.009 C 
ENDBRANCH   2   3
ENDBRANCH   1   2
BRANCH   1   6
HETATM    6  C   UNK N   1      22.840  11.885  10.735  0.00  0.00     0.116 C 
BRANCH   6   7
HETATM    7  C   UNK N   1      23.757  12.021  11.913  0.00  0.00     0.139 C 
HETATM    8  O   UNK N   1      23.332  11.884  13.047  0.00  0.00    -0.650 OA
BRANCH   7   9
HETATM    9  O   UNK N   1      25.067  12.252  11.712  0.00  0.00    -0.776 OA
HETATM   10  H   UNK N   1      25.433  13.114  11.659  0.00  0.00     0.167 HD
ENDBRANCH   7   9
ENDBRANCH   6   7
ENDBRANCH   1   6
BRANCH   1  11
HETATM   11  C   UNK N   1      20.480  12.638  10.753  0.00  0.00     0.116 C 
BRANCH  11  12
HETATM   12  N   UNK N   1      20.357  11.834  11.958  0.00  0.00    -0.430 N 
HETATM   13  H   UNK N   1      20.661  10.871  12.103  0.00  0.00     0.149 HD
HETATM   14  H   UNK N   1      19.915  12.289  12.757  0.00  0.00     0.149 HD
ENDBRANCH  11  12
ENDBRANCH   1  11
TORSDOF 7
ENDMDL
MODEL 5
REMARK VINA RESULT:      -4.3      9.106     10.347
REMARK  7 active torsions:
REMARK  status: ('A' for Active; 'I' for Inactive)
REMARK    1  A    between atoms: O_1  and  C_11 
REMARK    2  A    between atoms: N_3  and  C_8 
REMARK    3  A    between atoms: C_4  and  C_5 
REMARK    4  A    between atoms: C_4  and  C_7 
REMARK    5  A    between atoms: C_4  and  C_8 
REMARK    6  A    between atoms: C_5  and  C_6 
REMARK    7  A    between atoms: C_7  and  C_11 
ROOT
HETATM    1  C   UNK N   1      36.195  12.960  15.968  0.00  0.00     0.013 C 
ENDROOT
BRANCH   1   2
HETATM    2  C   UNK N   1      35.972  11.537  15.450  0.00  0.00     0.010 C 
BRANCH   2   3
HETATM    3  C   UNK N   1      34.620  10.950  15.845  0.00  0.00    -0.022 C 
HETATM    4  C   UNK N   1      34.851   9.625  16.540  0.00  0.00     0.009 C 
HETATM    5  C   UNK N   1      33.741  10.707  14.632  0.00  0.00     0.009 C 
ENDBRANCH   2   3
ENDBRANCH   1   2
BRANCH   1   6
HETATM    6  C   UNK N   1      35.002  13.387  16.821  0.00  0.00     0.116 C 
BRANCH   6   7
HETATM    7  C   UNK N   1      35.402  14.056  18.100  0.00  0.00     0.139 C 
HETATM    8  O   UNK N   1      35.118  13.556  19.176  0.00  0.00    -0.650 OA
BRANCH   7   9
HETATM    9  O   UNK N   1      36.120  15.194  18.059  0.00  0.00    -0.776 OA
HETATM   10  H   UNK N   1      36.474  15.546  17.265  0.00  0.00     0.167 HD
ENDBRANCH   7   9
ENDBRANCH   6   7
ENDBRANCH   1   6
BRANCH   1  11
HETATM   11  C   UNK N   1      36.305  13.908  14.779  0.00  0.00     0.116 C 
BRANCH  11  12
HETATM   12  N   UNK N   1      37.248  14.979  15.057  0.00  0.00    -0.430 N 
HETATM   13  H   UNK N   1      37.301  15.898  14.618  0.00  0.00     0.149 HD
HETATM   14  H   UNK N   1      37.940  14.789  15.782  0.00  0.00     0.149 HD
ENDBRANCH  11  12
ENDBRANCH   1  11
TORSDOF 7
ENDMDL
MODEL 6
REMARK VINA RESULT:      -4.3     11.438     13.153
REMARK  7 active torsions:
REMARK  status: ('A' for Active; 'I' for Inactive)
REMARK    1  A    between atoms: O_1  and  C_11 
REMARK    2  A    between atoms: N_3  and  C_8 
REMARK    3  A    between atoms: C_4  and  C_5 
REMARK    4  A    between atoms: C_4  and  C_7 
REMARK    5  A    between atoms: C_4  and  C_8 
REMARK    6  A    between atoms: C_5  and  C_6 
REMARK    7  A    between atoms: C_7  and  C_11 
ROOT
HETATM    1  C   UNK N   1      20.696  18.164   2.350  0.00  0.00     0.013 C 
ENDROOT
BRANCH   1   2
HETATM    2  C   UNK N   1      20.708  17.716   3.813  0.00  0.00     0.010 C 
BRANCH   2   3
HETATM    3  C   UNK N   1      21.540  18.619   4.719  0.00  0.00    -0.022 C 
HETATM    4  C   UNK N   1      22.991  18.524   4.300  0.00  0.00     0.009 C 
HETATM    5  C   UNK N   1      21.434  18.200   6.175  0.00  0.00     0.009 C 
ENDBRANCH   2   3
ENDBRANCH   1   2
BRANCH   1   6
HETATM    6  C   UNK N   1      20.062  19.549   2.243  0.00  0.00     0.116 C 
BRANCH   6   7
HETATM    7  C   UNK N   1      20.851  20.492   1.387  0.00  0.00     0.139 C 
HETATM    8  O   UNK N   1      21.719  21.196   1.877  0.00  0.00    -0.650 OA
BRANCH   7   9
HETATM    9  O   UNK N   1      20.629  20.529   0.060  0.00  0.00    -0.776 OA
HETATM   10  H   UNK N   1      20.132  19.876  -0.393  0.00  0.00     0.167 HD
ENDBRANCH   7   9
ENDBRANCH   6   7
ENDBRANCH   1   6
BRANCH   1  11
HETATM   11  C   UNK N   1      19.856  17.183   1.539  0.00  0.00     0.116 C 
BRANCH  11  12
HETATM   12  N   UNK N   1      20.003  17.431   0.114  0.00  0.00    -0.430 N 
HETATM   13  H   UNK N   1      20.666  17.003  -0.532  0.00  0.00     0.149 HD
HETATM   14  H   UNK N   1      19.363  18.116  -0.289  0.00  0.00     0.149 HD
ENDBRANCH  11  12
ENDBRANCH   1  11
TORSDOF 7
ENDMDL
MODEL 7
REMARK VINA RESULT:      -4.2      2.789      3.623
REMARK  7 active torsions:
REMARK  status: ('A' for Active; 'I' for Inactive)
REMARK    1  A    between atoms: O_1  and  C_11 
REMARK    2  A    between atoms: N_3  and  C_8 
REMARK    3  A    between atoms: C_4  and  C_5 
REMARK    4  A    between atoms: C_4  and  C_7 
REMARK    5  A    between atoms: C_4  and  C_8 
REMARK    6  A    between atoms: C_5  and  C_6 
REMARK    7  A    between atoms: C_7  and  C_11 
ROOT
HETATM    1  C   UNK N   1      33.855  15.711   8.944  0.00  0.00     0.013 C 
ENDROOT
BRANCH   1   2
HETATM    2  C   UNK N   1      33.898  15.839   7.420  0.00  0.00     0.010 C 
BRANCH   2   3
HETATM    3  C   UNK N   1      34.069  17.275   6.933  0.00  0.00    -0.022 C 
HETATM    4  C   UNK N   1      33.392  18.205   7.918  0.00  0.00     0.009 C 
HETATM    5  C   UNK N   1      33.437  17.482   5.569  0.00  0.00     0.009 C 
ENDBRANCH   2   3
ENDBRANCH   1   2
BRANCH   1   6
HETATM    6  C   UNK N   1      35.226  15.279   9.460  0.00  0.00     0.116 C 
BRANCH   6   7
HETATM    7  C   UNK N   1      35.811  16.238  10.451  0.00  0.00     0.139 C 
HETATM    8  O   UNK N   1      35.162  17.191  10.848  0.00  0.00    -0.650 OA
BRANCH   7   9
HETATM    9  O   UNK N   1      37.045  16.018  10.941  0.00  0.00    -0.776 OA
HETATM   10  H   UNK N   1      37.265  15.263  11.453  0.00  0.00     0.167 HD
ENDBRANCH   7   9
ENDBRANCH   6   7
ENDBRANCH   1   6
BRANCH   1  11
HETATM   11  C   UNK N   1      32.836  14.641   9.322  0.00  0.00     0.116 C 
BRANCH  11  12
HETATM   12  N   UNK N   1      31.899  15.147  10.312  0.00  0.00    -0.430 N 
HETATM   13  H   UNK N   1      31.038  14.711  10.642  0.00  0.00     0.149 HD
HETATM   14  H   UNK N   1      32.133  16.048  10.730  0.00  0.00     0.149 HD
ENDBRANCH  11  12
ENDBRANCH   1  11
TORSDOF 7
ENDMDL
MODEL 8
REMARK VINA RESULT:      -4.2      1.912      2.783
REMARK  7 active torsions:
REMARK  status: ('A' for Active; 'I' for Inactive)
REMARK    1  A    between atoms: O_1  and  C_11 
REMARK    2  A    between atoms: N_3  and  C_8 
REMARK    3  A    between atoms: C_4  and  C_5 
REMARK    4  A    between atoms: C_4  and  C_7 
REMARK    5  A    between atoms: C_4  and  C_8 
REMARK    6  A    between atoms: C_5  and  C_6 
REMARK    7  A    between atoms: C_7  and  C_11 
ROOT
HETATM    1  C   UNK N   1      31.901  17.688   7.901  0.00  0.00     0.013 C 
ENDROOT
BRANCH   1   2
HETATM    2  C   UNK N   1      31.507  16.290   7.423  0.00  0.00     0.010 C 
BRANCH   2   3
HETATM    3  C   UNK N   1      30.685  16.294   6.138  0.00  0.00    -0.022 C 
HETATM    4  C   UNK N   1      30.549  14.870   5.643  0.00  0.00     0.009 C 
HETATM    5  C   UNK N   1      31.351  17.117   5.050  0.00  0.00     0.009 C 
ENDBRANCH   2   3
ENDBRANCH   1   2
BRANCH   1   6
HETATM    6  C   UNK N   1      33.233  17.618   8.647  0.00  0.00     0.116 C 
BRANCH   6   7
HETATM    7  C   UNK N   1      34.366  18.235   7.886  0.00  0.00     0.139 C 
HETATM    8  O   UNK N   1      34.519  17.996   6.699  0.00  0.00    -0.650 OA
BRANCH   7   9
HETATM    9  O   UNK N   1      35.194  19.095   8.507  0.00  0.00    -0.776 OA
HETATM   10  H   UNK N   1      35.027  20.017   8.560  0.00  0.00     0.167 HD
ENDBRANCH   7   9
ENDBRANCH   6   7
ENDBRANCH   1   6
BRANCH   1  11
HETATM   11  C   UNK N   1      30.835  18.202   8.863  0.00  0.00     0.116 C 
BRANCH  11  12
HETATM   12  N   UNK N   1      30.317  17.121   9.685  0.00  0.00    -0.430 N 
HETATM   13  H   UNK N   1      30.785  16.633  10.449  0.00  0.00     0.149 HD
HETATM   14  H   UNK N   1      29.367  16.813   9.474  0.00  0.00     0.149 HD
ENDBRANCH  11  12
ENDBRANCH   1  11
TORSDOF 7
ENDMDL
MODEL 9
REMARK VINA RESULT:      -4.2      4.038      5.335
REMARK  7 active torsions:
REMARK  status: ('A' for Active; 'I' for Inactive)
REMARK    1  A    between atoms: O_1  and  C_11 
REMARK    2  A    between atoms: N_3  and  C_8 
REMARK    3  A    between atoms: C_4  and  C_5 
REMARK    4  A    between atoms: C_4  and  C_7 
REMARK    5  A    between atoms: C_4  and  C_8 
REMARK    6  A    between atoms: C_5  and  C_6 
REMARK    7  A    between atoms: C_7  and  C_11 
ROOT
HETATM    1  C   UNK N   1      28.005  18.138   6.568  0.00  0.00     0.013 C 
ENDROOT
BRANCH   1   2
HETATM    2  C   UNK N   1      28.549  18.868   5.338  0.00  0.00     0.010 C 
BRANCH   2   3
HETATM    3  C   UNK N   1      27.809  20.164   5.022  0.00  0.00    -0.022 C 
HETATM    4  C   UNK N   1      27.015  20.581   6.241  0.00  0.00     0.009 C 
HETATM    5  C   UNK N   1      26.846  19.988   3.861  0.00  0.00     0.009 C 
ENDBRANCH   2   3
ENDBRANCH   1   2
BRANCH   1   6
HETATM    6  C   UNK N   1      29.129  17.936   7.582  0.00  0.00     0.116 C 
BRANCH   6   7
HETATM    7  C   UNK N   1      28.737  18.312   8.978  0.00  0.00     0.139 C 
HETATM    8  O   UNK N   1      29.578  18.684   9.779  0.00  0.00    -0.650 OA
BRANCH   7   9
HETATM    9  O   UNK N   1      27.440  18.281   9.335  0.00  0.00    -0.776 OA
HETATM   10  H   UNK N   1      26.745  18.127   8.724  0.00  0.00     0.167 HD
ENDBRANCH   7   9
ENDBRANCH   6   7
ENDBRANCH   1   6
BRANCH   1  11
HETATM   11  C   UNK N   1      27.486  16.769   6.141  0.00  0.00     0.116 C 
BRANCH  11  12
HETATM   12  N   UNK N   1      26.414  16.327   7.017  0.00  0.00    -0.430 N 
HETATM   13  H   UNK N   1      26.350  15.452   7.540  0.00  0.00     0.149 HD
HETATM   14  H   UNK N   1      25.629  16.970   7.125  0.00  0.00     0.149 HD
ENDBRANCH  11  12
ENDBRANCH   1  11
TORSDOF 7
ENDMDL
