MODEL 1
REMARK VINA RESULT:      -7.4      0.000      0.000
REMARK  1 active torsions:
REMARK  status: ('A' for Active; 'I' for Inactive)
REMARK    1  A    between atoms: C_12  and  C_17 
ROOT
HETATM    1 Cl   UNK N   1      28.716  14.898   2.070  0.00  0.00    -0.084 Cl
HETATM    2  N   UNK N   1      30.380  17.310   7.315  0.00  0.00    -0.286 N 
HETATM    3  N   UNK N   1      27.621  18.615   7.156  0.00  0.00    -0.381 N 
ATOM      4  HN  UNK N   1      27.050  19.440   7.344  1.00  0.00     0.160 HD
HETATM    5  N   UNK N   1      30.446  18.298   9.299  0.00  0.00    -0.286 N 
ATOM      6  HN  UNK N   1      30.139  18.777  10.146  1.00  0.00     0.188 HD
HETATM    7  N   UNK N   1      31.685  17.938   9.004  0.00  0.00    -0.287 N 
ATOM      8  HN  UNK N   1      32.514  18.096   9.577  1.00  0.00     0.188 HD
HETATM    9  C   UNK N   1      29.896  16.740   6.079  0.00  0.00     0.054 A 
HETATM   10  C   UNK N   1      28.682  17.167   5.429  0.00  0.00     0.020 A 
HETATM   11  C   UNK N   1      29.665  17.913   8.271  0.00  0.00     0.122 A 
HETATM   12  C   UNK N   1      27.741  18.274   5.911  0.00  0.00     0.051 C 
HETATM   13  C   UNK N   1      28.198  17.968   8.296  0.00  0.00     0.198 C 
HETATM   14  C   UNK N   1      31.643  17.326   7.807  0.00  0.00     0.100 A 
HETATM   15  C   UNK N   1      30.695  15.766   5.450  0.00  0.00     0.033 A 
HETATM   16  C   UNK N   1      28.368  16.564   4.196  0.00  0.00     0.040 A 
HETATM   17  C   UNK N   1      30.338  15.193   4.237  0.00  0.00     0.026 A 
HETATM   18  C   UNK N   1      29.169  15.592   3.610  0.00  0.00     0.035 A 
HETATM   19  C   UNK N   1      32.854  16.756   7.146  0.00  0.00     0.091 C 
ENDROOT
BRANCH  12  20
HETATM   20  C   UNK N   1      26.814  18.983   4.953  0.00  0.00    -0.009 A 
HETATM   21  C   UNK N   1      27.250  20.002   4.085  0.00  0.00     0.014 A 
HETATM   22  C   UNK N   1      26.369  20.606   3.182  0.00  0.00     0.001 A 
HETATM   23  C   UNK N   1      25.036  20.199   3.130  0.00  0.00     0.000 A 
HETATM   24  C   UNK N   1      24.580  19.199   3.990  0.00  0.00     0.001 A 
HETATM   25  C   UNK N   1      25.460  18.599   4.895  0.00  0.00     0.014 A 
ENDBRANCH  12  20
TORSDOF 1
ENDMDL
MODEL 2
REMARK VINA RESULT:      -7.0      2.929      5.977
REMARK  1 active torsions:
REMARK  status: ('A' for Active; 'I' for Inactive)
REMARK    1  A    between atoms: C_12  and  C_17 
ROOT
HETATM    1 Cl   UNK N   1      31.216  16.951   9.097  0.00  0.00    -0.084 Cl
HETATM    2  N   UNK N   1      27.245  19.195   5.186  0.00  0.00    -0.286 N 
HETATM    3  N   UNK N   1      28.469  17.102   3.325  0.00  0.00    -0.381 N 
ATOM      4  HN  UNK N   1      28.758  16.862   2.376  1.00  0.00     0.160 HD
HETATM    5  N   UNK N   1      25.884  19.545   3.471  0.00  0.00    -0.286 N 
ATOM      6  HN  UNK N   1      25.393  19.404   2.588  1.00  0.00     0.188 HD
HETATM    7  N   UNK N   1      25.754  20.580   4.286  0.00  0.00    -0.287 N 
ATOM      8  HN  UNK N   1      25.150  21.390   4.146  1.00  0.00     0.188 HD
HETATM    9  C   UNK N   1      28.198  18.580   6.081  0.00  0.00     0.054 A 
HETATM   10  C   UNK N   1      29.190  17.626   5.651  0.00  0.00     0.020 A 
HETATM   11  C   UNK N   1      26.788  18.714   4.025  0.00  0.00     0.122 A 
HETATM   12  C   UNK N   1      29.408  17.134   4.218  0.00  0.00     0.051 C 
HETATM   13  C   UNK N   1      27.075  17.367   3.518  0.00  0.00     0.198 C 
HETATM   14  C   UNK N   1      26.569  20.360   5.334  0.00  0.00     0.100 A 
HETATM   15  C   UNK N   1      28.193  18.993   7.426  0.00  0.00     0.033 A 
HETATM   16  C   UNK N   1      30.093  17.157   6.624  0.00  0.00     0.040 A 
HETATM   17  C   UNK N   1      29.100  18.494   8.353  0.00  0.00     0.026 A 
HETATM   18  C   UNK N   1      30.051  17.572   7.950  0.00  0.00     0.035 A 
HETATM   19  C   UNK N   1      26.681  21.305   6.484  0.00  0.00     0.091 C 
ENDROOT
BRANCH  12  20
HETATM   20  C   UNK N   1      30.736  16.559   3.784  0.00  0.00    -0.009 A 
HETATM   21  C   UNK N   1      31.880  17.354   3.584  0.00  0.00     0.014 A 
HETATM   22  C   UNK N   1      33.102  16.779   3.222  0.00  0.00     0.001 A 
HETATM   23  C   UNK N   1      33.202  15.398   3.054  0.00  0.00     0.000 A 
HETATM   24  C   UNK N   1      32.076  14.593   3.236  0.00  0.00     0.001 A 
HETATM   25  C   UNK N   1      30.854  15.169   3.593  0.00  0.00     0.014 A 
ENDBRANCH  12  20
TORSDOF 1
ENDMDL
MODEL 3
REMARK VINA RESULT:      -6.9      3.004      6.349
REMARK  1 active torsions:
REMARK  status: ('A' for Active; 'I' for Inactive)
REMARK    1  A    between atoms: C_12  and  C_17 
ROOT
HETATM    1 Cl   UNK N   1      29.752  16.648  10.584  0.00  0.00    -0.084 Cl
HETATM    2  N   UNK N   1      27.829  19.324   5.560  0.00  0.00    -0.286 N 
HETATM    3  N   UNK N   1      29.669  17.283   4.222  0.00  0.00    -0.381 N 
ATOM      4  HN  UNK N   1      30.322  17.084   3.464  1.00  0.00     0.160 HD
HETATM    5  N   UNK N   1      27.316  19.846   3.467  0.00  0.00    -0.286 N 
ATOM      6  HN  UNK N   1      27.235  19.782   2.452  1.00  0.00     0.188 HD
HETATM    7  N   UNK N   1      26.882  20.836   4.230  0.00  0.00    -0.287 N 
ATOM      8  HN  UNK N   1      26.410  21.683   3.914  1.00  0.00     0.188 HD
HETATM    9  C   UNK N   1      28.307  18.607   6.720  0.00  0.00     0.054 A 
HETATM   10  C   UNK N   1      29.365  17.629   6.670  0.00  0.00     0.020 A 
HETATM   11  C   UNK N   1      27.887  18.937   4.281  0.00  0.00     0.122 A 
HETATM   12  C   UNK N   1      30.150  17.212   5.424  0.00  0.00     0.051 C 
HETATM   13  C   UNK N   1      28.327  17.608   3.839  0.00  0.00     0.198 C 
HETATM   14  C   UNK N   1      27.180  20.512   5.502  0.00  0.00     0.100 A 
HETATM   15  C   UNK N   1      27.750  18.941   7.970  0.00  0.00     0.033 A 
HETATM   16  C   UNK N   1      29.768  17.058   7.892  0.00  0.00     0.040 A 
HETATM   17  C   UNK N   1      28.176  18.341   9.148  0.00  0.00     0.026 A 
HETATM   18  C   UNK N   1      29.187  17.396   9.107  0.00  0.00     0.035 A 
HETATM   19  C   UNK N   1      26.824  21.380   6.662  0.00  0.00     0.091 C 
ENDROOT
BRANCH  12  20
HETATM   20  C   UNK N   1      31.523  16.595   5.537  0.00  0.00    -0.009 A 
HETATM   21  C   UNK N   1      31.744  15.207   5.459  0.00  0.00     0.014 A 
HETATM   22  C   UNK N   1      33.037  14.678   5.527  0.00  0.00     0.001 A 
HETATM   23  C   UNK N   1      34.132  15.528   5.673  0.00  0.00     0.000 A 
HETATM   24  C   UNK N   1      33.935  16.907   5.765  0.00  0.00     0.001 A 
HETATM   25  C   UNK N   1      32.642  17.434   5.701  0.00  0.00     0.014 A 
ENDBRANCH  12  20
TORSDOF 1
ENDMDL
MODEL 4
REMARK VINA RESULT:      -6.9      7.185     11.206
REMARK  1 active torsions:
REMARK  status: ('A' for Active; 'I' for Inactive)
REMARK    1  A    between atoms: C_12  and  C_17 
ROOT
HETATM    1 Cl   UNK N   1      34.237   9.056  10.618  0.00  0.00    -0.084 Cl
HETATM    2  N   UNK N   1      34.440  15.046  10.209  0.00  0.00    -0.286 N 
HETATM    3  N   UNK N   1      36.251  14.772  12.655  0.00  0.00    -0.381 N 
ATOM      4  HN  UNK N   1      36.548  15.161  13.551  1.00  0.00     0.160 HD
HETATM    5  N   UNK N   1      34.962  17.194  10.386  0.00  0.00    -0.286 N 
ATOM      6  HN  UNK N   1      35.446  18.046  10.671  1.00  0.00     0.188 HD
HETATM    7  N   UNK N   1      33.912  17.116   9.585  0.00  0.00    -0.287 N 
ATOM      8  HN  UNK N   1      33.428  17.898   9.142  1.00  0.00     0.188 HD
HETATM    9  C   UNK N   1      34.469  13.609  10.348  0.00  0.00     0.054 A 
HETATM   10  C   UNK N   1      35.052  12.932  11.480  0.00  0.00     0.020 A 
HETATM   11  C   UNK N   1      35.273  15.937  10.757  0.00  0.00     0.122 A 
HETATM   12  C   UNK N   1      35.699  13.600  12.696  0.00  0.00     0.051 C 
HETATM   13  C   UNK N   1      36.490  15.583  11.499  0.00  0.00     0.198 C 
HETATM   14  C   UNK N   1      33.604  15.812   9.466  0.00  0.00     0.100 A 
HETATM   15  C   UNK N   1      33.832  12.842   9.354  0.00  0.00     0.033 A 
HETATM   16  C   UNK N   1      34.952  11.528  11.509  0.00  0.00     0.040 A 
HETATM   17  C   UNK N   1      33.767  11.456   9.423  0.00  0.00     0.026 A 
HETATM   18  C   UNK N   1      34.331  10.799  10.503  0.00  0.00     0.035 A 
HETATM   19  C   UNK N   1      32.479  15.321   8.616  0.00  0.00     0.091 C 
ENDROOT
BRANCH  12  20
HETATM   20  C   UNK N   1      35.813  12.875  14.016  0.00  0.00    -0.009 A 
HETATM   21  C   UNK N   1      34.843  12.981  15.029  0.00  0.00     0.014 A 
HETATM   22  C   UNK N   1      34.965  12.261  16.222  0.00  0.00     0.001 A 
HETATM   23  C   UNK N   1      36.059  11.419  16.421  0.00  0.00     0.000 A 
HETATM   24  C   UNK N   1      37.039  11.309  15.433  0.00  0.00     0.001 A 
HETATM   25  C   UNK N   1      36.919  12.033  14.244  0.00  0.00     0.014 A 
ENDBRANCH  12  20
TORSDOF 1
ENDMDL
MODEL 5
REMARK VINA RESULT:      -6.8      5.304      8.417
REMARK  1 active torsions:
REMARK  status: ('A' for Active; 'I' for Inactive)
REMARK    1  A    between atoms: C_12  and  C_17 
ROOT
HETATM    1 Cl   UNK N   1      26.953  20.331   4.031  0.00  0.00    -0.084 Cl
HETATM    2  N   UNK N   1      21.256  18.637   3.152  0.00  0.00    -0.286 N 
HETATM    3  N   UNK N   1      22.048  16.349   5.018  0.00  0.00    -0.381 N 
ATOM      4  HN  UNK N   1      21.950  15.362   5.253  1.00  0.00     0.160 HD
HETATM    5  N   UNK N   1      19.249  17.704   3.284  0.00  0.00    -0.286 N 
ATOM      6  HN  UNK N   1      18.479  17.119   3.612  1.00  0.00     0.188 HD
HETATM    7  N   UNK N   1      19.223  18.533   2.253  0.00  0.00    -0.287 N 
ATOM      8  HN  UNK N   1      18.432  18.702   1.631  1.00  0.00     0.188 HD
HETATM    9  C   UNK N   1      22.624  19.001   3.441  0.00  0.00     0.054 A 
HETATM   10  C   UNK N   1      23.541  18.145   4.151  0.00  0.00     0.020 A 
HETATM   11  C   UNK N   1      20.483  17.775   3.821  0.00  0.00     0.122 A 
HETATM   12  C   UNK N   1      23.237  16.743   4.686  0.00  0.00     0.051 C 
HETATM   13  C   UNK N   1      20.857  17.142   5.092  0.00  0.00     0.198 C 
HETATM   14  C   UNK N   1      20.436  19.110   2.182  0.00  0.00     0.100 A 
HETATM   15  C   UNK N   1      23.094  20.229   2.936  0.00  0.00     0.033 A 
HETATM   16  C   UNK N   1      24.862  18.607   4.304  0.00  0.00     0.040 A 
HETATM   17  C   UNK N   1      24.406  20.646   3.122  0.00  0.00     0.026 A 
HETATM   18  C   UNK N   1      25.291  19.833   3.809  0.00  0.00     0.035 A 
HETATM   19  C   UNK N   1      20.787  20.131   1.151  0.00  0.00     0.091 C 
ENDROOT
BRANCH  12  20
HETATM   20  C   UNK N   1      24.345  15.751   4.947  0.00  0.00    -0.009 A 
HETATM   21  C   UNK N   1      24.990  15.040   3.917  0.00  0.00     0.014 A 
HETATM   22  C   UNK N   1      26.040  14.160   4.196  0.00  0.00     0.001 A 
HETATM   23  C   UNK N   1      26.466  13.977   5.512  0.00  0.00     0.000 A 
HETATM   24  C   UNK N   1      25.833  14.663   6.549  0.00  0.00     0.001 A 
HETATM   25  C   UNK N   1      24.780  15.539   6.269  0.00  0.00     0.014 A 
ENDBRANCH  12  20
TORSDOF 1
ENDMDL
MODEL 6
REMARK VINA RESULT:      -6.7      2.420      5.650
REMARK  1 active torsions:
REMARK  status: ('A' for Active; 'I' for Inactive)
REMARK    1  A    between atoms: C_12  and  C_17 
ROOT
HETATM    1 Cl   UNK N   1      29.245  13.489   1.283  0.00  0.00    -0.084 Cl
HETATM    2  N   UNK N   1      26.018  17.594   4.256  0.00  0.00    -0.286 N 
HETATM    3  N   UNK N   1      28.762  18.857   4.724  0.00  0.00    -0.381 N 
ATOM      4  HN  UNK N   1      29.373  19.370   5.360  1.00  0.00     0.160 HD
HETATM    5  N   UNK N   1      25.292  19.413   5.293  0.00  0.00    -0.286 N 
ATOM      6  HN  UNK N   1      25.279  20.351   5.697  1.00  0.00     0.188 HD
HETATM    7  N   UNK N   1      24.292  18.547   5.287  0.00  0.00    -0.287 N 
ATOM      8  HN  UNK N   1      23.366  18.686   5.693  1.00  0.00     0.188 HD
HETATM    9  C   UNK N   1      26.856  16.669   3.528  0.00  0.00     0.054 A 
HETATM   10  C   UNK N   1      28.297  16.698   3.572  0.00  0.00     0.020 A 
HETATM   11  C   UNK N   1      26.331  18.828   4.667  0.00  0.00     0.122 A 
HETATM   12  C   UNK N   1      29.155  17.670   4.385  0.00  0.00     0.051 C 
HETATM   13  C   UNK N   1      27.568  19.531   4.307  0.00  0.00     0.198 C 
HETATM   14  C   UNK N   1      24.728  17.448   4.645  0.00  0.00     0.100 A 
HETATM   15  C   UNK N   1      26.220  15.647   2.797  0.00  0.00     0.033 A 
HETATM   16  C   UNK N   1      28.981  15.694   2.860  0.00  0.00     0.040 A 
HETATM   17  C   UNK N   1      26.940  14.684   2.102  0.00  0.00     0.026 A 
HETATM   18  C   UNK N   1      28.324  14.709   2.133  0.00  0.00     0.035 A 
HETATM   19  C   UNK N   1      23.868  16.250   4.416  0.00  0.00     0.091 C 
ENDROOT
BRANCH  12  20
HETATM   20  C   UNK N   1      30.575  17.323   4.769  0.00  0.00    -0.009 A 
HETATM   21  C   UNK N   1      31.691  17.762   4.033  0.00  0.00     0.014 A 
HETATM   22  C   UNK N   1      32.992  17.454   4.444  0.00  0.00     0.001 A 
HETATM   23  C   UNK N   1      33.199  16.703   5.601  0.00  0.00     0.000 A 
HETATM   24  C   UNK N   1      32.105  16.248   6.339  0.00  0.00     0.001 A 
HETATM   25  C   UNK N   1      30.806  16.552   5.924  0.00  0.00     0.014 A 
ENDBRANCH  12  20
TORSDOF 1
ENDMDL
MODEL 7
REMARK VINA RESULT:      -6.7     10.992     13.931
REMARK  1 active torsions:
REMARK  status: ('A' for Active; 'I' for Inactive)
REMARK    1  A    between atoms: C_12  and  C_17 
ROOT
HETATM    1 Cl   UNK N   1      39.034   8.347  15.615  0.00  0.00    -0.084 Cl
HETATM    2  N   UNK N   1      35.558  11.782  12.120  0.00  0.00    -0.286 N 
HETATM    3  N   UNK N   1      35.357  13.488  14.647  0.00  0.00    -0.381 N 
ATOM      4  HN  UNK N   1      34.775  14.086  15.234  1.00  0.00     0.160 HD
HETATM    5  N   UNK N   1      34.376  13.431  11.226  0.00  0.00    -0.286 N 
ATOM      6  HN  UNK N   1      33.938  14.344  11.104  1.00  0.00     0.188 HD
HETATM    7  N   UNK N   1      34.302  12.406  10.392  0.00  0.00    -0.287 N 
ATOM      8  HN  UNK N   1      33.789  12.377   9.511  1.00  0.00     0.188 HD
HETATM    9  C   UNK N   1      36.412  11.028  13.008  0.00  0.00     0.054 A 
HETATM   10  C   UNK N   1      36.531  11.303  14.419  0.00  0.00     0.020 A 
HETATM   11  C   UNK N   1      35.138  13.043  12.266  0.00  0.00     0.122 A 
HETATM   12  C   UNK N   1      35.783  12.392  15.192  0.00  0.00     0.051 C 
HETATM   13  C   UNK N   1      35.610  13.954  13.316  0.00  0.00     0.198 C 
HETATM   14  C   UNK N   1      35.032  11.410  10.927  0.00  0.00     0.100 A 
HETATM   15  C   UNK N   1      37.105   9.926  12.471  0.00  0.00     0.033 A 
HETATM   16  C   UNK N   1      37.354  10.444  15.172  0.00  0.00     0.040 A 
HETATM   17  C   UNK N   1      37.914   9.113  13.255  0.00  0.00     0.026 A 
HETATM   18  C   UNK N   1      38.039   9.375  14.609  0.00  0.00     0.035 A 
HETATM   19  C   UNK N   1      35.207  10.086  10.260  0.00  0.00     0.091 C 
ENDROOT
BRANCH  12  20
HETATM   20  C   UNK N   1      35.577  12.287  16.685  0.00  0.00    -0.009 A 
HETATM   21  C   UNK N   1      35.648  11.065  17.379  0.00  0.00     0.014 A 
HETATM   22  C   UNK N   1      35.492  11.015  18.768  0.00  0.00     0.001 A 
HETATM   23  C   UNK N   1      35.265  12.187  19.487  0.00  0.00     0.000 A 
HETATM   24  C   UNK N   1      35.179  13.409  18.817  0.00  0.00     0.001 A 
HETATM   25  C   UNK N   1      35.330  13.457  17.428  0.00  0.00     0.014 A 
ENDBRANCH  12  20
TORSDOF 1
ENDMDL
MODEL 8
REMARK VINA RESULT:      -6.7     13.943     16.550
REMARK  1 active torsions:
REMARK  status: ('A' for Active; 'I' for Inactive)
REMARK    1  A    between atoms: C_12  and  C_17 
ROOT
HETATM    1 Cl   UNK N   1      35.824   6.705  15.310  0.00  0.00    -0.084 Cl
HETATM    2  N   UNK N   1      35.352  11.985  18.136  0.00  0.00    -0.286 N 
HETATM    3  N   UNK N   1      34.187  10.255  20.369  0.00  0.00    -0.381 N 
ATOM      4  HN  UNK N   1      33.505  10.174  21.124  1.00  0.00     0.160 HD
HETATM    5  N   UNK N   1      35.127  13.608  19.630  0.00  0.00    -0.286 N 
ATOM      6  HN  UNK N   1      34.990  14.081  20.524  1.00  0.00     0.188 HD
HETATM    7  N   UNK N   1      35.310  14.188  18.454  0.00  0.00    -0.287 N 
ATOM      8  HN  UNK N   1      35.331  15.190  18.269  1.00  0.00     0.188 HD
HETATM    9  C   UNK N   1      35.469  10.676  17.536  0.00  0.00     0.054 A 
HETATM   10  C   UNK N   1      34.889   9.486  18.107  0.00  0.00     0.020 A 
HETATM   11  C   UNK N   1      35.155  12.277  19.426  0.00  0.00     0.122 A 
HETATM   12  C   UNK N   1      34.061   9.413  19.392  0.00  0.00     0.051 C 
HETATM   13  C   UNK N   1      35.171  11.286  20.510  0.00  0.00     0.198 C 
HETATM   14  C   UNK N   1      35.461  13.203  17.550  0.00  0.00     0.100 A 
HETATM   15  C   UNK N   1      36.126  10.583  16.294  0.00  0.00     0.033 A 
HETATM   16  C   UNK N   1      35.030   8.291  17.377  0.00  0.00     0.040 A 
HETATM   17  C   UNK N   1      36.248   9.376  15.616  0.00  0.00     0.026 A 
HETATM   18  C   UNK N   1      35.700   8.227  16.161  0.00  0.00     0.035 A 
HETATM   19  C   UNK N   1      35.712  13.465  16.102  0.00  0.00     0.091 C 
ENDROOT
BRANCH  12  20
HETATM   20  C   UNK N   1      33.098   8.276  19.636  0.00  0.00    -0.009 A 
HETATM   21  C   UNK N   1      33.507   6.931  19.699  0.00  0.00     0.014 A 
HETATM   22  C   UNK N   1      32.590   5.910  19.968  0.00  0.00     0.001 A 
HETATM   23  C   UNK N   1      31.246   6.217  20.180  0.00  0.00     0.000 A 
HETATM   24  C   UNK N   1      30.817   7.544  20.110  0.00  0.00     0.001 A 
HETATM   25  C   UNK N   1      31.733   8.562  19.837  0.00  0.00     0.014 A 
ENDBRANCH  12  20
TORSDOF 1
ENDMDL
MODEL 9
REMARK VINA RESULT:      -6.6     10.231     12.949
REMARK  1 active torsions:
REMARK  status: ('A' for Active; 'I' for Inactive)
REMARK    1  A    between atoms: C_12  and  C_17 
ROOT
HETATM    1 Cl   UNK N   1      39.295   9.535  15.009  0.00  0.00    -0.084 Cl
HETATM    2  N   UNK N   1      35.172  11.700  11.214  0.00  0.00    -0.286 N 
HETATM    3  N   UNK N   1      35.537  14.244  12.868  0.00  0.00    -0.381 N 
ATOM      4  HN  UNK N   1      35.101  15.070  13.279  1.00  0.00     0.160 HD
HETATM    5  N   UNK N   1      33.837  12.991  10.002  0.00  0.00    -0.286 N 
ATOM      6  HN  UNK N   1      33.390  13.827   9.624  1.00  0.00     0.188 HD
HETATM    7  N   UNK N   1      33.576  11.738   9.663  0.00  0.00    -0.287 N 
ATOM      8  HN  UNK N   1      32.884  11.426   8.982  1.00  0.00     0.188 HD
HETATM    9  C   UNK N   1      36.192  11.262  12.138  0.00  0.00     0.054 A 
HETATM   10  C   UNK N   1      36.616  12.037  13.278  0.00  0.00     0.020 A 
HETATM   11  C   UNK N   1      34.804  12.956  10.939  0.00  0.00     0.122 A 
HETATM   12  C   UNK N   1      36.062  13.400  13.699  0.00  0.00     0.051 C 
HETATM   13  C   UNK N   1      35.499  14.149  11.439  0.00  0.00     0.198 C 
HETATM   14  C   UNK N   1      34.396  10.956  10.388  0.00  0.00     0.100 A 
HETATM   15  C   UNK N   1      36.743   9.981  11.946  0.00  0.00     0.033 A 
HETATM   16  C   UNK N   1      37.576  11.454  14.128  0.00  0.00     0.040 A 
HETATM   17  C   UNK N   1      37.696   9.453  12.807  0.00  0.00     0.026 A 
HETATM   18  C   UNK N   1      38.114  10.194  13.900  0.00  0.00     0.035 A 
HETATM   19  C   UNK N   1      34.412   9.468  10.266  0.00  0.00     0.091 C 
ENDROOT
BRANCH  12  20
HETATM   20  C   UNK N   1      36.184  13.885  15.125  0.00  0.00    -0.009 A 
HETATM   21  C   UNK N   1      37.074  14.905  15.509  0.00  0.00     0.014 A 
HETATM   22  C   UNK N   1      37.127  15.355  16.832  0.00  0.00     0.001 A 
HETATM   23  C   UNK N   1      36.289  14.792  17.795  0.00  0.00     0.000 A 
HETATM   24  C   UNK N   1      35.407  13.771  17.437  0.00  0.00     0.001 A 
HETATM   25  C   UNK N   1      35.358  13.320  16.116  0.00  0.00     0.014 A 
ENDBRANCH  12  20
TORSDOF 1
ENDMDL
