MODEL 1
REMARK VINA RESULT:      -5.3      0.000      0.000
REMARK  4 active torsions:
REMARK  status: ('A' for Active; 'I' for Inactive)
REMARK    1  A    between atoms: C_6  and  C_7 
REMARK    2  A    between atoms: C_6  and  C_8 
REMARK    3  A    between atoms: C_7  and  C_9 
REMARK    4  A    between atoms: C_8  and  C_15 
ROOT
HETATM    1  O   UNK N   1      34.551  18.832   8.230  0.00  0.00    -0.272 OA
HETATM    2  O   UNK N   1      32.143  14.795   7.802  0.00  0.00    -0.272 OA
HETATM    3  O   UNK N   1      34.824  15.596  11.254  0.00  0.00    -0.247 OA
HETATM    4  N   UNK N   1      34.679  17.216   9.741  0.00  0.00    -0.278 N 
HETATM    5  N   UNK N   1      33.487  15.195   9.521  0.00  0.00    -0.278 N 
HETATM    6  C   UNK N   1      33.204  16.929   7.718  0.00  0.00     0.128 A 
HETATM    7  C   UNK N   1      34.184  17.722   8.586  0.00  0.00     0.244 A 
HETATM    8  C   UNK N   1      32.914  15.568   8.351  0.00  0.00     0.244 A 
HETATM    9  C   UNK N   1      34.344  15.991  10.204  0.00  0.00     0.329 A 
HETATM   10  H   UNK N   1      35.308  17.762  10.264  0.00  0.00     0.173 HD
HETATM   11  H   UNK N   1      33.271  14.309   9.892  0.00  0.00     0.173 HD
ENDROOT
BRANCH   6  12
HETATM   12  C   UNK N   1      33.826  16.740   6.297  0.00  0.00     0.008 C 
HETATM   13  C   UNK N   1      34.870  15.631   6.277  0.00  0.00     0.011 C 
BRANCH  12  14
HETATM   14  C   UNK N   1      32.819  16.456   5.180  0.00  0.00     0.001 C 
HETATM   15  C   UNK N   1      32.860  17.519   4.099  0.00  0.00     0.005 C 
ENDBRANCH  12  14
ENDBRANCH   6  12
BRANCH   6  16
HETATM   16  C   UNK N   1      31.849  17.678   7.638  0.00  0.00     0.056 C 
BRANCH  16  17
HETATM   17  C   UNK N   1      31.145  17.960   8.941  0.00  0.00    -0.035 C 
HETATM   18  C   UNK N   1      29.983  18.607   8.995  0.00  0.00     0.007 C 
ENDBRANCH  16  17
ENDBRANCH   6  16
TORSDOF 4
ENDMDL
MODEL 2
REMARK VINA RESULT:      -5.3      1.502      3.839
REMARK  4 active torsions:
REMARK  status: ('A' for Active; 'I' for Inactive)
REMARK    1  A    between atoms: C_6  and  C_7 
REMARK    2  A    between atoms: C_6  and  C_8 
REMARK    3  A    between atoms: C_7  and  C_9 
REMARK    4  A    between atoms: C_8  and  C_15 
ROOT
HETATM    1  O   UNK N   1      31.950  15.153   9.262  0.00  0.00    -0.272 OA
HETATM    2  O   UNK N   1      34.135  18.112   6.305  0.00  0.00    -0.272 OA
HETATM    3  O   UNK N   1      35.617  17.365  10.427  0.00  0.00    -0.247 OA
HETATM    4  N   UNK N   1      33.786  16.254   9.837  0.00  0.00    -0.278 N 
HETATM    5  N   UNK N   1      34.869  17.742   8.366  0.00  0.00    -0.278 N 
HETATM    6  C   UNK N   1      32.807  16.560   7.535  0.00  0.00     0.128 A 
HETATM    7  C   UNK N   1      32.826  15.939   8.934  0.00  0.00     0.244 A 
HETATM    8  C   UNK N   1      33.980  17.525   7.365  0.00  0.00     0.244 A 
HETATM    9  C   UNK N   1      34.783  17.127   9.569  0.00  0.00     0.329 A 
HETATM   10  H   UNK N   1      33.755  15.831  10.725  0.00  0.00     0.173 HD
HETATM   11  H   UNK N   1      35.609  18.372   8.211  0.00  0.00     0.173 HD
ENDROOT
BRANCH   6  12
HETATM   12  C   UNK N   1      31.455  17.317   7.336  0.00  0.00     0.008 C 
HETATM   13  C   UNK N   1      30.374  16.408   6.765  0.00  0.00     0.011 C 
BRANCH  12  14
HETATM   14  C   UNK N   1      30.891  17.981   8.595  0.00  0.00     0.001 C 
HETATM   15  C   UNK N   1      29.410  17.704   8.764  0.00  0.00     0.005 C 
ENDBRANCH  12  14
ENDBRANCH   6  12
BRANCH   6  16
HETATM   16  C   UNK N   1      32.988  15.452   6.467  0.00  0.00     0.056 C 
BRANCH  16  17
HETATM   17  C   UNK N   1      34.232  14.607   6.560  0.00  0.00    -0.035 C 
HETATM   18  C   UNK N   1      35.145  14.575   5.592  0.00  0.00     0.007 C 
ENDBRANCH  16  17
ENDBRANCH   6  16
TORSDOF 4
ENDMDL
MODEL 3
REMARK VINA RESULT:      -5.0      1.903      3.682
REMARK  4 active torsions:
REMARK  status: ('A' for Active; 'I' for Inactive)
REMARK    1  A    between atoms: C_6  and  C_7 
REMARK    2  A    between atoms: C_6  and  C_8 
REMARK    3  A    between atoms: C_7  and  C_9 
REMARK    4  A    between atoms: C_8  and  C_15 
ROOT
HETATM    1  O   UNK N   1      31.620  15.034   6.394  0.00  0.00    -0.272 OA
HETATM    2  O   UNK N   1      34.734  18.429   7.421  0.00  0.00    -0.272 OA
HETATM    3  O   UNK N   1      30.649  18.358   9.169  0.00  0.00    -0.247 OA
HETATM    4  N   UNK N   1      31.142  16.692   7.784  0.00  0.00    -0.278 N 
HETATM    5  N   UNK N   1      32.691  18.394   8.287  0.00  0.00    -0.278 N 
HETATM    6  C   UNK N   1      33.415  16.577   6.702  0.00  0.00     0.128 A 
HETATM    7  C   UNK N   1      32.001  16.049   6.958  0.00  0.00     0.244 A 
HETATM    8  C   UNK N   1      33.653  17.863   7.492  0.00  0.00     0.244 A 
HETATM    9  C   UNK N   1      31.470  17.831   8.436  0.00  0.00     0.329 A 
HETATM   10  H   UNK N   1      30.242  16.316   7.915  0.00  0.00     0.173 HD
HETATM   11  H   UNK N   1      32.889  19.225   8.777  0.00  0.00     0.173 HD
ENDROOT
BRANCH   6  12
HETATM   12  C   UNK N   1      33.585  16.846   5.172  0.00  0.00     0.008 C 
HETATM   13  C   UNK N   1      33.885  15.566   4.402  0.00  0.00     0.011 C 
BRANCH  12  14
HETATM   14  C   UNK N   1      32.395  17.532   4.497  0.00  0.00     0.001 C 
HETATM   15  C   UNK N   1      32.192  17.041   3.077  0.00  0.00     0.005 C 
ENDBRANCH  12  14
ENDBRANCH   6  12
BRANCH   6  16
HETATM   16  C   UNK N   1      34.458  15.548   7.207  0.00  0.00     0.056 C 
BRANCH  16  17
HETATM   17  C   UNK N   1      34.368  15.135   8.654  0.00  0.00    -0.035 C 
HETATM   18  C   UNK N   1      35.368  15.327   9.511  0.00  0.00     0.007 C 
ENDBRANCH  16  17
ENDBRANCH   6  16
TORSDOF 4
ENDMDL
MODEL 4
REMARK VINA RESULT:      -5.0     16.070     18.289
REMARK  4 active torsions:
REMARK  status: ('A' for Active; 'I' for Inactive)
REMARK    1  A    between atoms: C_6  and  C_7 
REMARK    2  A    between atoms: C_6  and  C_8 
REMARK    3  A    between atoms: C_7  and  C_9 
REMARK    4  A    between atoms: C_8  and  C_15 
ROOT
HETATM    1  O   UNK N   1      26.197  26.432  -2.741  0.00  0.00    -0.272 OA
HETATM    2  O   UNK N   1      27.550  28.530  -6.746  0.00  0.00    -0.272 OA
HETATM    3  O   UNK N   1      26.430  30.847  -3.123  0.00  0.00    -0.247 OA
HETATM    4  N   UNK N   1      26.321  28.636  -2.934  0.00  0.00    -0.278 N 
HETATM    5  N   UNK N   1      26.984  29.684  -4.937  0.00  0.00    -0.278 N 
HETATM    6  C   UNK N   1      26.921  27.168  -4.893  0.00  0.00     0.128 A 
HETATM    7  C   UNK N   1      26.463  27.391  -3.449  0.00  0.00     0.244 A 
HETATM    8  C   UNK N   1      27.169  28.508  -5.585  0.00  0.00     0.244 A 
HETATM    9  C   UNK N   1      26.575  29.755  -3.649  0.00  0.00     0.329 A 
HETATM   10  H   UNK N   1      26.021  28.729  -2.002  0.00  0.00     0.173 HD
HETATM   11  H   UNK N   1      27.155  30.523  -5.424  0.00  0.00     0.173 HD
ENDROOT
BRANCH   6  12
HETATM   12  C   UNK N   1      25.820  26.363  -5.654  0.00  0.00     0.008 C 
HETATM   13  C   UNK N   1      24.522  27.151  -5.774  0.00  0.00     0.011 C 
BRANCH  12  14
HETATM   14  C   UNK N   1      26.213  25.892  -7.057  0.00  0.00     0.001 C 
HETATM   15  C   UNK N   1      25.901  24.423  -7.266  0.00  0.00     0.005 C 
ENDBRANCH  12  14
ENDBRANCH   6  12
BRANCH   6  16
HETATM   16  C   UNK N   1      28.273  26.409  -4.902  0.00  0.00     0.056 C 
BRANCH  16  17
HETATM   17  C   UNK N   1      29.381  26.972  -4.049  0.00  0.00    -0.035 C 
HETATM   18  C   UNK N   1      30.472  26.272  -3.748  0.00  0.00     0.007 C 
ENDBRANCH  16  17
ENDBRANCH   6  16
TORSDOF 4
ENDMDL
MODEL 5
REMARK VINA RESULT:      -4.9      6.296      9.453
REMARK  4 active torsions:
REMARK  status: ('A' for Active; 'I' for Inactive)
REMARK    1  A    between atoms: C_6  and  C_7 
REMARK    2  A    between atoms: C_6  and  C_8 
REMARK    3  A    between atoms: C_7  and  C_9 
REMARK    4  A    between atoms: C_8  and  C_15 
ROOT
HETATM    1  O   UNK N   1      37.167  13.890  15.497  0.00  0.00    -0.272 OA
HETATM    2  O   UNK N   1      34.257  10.583  13.803  0.00  0.00    -0.272 OA
HETATM    3  O   UNK N   1      34.891  14.461  11.731  0.00  0.00    -0.247 OA
HETATM    4  N   UNK N   1      36.034  14.168  13.613  0.00  0.00    -0.278 N 
HETATM    5  N   UNK N   1      34.571  12.523  12.774  0.00  0.00    -0.278 N 
HETATM    6  C   UNK N   1      35.792  12.026  14.918  0.00  0.00     0.128 A 
HETATM    7  C   UNK N   1      36.380  13.421  14.689  0.00  0.00     0.244 A 
HETATM    8  C   UNK N   1      34.820  11.667  13.795  0.00  0.00     0.244 A 
HETATM    9  C   UNK N   1      35.157  13.739  12.677  0.00  0.00     0.329 A 
HETATM   10  H   UNK N   1      36.436  15.060  13.509  0.00  0.00     0.173 HD
HETATM   11  H   UNK N   1      33.936  12.249  12.073  0.00  0.00     0.173 HD
ENDROOT
BRANCH   6  12
HETATM   12  C   UNK N   1      35.055  12.009  16.296  0.00  0.00     0.008 C 
HETATM   13  C   UNK N   1      35.816  11.199  17.337  0.00  0.00     0.011 C 
BRANCH  12  14
HETATM   14  C   UNK N   1      34.764  13.388  16.894  0.00  0.00     0.001 C 
HETATM   15  C   UNK N   1      35.146  13.458  18.359  0.00  0.00     0.005 C 
ENDBRANCH  12  14
ENDBRANCH   6  12
BRANCH   6  16
HETATM   16  C   UNK N   1      36.924  10.968  14.879  0.00  0.00     0.056 C 
BRANCH  16  17
HETATM   17  C   UNK N   1      37.763  10.908  13.629  0.00  0.00    -0.035 C 
HETATM   18  C   UNK N   1      37.928   9.784  12.936  0.00  0.00     0.007 C 
ENDBRANCH  16  17
ENDBRANCH   6  16
TORSDOF 4
ENDMDL
MODEL 6
REMARK VINA RESULT:      -4.9      6.464      8.504
REMARK  4 active torsions:
REMARK  status: ('A' for Active; 'I' for Inactive)
REMARK    1  A    between atoms: C_6  and  C_7 
REMARK    2  A    between atoms: C_6  and  C_8 
REMARK    3  A    between atoms: C_7  and  C_9 
REMARK    4  A    between atoms: C_8  and  C_15 
ROOT
HETATM    1  O   UNK N   1      37.360  11.204  14.795  0.00  0.00    -0.272 OA
HETATM    2  O   UNK N   1      34.530  14.078  12.345  0.00  0.00    -0.272 OA
HETATM    3  O   UNK N   1      38.386  12.597  10.708  0.00  0.00    -0.247 OA
HETATM    4  N   UNK N   1      37.865  11.897  12.751  0.00  0.00    -0.278 N 
HETATM    5  N   UNK N   1      36.459  13.342  11.533  0.00  0.00    -0.278 N 
HETATM    6  C   UNK N   1      35.714  12.640  13.833  0.00  0.00     0.128 A 
HETATM    7  C   UNK N   1      37.032  11.861  13.819  0.00  0.00     0.244 A 
HETATM    8  C   UNK N   1      35.533  13.403  12.521  0.00  0.00     0.244 A 
HETATM    9  C   UNK N   1      37.594  12.611  11.636  0.00  0.00     0.329 A 
HETATM   10  H   UNK N   1      38.703  11.381  12.789  0.00  0.00     0.173 HD
HETATM   11  H   UNK N   1      36.300  13.850  10.704  0.00  0.00     0.173 HD
ENDROOT
BRANCH   6  12
HETATM   12  C   UNK N   1      35.729  13.636  15.037  0.00  0.00     0.008 C 
HETATM   13  C   UNK N   1      34.944  13.099  16.227  0.00  0.00     0.011 C 
BRANCH  12  14
HETATM   14  C   UNK N   1      37.121  14.034  15.534  0.00  0.00     0.001 C 
HETATM   15  C   UNK N   1      37.222  15.524  15.795  0.00  0.00     0.005 C 
ENDBRANCH  12  14
ENDBRANCH   6  12
BRANCH   6  16
HETATM   16  C   UNK N   1      34.524  11.654  13.940  0.00  0.00     0.056 C 
BRANCH  16  17
HETATM   17  C   UNK N   1      34.585  10.410  13.091  0.00  0.00    -0.035 C 
HETATM   18  C   UNK N   1      33.719  10.176  12.109  0.00  0.00     0.007 C 
ENDBRANCH  16  17
ENDBRANCH   6  16
TORSDOF 4
ENDMDL
MODEL 7
REMARK VINA RESULT:      -4.9     15.340     17.378
REMARK  4 active torsions:
REMARK  status: ('A' for Active; 'I' for Inactive)
REMARK    1  A    between atoms: C_6  and  C_7 
REMARK    2  A    between atoms: C_6  and  C_8 
REMARK    3  A    between atoms: C_7  and  C_9 
REMARK    4  A    between atoms: C_8  and  C_15 
ROOT
HETATM    1  O   UNK N   1      29.021  26.918  -5.055  0.00  0.00    -0.272 OA
HETATM    2  O   UNK N   1      24.835  24.828  -5.677  0.00  0.00    -0.272 OA
HETATM    3  O   UNK N   1      27.608  23.645  -2.412  0.00  0.00    -0.247 OA
HETATM    4  N   UNK N   1      28.308  25.288  -3.734  0.00  0.00    -0.278 N 
HETATM    5  N   UNK N   1      26.225  24.235  -4.052  0.00  0.00    -0.278 N 
HETATM    6  C   UNK N   1      26.861  26.084  -5.637  0.00  0.00     0.128 A 
HETATM    7  C   UNK N   1      28.131  26.126  -4.783  0.00  0.00     0.244 A 
HETATM    8  C   UNK N   1      25.910  25.004  -5.123  0.00  0.00     0.244 A 
HETATM    9  C   UNK N   1      27.387  24.368  -3.370  0.00  0.00     0.329 A 
HETATM   10  H   UNK N   1      29.142  25.350  -3.216  0.00  0.00     0.173 HD
HETATM   11  H   UNK N   1      25.581  23.551  -3.756  0.00  0.00     0.173 HD
ENDROOT
BRANCH   6  12
HETATM   12  C   UNK N   1      27.259  25.790  -7.119  0.00  0.00     0.008 C 
HETATM   13  C   UNK N   1      27.449  24.300  -7.371  0.00  0.00     0.011 C 
BRANCH  12  14
HETATM   14  C   UNK N   1      26.283  26.323  -8.171  0.00  0.00     0.001 C 
HETATM   15  C   UNK N   1      25.772  25.219  -9.077  0.00  0.00     0.005 C 
ENDBRANCH  12  14
ENDBRANCH   6  12
BRANCH   6  16
HETATM   16  C   UNK N   1      26.105  27.432  -5.520  0.00  0.00     0.056 C 
BRANCH  16  17
HETATM   17  C   UNK N   1      25.726  27.886  -4.133  0.00  0.00    -0.035 C 
HETATM   18  C   UNK N   1      26.224  28.992  -3.586  0.00  0.00     0.007 C 
ENDBRANCH  16  17
ENDBRANCH   6  16
TORSDOF 4
ENDMDL
MODEL 8
REMARK VINA RESULT:      -4.8      6.265      9.258
REMARK  4 active torsions:
REMARK  status: ('A' for Active; 'I' for Inactive)
REMARK    1  A    between atoms: C_6  and  C_7 
REMARK    2  A    between atoms: C_6  and  C_8 
REMARK    3  A    between atoms: C_7  and  C_9 
REMARK    4  A    between atoms: C_8  and  C_15 
ROOT
HETATM    1  O   UNK N   1      33.872  10.940  14.118  0.00  0.00    -0.272 OA
HETATM    2  O   UNK N   1      36.958  14.336  15.221  0.00  0.00    -0.272 OA
HETATM    3  O   UNK N   1      35.169  13.992  11.168  0.00  0.00    -0.247 OA
HETATM    4  N   UNK N   1      34.517  12.470  12.650  0.00  0.00    -0.278 N 
HETATM    5  N   UNK N   1      36.068  14.158  13.196  0.00  0.00    -0.278 N 
HETATM    6  C   UNK N   1      35.434  12.517  14.997  0.00  0.00     0.128 A 
HETATM    7  C   UNK N   1      34.551  11.930  13.892  0.00  0.00     0.244 A 
HETATM    8  C   UNK N   1      36.205  13.728  14.475  0.00  0.00     0.244 A 
HETATM    9  C   UNK N   1      35.248  13.554  12.304  0.00  0.00     0.329 A 
HETATM   10  H   UNK N   1      33.936  12.057  11.972  0.00  0.00     0.173 HD
HETATM   11  H   UNK N   1      36.585  14.943  12.904  0.00  0.00     0.173 HD
ENDROOT
BRANCH   6  12
HETATM   12  C   UNK N   1      36.428  11.416  15.488  0.00  0.00     0.008 C 
HETATM   13  C   UNK N   1      35.698  10.199  16.043  0.00  0.00     0.011 C 
BRANCH  12  14
HETATM   14  C   UNK N   1      37.425  10.925  14.435  0.00  0.00     0.001 C 
HETATM   15  C   UNK N   1      38.211   9.722  14.919  0.00  0.00     0.005 C 
ENDBRANCH  12  14
ENDBRANCH   6  12
BRANCH   6  16
HETATM   16  C   UNK N   1      34.547  13.025  16.162  0.00  0.00     0.056 C 
BRANCH  16  17
HETATM   17  C   UNK N   1      35.164  13.041  17.537  0.00  0.00    -0.035 C 
HETATM   18  C   UNK N   1      35.250  14.151  18.265  0.00  0.00     0.007 C 
ENDBRANCH  16  17
ENDBRANCH   6  16
TORSDOF 4
ENDMDL
MODEL 9
REMARK VINA RESULT:      -4.8     12.896     14.784
REMARK  4 active torsions:
REMARK  status: ('A' for Active; 'I' for Inactive)
REMARK    1  A    between atoms: C_6  and  C_7 
REMARK    2  A    between atoms: C_6  and  C_8 
REMARK    3  A    between atoms: C_7  and  C_9 
REMARK    4  A    between atoms: C_8  and  C_15 
ROOT
HETATM    1  O   UNK N   1      29.605  24.250  -5.960  0.00  0.00    -0.272 OA
HETATM    2  O   UNK N   1      30.436  22.833  -1.536  0.00  0.00    -0.272 OA
HETATM    3  O   UNK N   1      26.369  23.944  -2.939  0.00  0.00    -0.247 OA
HETATM    4  N   UNK N   1      27.991  24.089  -4.450  0.00  0.00    -0.278 N 
HETATM    5  N   UNK N   1      28.408  23.395  -2.238  0.00  0.00    -0.278 N 
HETATM    6  C   UNK N   1      30.359  23.498  -3.824  0.00  0.00     0.128 A 
HETATM    7  C   UNK N   1      29.290  23.964  -4.815  0.00  0.00     0.244 A 
HETATM    8  C   UNK N   1      29.734  23.224  -2.457  0.00  0.00     0.244 A 
HETATM    9  C   UNK N   1      27.554  23.812  -3.201  0.00  0.00     0.329 A 
HETATM   10  H   UNK N   1      27.340  24.394  -5.121  0.00  0.00     0.173 HD
HETATM   11  H   UNK N   1      28.049  23.206  -1.340  0.00  0.00     0.173 HD
ENDROOT
BRANCH   6  12
HETATM   12  C   UNK N   1      31.454  24.607  -3.704  0.00  0.00     0.008 C 
HETATM   13  C   UNK N   1      32.485  24.510  -4.821  0.00  0.00     0.011 C 
BRANCH  12  14
HETATM   14  C   UNK N   1      30.924  26.043  -3.678  0.00  0.00     0.001 C 
HETATM   15  C   UNK N   1      31.723  26.955  -4.587  0.00  0.00     0.005 C 
ENDBRANCH  12  14
ENDBRANCH   6  12
BRANCH   6  16
HETATM   16  C   UNK N   1      30.973  22.159  -4.306  0.00  0.00     0.056 C 
BRANCH  16  17
HETATM   17  C   UNK N   1      30.064  21.218  -5.054  0.00  0.00    -0.035 C 
HETATM   18  C   UNK N   1      30.437  20.612  -6.178  0.00  0.00     0.007 C 
ENDBRANCH  16  17
ENDBRANCH   6  16
TORSDOF 4
ENDMDL
