REMARK  1 active torsions:
REMARK  status: ('A' for Active; 'I' for Inactive)
REMARK    1  A    between atoms: N_4  and  C_11 
ROOT
HETATM    1 Cl   UNK N   1       1.995  -4.247   0.809  0.00  0.00    -0.084 Cl
HETATM    2  O   UNK N   1       5.790   2.086   0.547  0.00  0.00    -0.272 OA
HETATM    3  O   UNK N   1       2.392   3.805  -0.139  0.00  0.00    -0.273 OA
HETATM    4  N   UNK N   1       4.530   0.222   0.275  0.00  0.00    -0.280 N 
HETATM    5  N   UNK N   1       1.800   1.653  -0.336  0.00  0.00    -0.320 N 
HETATM    6  C   UNK N   1       3.207  -0.407   0.294  0.00  0.00     0.071 A 
HETATM    7  C   UNK N   1       1.949   0.260   0.002  0.00  0.00     0.064 A 
HETATM    8  C   UNK N   1       3.601   2.349   1.191  0.00  0.00     0.206 C 
HETATM    9  C   UNK N   1       4.698   1.544   0.628  0.00  0.00     0.237 C 
HETATM   10  C   UNK N   1       2.583   2.637   0.173  0.00  0.00     0.232 C 
HETATM   11  C   UNK N   1       3.151  -1.796   0.546  0.00  0.00     0.056 A 
HETATM   12  C   UNK N   1       0.774  -0.523  -0.038  0.00  0.00     0.034 A 
HETATM   13  C   UNK N   1       0.677   2.044  -1.168  0.00  0.00     0.159 C 
HETATM   14  C   UNK N   1       1.969  -2.522   0.515  0.00  0.00     0.036 A 
HETATM   15  C   UNK N   1       0.779  -1.887   0.219  0.00  0.00     0.026 A 
ENDROOT
BRANCH   4  16
HETATM   16  C   UNK N   1       5.708  -0.592  -0.037  0.00  0.00     0.042 A 
HETATM   17  C   UNK N   1       7.004  -0.196   0.364  0.00  0.00     0.030 A 
HETATM   18  C   UNK N   1       8.122  -0.994   0.110  0.00  0.00     0.002 A 
HETATM   19  C   UNK N   1       7.975  -2.209  -0.555  0.00  0.00     0.000 A 
HETATM   20  C   UNK N   1       6.711  -2.621  -0.974  0.00  0.00     0.002 A 
HETATM   21  C   UNK N   1       5.593  -1.822  -0.719  0.00  0.00     0.030 A 
ENDBRANCH   4  16
TORSDOF 1
