MODEL 1
REMARK VINA RESULT:      -6.9      0.000      0.000
REMARK  6 active torsions:
REMARK  status: ('A' for Active; 'I' for Inactive)
REMARK    1  A    between atoms: N_4  and  C_8 
REMARK    2  A    between atoms: N_5  and  C_9 
REMARK    3  A    between atoms: N_5  and  C_11 
REMARK    4  A    between atoms: N_5  and  C_12 
REMARK    5  A    between atoms: C_8  and  C_9 
REMARK    6  A    between atoms: C_15  and  C_21 
ROOT
HETATM    1 Cl   UNK N   1      29.082  14.525   2.933  0.00  0.00    -0.084 Cl
HETATM    2  O   UNK N   1      30.024  18.803   9.798  0.00  0.00    -0.271 OA
HETATM    3  N   UNK N   1      30.324  17.403   8.077  0.00  0.00    -0.314 N 
HETATM    4  N   UNK N   1      27.619  18.808   7.432  0.00  0.00    -0.380 N 
ATOM      5  HN  UNK N   1      27.089  19.679   7.477  1.00  0.00     0.160 HD
HETATM    6  C   UNK N   1      29.883  16.732   6.866  0.00  0.00     0.050 A 
HETATM    7  C   UNK N   1      28.756  17.122   6.035  0.00  0.00     0.020 A 
HETATM    8  C   UNK N   1      29.544  18.220   8.834  0.00  0.00     0.242 C 
HETATM    9  C   UNK N   1      27.803  18.300   6.265  0.00  0.00     0.054 C 
HETATM   10  C   UNK N   1      28.084  18.272   8.668  0.00  0.00     0.223 C 
HETATM   11  C   UNK N   1      30.701  15.672   6.407  0.00  0.00     0.032 A 
HETATM   12  C   UNK N   1      28.566  16.394   4.844  0.00  0.00     0.040 A 
HETATM   13  C   UNK N   1      30.459  14.988   5.228  0.00  0.00     0.026 A 
HETATM   14  C   UNK N   1      29.386  15.351   4.445  0.00  0.00     0.035 A 
ENDROOT
BRANCH   3  15
HETATM   15  C   UNK N   1      31.659  17.110   8.588  0.00  0.00     0.162 C 
BRANCH  15  16
HETATM   16  C   UNK N   1      32.614  18.230   8.162  0.00  0.00     0.292 C 
BRANCH  16  17
HETATM   17  N   UNK N   1      33.932  17.719   7.824  0.00  0.00     0.089 N 
BRANCH  17  18
HETATM   18  C   UNK N   1      33.876  17.322   6.424  0.00  0.00     0.268 C 
HETATM   19  C   UNK N   1      34.471  15.937   6.252  0.00  0.00     0.037 C 
ENDBRANCH  17  18
BRANCH  17  20
HETATM   20  C   UNK N   1      34.111  16.504   8.605  0.00  0.00     0.268 C 
HETATM   21  C   UNK N   1      34.983  16.779   9.816  0.00  0.00     0.037 C 
ENDBRANCH  17  20
ENDBRANCH  16  17
ENDBRANCH  15  16
ENDBRANCH   3  15
BRANCH   9  22
HETATM   22  C   UNK N   1      26.906  18.854   5.157  0.00  0.00     0.030 A 
HETATM   23  C   UNK N   1      27.357  19.892   4.293  0.00  0.00     0.128 A 
HETATM   24  F   UNK N   1      28.614  20.390   4.373  0.00  0.00    -0.205 F 
HETATM   25  C   UNK N   1      26.499  20.438   3.331  0.00  0.00     0.043 A 
HETATM   26  C   UNK N   1      25.190  19.979   3.202  0.00  0.00     0.003 A 
HETATM   27  C   UNK N   1      24.734  18.957   4.028  0.00  0.00     0.001 A 
HETATM   28  C   UNK N   1      25.583  18.404   4.987  0.00  0.00     0.017 A 
ENDBRANCH   9  22
TORSDOF 6
ENDMDL
MODEL 2
REMARK VINA RESULT:      -6.6     11.025     12.788
REMARK  6 active torsions:
REMARK  status: ('A' for Active; 'I' for Inactive)
REMARK    1  A    between atoms: N_4  and  C_8 
REMARK    2  A    between atoms: N_5  and  C_9 
REMARK    3  A    between atoms: N_5  and  C_11 
REMARK    4  A    between atoms: N_5  and  C_12 
REMARK    5  A    between atoms: C_8  and  C_9 
REMARK    6  A    between atoms: C_15  and  C_21 
ROOT
HETATM    1 Cl   UNK N   1      27.994  21.388  -9.077  0.00  0.00    -0.084 Cl
HETATM    2  O   UNK N   1      30.806  22.907  -1.586  0.00  0.00    -0.271 OA
HETATM    3  N   UNK N   1      30.515  22.092  -3.652  0.00  0.00    -0.314 N 
HETATM    4  N   UNK N   1      28.291  24.257  -3.383  0.00  0.00    -0.380 N 
ATOM      5  HN  UNK N   1      28.046  25.172  -3.006  1.00  0.00     0.160 HD
HETATM    6  C   UNK N   1      29.782  21.970  -4.900  0.00  0.00     0.050 A 
HETATM    7  C   UNK N   1      28.744  22.869  -5.374  0.00  0.00     0.020 A 
HETATM    8  C   UNK N   1      30.085  22.796  -2.570  0.00  0.00     0.242 C 
HETATM    9  C   UNK N   1      28.204  24.114  -4.659  0.00  0.00     0.054 C 
HETATM   10  C   UNK N   1      28.696  23.261  -2.449  0.00  0.00     0.223 C 
HETATM   11  C   UNK N   1      30.205  20.939  -5.773  0.00  0.00     0.032 A 
HETATM   12  C   UNK N   1      28.234  22.625  -6.664  0.00  0.00     0.040 A 
HETATM   13  C   UNK N   1      29.661  20.745  -7.031  0.00  0.00     0.026 A 
HETATM   14  C   UNK N   1      28.670  21.591  -7.476  0.00  0.00     0.035 A 
ENDROOT
BRANCH   3  15
HETATM   15  C   UNK N   1      31.749  21.329  -3.491  0.00  0.00     0.162 C 
BRANCH  15  16
HETATM   16  C   UNK N   1      32.896  22.086  -4.170  0.00  0.00     0.292 C 
BRANCH  16  17
HETATM   17  N   UNK N   1      34.035  21.222  -4.428  0.00  0.00     0.089 N 
BRANCH  17  18
HETATM   18  C   UNK N   1      33.974  20.865  -5.839  0.00  0.00     0.268 C 
HETATM   19  C   UNK N   1      33.637  22.089  -6.670  0.00  0.00     0.037 C 
ENDBRANCH  17  18
BRANCH  17  20
HETATM   20  C   UNK N   1      33.804  20.002  -3.670  0.00  0.00     0.268 C 
HETATM   21  C   UNK N   1      34.363  18.804  -4.415  0.00  0.00     0.037 C 
ENDBRANCH  17  20
ENDBRANCH  16  17
ENDBRANCH  15  16
ENDBRANCH   3  15
BRANCH   9  22
HETATM   22  C   UNK N   1      27.406  25.194  -5.390  0.00  0.00     0.030 A 
HETATM   23  C   UNK N   1      25.983  25.219  -5.342  0.00  0.00     0.128 A 
HETATM   24  F   UNK N   1      25.279  24.328  -4.602  0.00  0.00    -0.205 F 
HETATM   25  C   UNK N   1      25.264  26.172  -6.074  0.00  0.00     0.043 A 
HETATM   26  C   UNK N   1      25.926  27.110  -6.863  0.00  0.00     0.003 A 
HETATM   27  C   UNK N   1      27.316  27.111  -6.913  0.00  0.00     0.001 A 
HETATM   28  C   UNK N   1      28.040  26.168  -6.184  0.00  0.00     0.017 A 
ENDBRANCH   9  22
TORSDOF 6
ENDMDL
MODEL 3
REMARK VINA RESULT:      -6.6      1.321      2.064
REMARK  6 active torsions:
REMARK  status: ('A' for Active; 'I' for Inactive)
REMARK    1  A    between atoms: N_4  and  C_8 
REMARK    2  A    between atoms: N_5  and  C_9 
REMARK    3  A    between atoms: N_5  and  C_11 
REMARK    4  A    between atoms: N_5  and  C_12 
REMARK    5  A    between atoms: C_8  and  C_9 
REMARK    6  A    between atoms: C_15  and  C_21 
ROOT
HETATM    1 Cl   UNK N   1      27.967  14.553   2.681  0.00  0.00    -0.084 Cl
HETATM    2  O   UNK N   1      29.871  18.704   9.424  0.00  0.00    -0.271 OA
HETATM    3  N   UNK N   1      29.869  17.253   7.718  0.00  0.00    -0.314 N 
HETATM    4  N   UNK N   1      27.400  19.069   7.155  0.00  0.00    -0.380 N 
ATOM      5  HN  UNK N   1      27.020  20.014   7.205  1.00  0.00     0.160 HD
HETATM    6  C   UNK N   1      29.276  16.648   6.538  0.00  0.00     0.050 A 
HETATM    7  C   UNK N   1      28.193  17.204   5.745  0.00  0.00     0.020 A 
HETATM    8  C   UNK N   1      29.262  18.194   8.490  0.00  0.00     0.242 C 
HETATM    9  C   UNK N   1      27.451  18.524   5.991  0.00  0.00     0.054 C 
HETATM   10  C   UNK N   1      27.825  18.479   8.381  0.00  0.00     0.223 C 
HETATM   11  C   UNK N   1      29.893  15.464   6.067  0.00  0.00     0.032 A 
HETATM   12  C   UNK N   1      27.838  16.503   4.577  0.00  0.00     0.040 A 
HETATM   13  C   UNK N   1      29.495  14.815   4.912  0.00  0.00     0.026 A 
HETATM   14  C   UNK N   1      28.462  15.337   4.165  0.00  0.00     0.035 A 
ENDROOT
BRANCH   3  15
HETATM   15  C   UNK N   1      31.160  16.755   8.182  0.00  0.00     0.162 C 
BRANCH  15  16
HETATM   16  C   UNK N   1      32.273  17.630   7.595  0.00  0.00     0.292 C 
BRANCH  16  17
HETATM   17  N   UNK N   1      33.144  16.876   6.709  0.00  0.00     0.089 N 
BRANCH  17  18
HETATM   18  C   UNK N   1      34.509  17.148   7.139  0.00  0.00     0.268 C 
HETATM   19  C   UNK N   1      34.521  18.281   8.147  0.00  0.00     0.037 C 
ENDBRANCH  17  18
BRANCH  17  20
HETATM   20  C   UNK N   1      32.989  17.464   5.387  0.00  0.00     0.268 C 
HETATM   21  C   UNK N   1      33.246  16.423   4.314  0.00  0.00     0.037 C 
ENDBRANCH  17  20
ENDBRANCH  16  17
ENDBRANCH  15  16
ENDBRANCH   3  15
BRANCH   9  22
HETATM   22  C   UNK N   1      26.609  19.203   4.910  0.00  0.00     0.030 A 
HETATM   23  C   UNK N   1      25.259  18.817   4.676  0.00  0.00     0.128 A 
HETATM   24  F   UNK N   1      24.644  17.878   5.436  0.00  0.00    -0.205 F 
HETATM   25  C   UNK N   1      24.524  19.397   3.635  0.00  0.00     0.043 A 
HETATM   26  C   UNK N   1      25.099  20.361   2.810  0.00  0.00     0.003 A 
HETATM   27  C   UNK N   1      26.413  20.762   3.030  0.00  0.00     0.001 A 
HETATM   28  C   UNK N   1      27.151  20.191   4.067  0.00  0.00     0.017 A 
ENDBRANCH   9  22
TORSDOF 6
ENDMDL
MODEL 4
REMARK VINA RESULT:      -6.5      6.114      8.019
REMARK  6 active torsions:
REMARK  status: ('A' for Active; 'I' for Inactive)
REMARK    1  A    between atoms: N_4  and  C_8 
REMARK    2  A    between atoms: N_5  and  C_9 
REMARK    3  A    between atoms: N_5  and  C_11 
REMARK    4  A    between atoms: N_5  and  C_12 
REMARK    5  A    between atoms: C_8  and  C_9 
REMARK    6  A    between atoms: C_15  and  C_21 
ROOT
HETATM    1 Cl   UNK N   1      24.641  14.438   1.287  0.00  0.00    -0.084 Cl
HETATM    2  O   UNK N   1      20.978  16.444   8.279  0.00  0.00    -0.271 OA
HETATM    3  N   UNK N   1      21.844  15.315   6.549  0.00  0.00    -0.314 N 
HETATM    4  N   UNK N   1      22.543  18.287   5.926  0.00  0.00    -0.380 N 
ATOM      5  HN  UNK N   1      22.818  19.189   6.316  1.00  0.00     0.160 HD
HETATM    6  C   UNK N   1      22.477  15.240   5.243  0.00  0.00     0.050 A 
HETATM    7  C   UNK N   1      23.157  16.326   4.559  0.00  0.00     0.020 A 
HETATM    8  C   UNK N   1      21.434  16.469   7.141  0.00  0.00     0.242 C 
HETATM    9  C   UNK N   1      23.337  17.764   5.059  0.00  0.00     0.054 C 
HETATM   10  C   UNK N   1      21.318  17.728   6.392  0.00  0.00     0.223 C 
HETATM   11  C   UNK N   1      22.523  13.957   4.646  0.00  0.00     0.032 A 
HETATM   12  C   UNK N   1      23.794  16.008   3.343  0.00  0.00     0.040 A 
HETATM   13  C   UNK N   1      23.160  13.707   3.443  0.00  0.00     0.026 A 
HETATM   14  C   UNK N   1      23.797  14.738   2.789  0.00  0.00     0.035 A 
ENDROOT
BRANCH   3  15
HETATM   15  C   UNK N   1      21.524  14.071   7.241  0.00  0.00     0.162 C 
BRANCH  15  16
HETATM   16  C   UNK N   1      22.755  13.607   8.028  0.00  0.00     0.292 C 
BRANCH  16  17
HETATM   17  N   UNK N   1      22.424  12.562   8.982  0.00  0.00     0.089 N 
BRANCH  17  18
HETATM   18  C   UNK N   1      21.811  13.223  10.126  0.00  0.00     0.268 C 
HETATM   19  C   UNK N   1      21.455  12.201  11.188  0.00  0.00     0.037 C 
ENDBRANCH  17  18
BRANCH  17  20
HETATM   20  C   UNK N   1      23.690  12.009   9.438  0.00  0.00     0.268 C 
HETATM   21  C   UNK N   1      24.728  13.108   9.572  0.00  0.00     0.037 C 
ENDBRANCH  17  20
ENDBRANCH  16  17
ENDBRANCH  15  16
ENDBRANCH   3  15
BRANCH   9  22
HETATM   22  C   UNK N   1      24.378  18.713   4.463  0.00  0.00     0.030 A 
HETATM   23  C   UNK N   1      24.016  19.685   3.487  0.00  0.00     0.128 A 
HETATM   24  F   UNK N   1      22.731  19.852   3.090  0.00  0.00    -0.205 F 
HETATM   25  C   UNK N   1      24.992  20.498   2.899  0.00  0.00     0.043 A 
HETATM   26  C   UNK N   1      26.332  20.371   3.254  0.00  0.00     0.003 A 
HETATM   27  C   UNK N   1      26.705  19.436   4.215  0.00  0.00     0.001 A 
HETATM   28  C   UNK N   1      25.739  18.625   4.809  0.00  0.00     0.017 A 
ENDBRANCH   9  22
TORSDOF 6
ENDMDL
MODEL 5
REMARK VINA RESULT:      -6.5     10.870     14.246
REMARK  6 active torsions:
REMARK  status: ('A' for Active; 'I' for Inactive)
REMARK    1  A    between atoms: N_4  and  C_8 
REMARK    2  A    between atoms: N_5  and  C_9 
REMARK    3  A    between atoms: N_5  and  C_11 
REMARK    4  A    between atoms: N_5  and  C_12 
REMARK    5  A    between atoms: C_8  and  C_9 
REMARK    6  A    between atoms: C_15  and  C_21 
ROOT
HETATM    1 Cl   UNK N   1      33.777  26.329  -5.349  0.00  0.00    -0.084 Cl
HETATM    2  O   UNK N   1      26.423  23.782  -2.949  0.00  0.00    -0.271 OA
HETATM    3  N   UNK N   1      28.111  24.960  -3.832  0.00  0.00    -0.314 N 
HETATM    4  N   UNK N   1      29.488  22.385  -2.745  0.00  0.00    -0.380 N 
ATOM      5  HN  UNK N   1      29.402  21.379  -2.604  1.00  0.00     0.160 HD
HETATM    6  C   UNK N   1      29.520  25.206  -4.086  0.00  0.00     0.050 A 
HETATM    7  C   UNK N   1      30.597  24.244  -3.931  0.00  0.00     0.020 A 
HETATM    8  C   UNK N   1      27.632  23.961  -3.044  0.00  0.00     0.242 C 
HETATM    9  C   UNK N   1      30.476  22.789  -3.464  0.00  0.00     0.054 C 
HETATM   10  C   UNK N   1      28.503  23.209  -2.128  0.00  0.00     0.223 C 
HETATM   11  C   UNK N   1      29.843  26.470  -4.638  0.00  0.00     0.032 A 
HETATM   12  C   UNK N   1      31.882  24.660  -4.333  0.00  0.00     0.040 A 
HETATM   13  C   UNK N   1      31.128  26.824  -5.008  0.00  0.00     0.026 A 
HETATM   14  C   UNK N   1      32.152  25.915  -4.853  0.00  0.00     0.035 A 
ENDROOT
BRANCH   3  15
HETATM   15  C   UNK N   1      27.132  25.901  -4.367  0.00  0.00     0.162 C 
BRANCH  15  16
HETATM   16  C   UNK N   1      26.649  26.816  -3.236  0.00  0.00     0.292 C 
BRANCH  16  17
HETATM   17  N   UNK N   1      25.788  27.878  -3.729  0.00  0.00     0.089 N 
BRANCH  17  18
HETATM   18  C   UNK N   1      25.784  27.767  -5.182  0.00  0.00     0.268 C 
HETATM   19  C   UNK N   1      24.438  27.256  -5.660  0.00  0.00     0.037 C 
ENDBRANCH  17  18
BRANCH  17  20
HETATM   20  C   UNK N   1      26.453  29.130  -3.399  0.00  0.00     0.268 C 
HETATM   21  C   UNK N   1      27.011  29.777  -4.653  0.00  0.00     0.037 C 
ENDBRANCH  17  20
ENDBRANCH  16  17
ENDBRANCH  15  16
ENDBRANCH   3  15
BRANCH   9  22
HETATM   22  C   UNK N   1      31.582  21.759  -3.698  0.00  0.00     0.030 A 
HETATM   23  C   UNK N   1      31.492  20.807  -4.753  0.00  0.00     0.128 A 
HETATM   24  F   UNK N   1      30.458  20.808  -5.628  0.00  0.00    -0.205 F 
HETATM   25  C   UNK N   1      32.479  19.826  -4.910  0.00  0.00     0.043 A 
HETATM   26  C   UNK N   1      33.563  19.761  -4.039  0.00  0.00     0.003 A 
HETATM   27  C   UNK N   1      33.676  20.690  -3.009  0.00  0.00     0.001 A 
HETATM   28  C   UNK N   1      32.701  21.673  -2.848  0.00  0.00     0.017 A 
ENDBRANCH   9  22
TORSDOF 6
ENDMDL
MODEL 6
REMARK VINA RESULT:      -6.5      2.561      7.025
REMARK  6 active torsions:
REMARK  status: ('A' for Active; 'I' for Inactive)
REMARK    1  A    between atoms: N_4  and  C_8 
REMARK    2  A    between atoms: N_5  and  C_9 
REMARK    3  A    between atoms: N_5  and  C_11 
REMARK    4  A    between atoms: N_5  and  C_12 
REMARK    5  A    between atoms: C_8  and  C_9 
REMARK    6  A    between atoms: C_15  and  C_21 
ROOT
HETATM    1 Cl   UNK N   1      33.514  15.794   3.495  0.00  0.00    -0.084 Cl
HETATM    2  O   UNK N   1      28.025  18.539   8.849  0.00  0.00    -0.271 OA
HETATM    3  N   UNK N   1      29.068  17.892   6.976  0.00  0.00    -0.314 N 
HETATM    4  N   UNK N   1      31.147  17.316   9.224  0.00  0.00    -0.380 N 
ATOM      5  HN  UNK N   1      31.285  17.004  10.185  1.00  0.00     0.160 HD
HETATM    6  C   UNK N   1      30.233  17.434   6.239  0.00  0.00     0.050 A 
HETATM    7  C   UNK N   1      31.438  16.862   6.815  0.00  0.00     0.020 A 
HETATM    8  C   UNK N   1      29.073  18.236   8.292  0.00  0.00     0.242 C 
HETATM    9  C   UNK N   1      31.733  16.635   8.303  0.00  0.00     0.054 C 
HETATM   10  C   UNK N   1      30.324  18.463   9.030  0.00  0.00     0.223 C 
HETATM   11  C   UNK N   1      30.125  17.450   4.828  0.00  0.00     0.032 A 
HETATM   12  C   UNK N   1      32.408  16.385   5.912  0.00  0.00     0.040 A 
HETATM   13  C   UNK N   1      31.117  16.972   3.990  0.00  0.00     0.026 A 
HETATM   14  C   UNK N   1      32.263  16.438   4.535  0.00  0.00     0.035 A 
ENDROOT
BRANCH   3  15
HETATM   15  C   UNK N   1      27.822  18.104   6.246  0.00  0.00     0.162 C 
BRANCH  15  16
HETATM   16  C   UNK N   1      27.819  19.521   5.664  0.00  0.00     0.292 C 
BRANCH  16  17
HETATM   17  N   UNK N   1      26.469  20.017   5.453  0.00  0.00     0.089 N 
BRANCH  17  18
HETATM   18  C   UNK N   1      26.290  20.131   4.011  0.00  0.00     0.268 C 
HETATM   19  C   UNK N   1      25.629  18.879   3.468  0.00  0.00     0.037 C 
ENDBRANCH  17  18
BRANCH  17  20
HETATM   20  C   UNK N   1      26.440  21.367   5.994  0.00  0.00     0.268 C 
HETATM   21  C   UNK N   1      26.267  21.327   7.501  0.00  0.00     0.037 C 
ENDBRANCH  17  20
ENDBRANCH  16  17
ENDBRANCH  15  16
ENDBRANCH   3  15
BRANCH   9  22
HETATM   22  C   UNK N   1      32.838  15.693   8.783  0.00  0.00     0.030 A 
HETATM   23  C   UNK N   1      34.132  16.184   9.118  0.00  0.00     0.128 A 
HETATM   24  F   UNK N   1      34.423  17.507   9.084  0.00  0.00    -0.205 F 
HETATM   25  C   UNK N   1      35.153  15.300   9.488  0.00  0.00     0.043 A 
HETATM   26  C   UNK N   1      34.923  13.927   9.533  0.00  0.00     0.003 A 
HETATM   27  C   UNK N   1      33.662  13.428   9.223  0.00  0.00     0.001 A 
HETATM   28  C   UNK N   1      32.638  14.302   8.858  0.00  0.00     0.017 A 
ENDBRANCH   9  22
TORSDOF 6
ENDMDL
MODEL 7
REMARK VINA RESULT:      -6.3      5.858     10.185
REMARK  6 active torsions:
REMARK  status: ('A' for Active; 'I' for Inactive)
REMARK    1  A    between atoms: N_4  and  C_8 
REMARK    2  A    between atoms: N_5  and  C_9 
REMARK    3  A    between atoms: N_5  and  C_11 
REMARK    4  A    between atoms: N_5  and  C_12 
REMARK    5  A    between atoms: C_8  and  C_9 
REMARK    6  A    between atoms: C_15  and  C_21 
ROOT
HETATM    1 Cl   UNK N   1      33.739   9.455  10.322  0.00  0.00    -0.084 Cl
HETATM    2  O   UNK N   1      35.334  17.441  10.278  0.00  0.00    -0.271 OA
HETATM    3  N   UNK N   1      34.503  15.410   9.832  0.00  0.00    -0.314 N 
HETATM    4  N   UNK N   1      36.426  14.919  12.235  0.00  0.00    -0.380 N 
ATOM      5  HN  UNK N   1      36.795  15.292  13.109  1.00  0.00     0.160 HD
HETATM    6  C   UNK N   1      34.455  13.968  10.006  0.00  0.00     0.050 A 
HETATM    7  C   UNK N   1      35.034  13.220  11.108  0.00  0.00     0.020 A 
HETATM    8  C   UNK N   1      35.416  16.227  10.423  0.00  0.00     0.242 C 
HETATM    9  C   UNK N   1      35.819  13.786  12.298  0.00  0.00     0.054 C 
HETATM   10  C   UNK N   1      36.631  15.701  11.062  0.00  0.00     0.223 C 
HETATM   11  C   UNK N   1      33.673  13.253   9.067  0.00  0.00     0.032 A 
HETATM   12  C   UNK N   1      34.780  11.835  11.137  0.00  0.00     0.040 A 
HETATM   13  C   UNK N   1      33.464  11.887   9.144  0.00  0.00     0.026 A 
HETATM   14  C   UNK N   1      34.021  11.176  10.184  0.00  0.00     0.035 A 
ENDROOT
BRANCH   3  15
HETATM   15  C   UNK N   1      33.585  16.028   8.882  0.00  0.00     0.162 C 
BRANCH  15  16
HETATM   16  C   UNK N   1      34.324  16.280   7.563  0.00  0.00     0.292 C 
BRANCH  16  17
HETATM   17  N   UNK N   1      33.433  16.199   6.419  0.00  0.00     0.089 N 
BRANCH  17  18
HETATM   18  C   UNK N   1      33.949  15.136   5.566  0.00  0.00     0.268 C 
HETATM   19  C   UNK N   1      35.439  14.968   5.789  0.00  0.00     0.037 C 
ENDBRANCH  17  18
BRANCH  17  20
HETATM   20  C   UNK N   1      33.591  17.447   5.688  0.00  0.00     0.268 C 
HETATM   21  C   UNK N   1      32.807  17.400   4.390  0.00  0.00     0.037 C 
ENDBRANCH  17  20
ENDBRANCH  16  17
ENDBRANCH  15  16
ENDBRANCH   3  15
BRANCH   9  22
HETATM   22  C   UNK N   1      36.051  12.986  13.580  0.00  0.00     0.030 A 
HETATM   23  C   UNK N   1      37.109  12.038  13.677  0.00  0.00     0.128 A 
HETATM   24  F   UNK N   1      37.989  11.847  12.665  0.00  0.00    -0.205 F 
HETATM   25  C   UNK N   1      37.264  11.263  14.832  0.00  0.00     0.043 A 
HETATM   26  C   UNK N   1      36.388  11.402  15.905  0.00  0.00     0.003 A 
HETATM   27  C   UNK N   1      35.355  12.331  15.836  0.00  0.00     0.001 A 
HETATM   28  C   UNK N   1      35.196  13.111  14.691  0.00  0.00     0.017 A 
ENDBRANCH   9  22
TORSDOF 6
ENDMDL
MODEL 8
REMARK VINA RESULT:      -6.3      7.547      9.172
REMARK  6 active torsions:
REMARK  status: ('A' for Active; 'I' for Inactive)
REMARK    1  A    between atoms: N_4  and  C_8 
REMARK    2  A    between atoms: N_5  and  C_9 
REMARK    3  A    between atoms: N_5  and  C_11 
REMARK    4  A    between atoms: N_5  and  C_12 
REMARK    5  A    between atoms: C_8  and  C_9 
REMARK    6  A    between atoms: C_15  and  C_21 
ROOT
HETATM    1 Cl   UNK N   1      19.431  18.309   9.058  0.00  0.00    -0.084 Cl
HETATM    2  O   UNK N   1      22.929  12.179   4.993  0.00  0.00    -0.271 OA
HETATM    3  N   UNK N   1      21.841  13.407   6.518  0.00  0.00    -0.314 N 
HETATM    4  N   UNK N   1      22.478  15.437   4.241  0.00  0.00    -0.380 N 
ATOM      5  HN  UNK N   1      22.562  15.576   3.234  1.00  0.00     0.160 HD
HETATM    6  C   UNK N   1      21.357  14.668   7.053  0.00  0.00     0.050 A 
HETATM    7  C   UNK N   1      21.246  15.920   6.324  0.00  0.00     0.020 A 
HETATM    8  C   UNK N   1      22.631  13.290   5.416  0.00  0.00     0.242 C 
HETATM    9  C   UNK N   1      21.624  16.173   4.860  0.00  0.00     0.054 C 
HETATM   10  C   UNK N   1      23.319  14.447   4.827  0.00  0.00     0.223 C 
HETATM   11  C   UNK N   1      20.846  14.630   8.373  0.00  0.00     0.032 A 
HETATM   12  C   UNK N   1      20.651  17.000   7.006  0.00  0.00     0.040 A 
HETATM   13  C   UNK N   1      20.277  15.728   8.993  0.00  0.00     0.026 A 
HETATM   14  C   UNK N   1      20.180  16.918   8.306  0.00  0.00     0.035 A 
ENDROOT
BRANCH   3  15
HETATM   15  C   UNK N   1      21.559  12.182   7.258  0.00  0.00     0.162 C 
BRANCH  15  16
HETATM   16  C   UNK N   1      22.829  11.740   7.995  0.00  0.00     0.292 C 
BRANCH  16  17
HETATM   17  N   UNK N   1      23.070  12.539   9.184  0.00  0.00     0.089 N 
BRANCH  17  18
HETATM   18  C   UNK N   1      24.516  12.660   9.316  0.00  0.00     0.268 C 
HETATM   19  C   UNK N   1      25.059  13.595   8.253  0.00  0.00     0.037 C 
ENDBRANCH  17  18
BRANCH  17  20
HETATM   20  C   UNK N   1      22.604  11.747  10.312  0.00  0.00     0.268 C 
HETATM   21  C   UNK N   1      23.556  11.887  11.484  0.00  0.00     0.037 C 
ENDBRANCH  17  20
ENDBRANCH  16  17
ENDBRANCH  15  16
ENDBRANCH   3  15
BRANCH   9  22
HETATM   22  C   UNK N   1      21.122  17.392   4.085  0.00  0.00     0.030 A 
HETATM   23  C   UNK N   1      21.866  18.606   4.057  0.00  0.00     0.128 A 
HETATM   24  F   UNK N   1      23.073  18.716   4.664  0.00  0.00    -0.205 F 
HETATM   25  C   UNK N   1      21.359  19.735   3.403  0.00  0.00     0.043 A 
HETATM   26  C   UNK N   1      20.120  19.693   2.769  0.00  0.00     0.003 A 
HETATM   27  C   UNK N   1      19.383  18.513   2.772  0.00  0.00     0.001 A 
HETATM   28  C   UNK N   1      19.883  17.382   3.419  0.00  0.00     0.017 A 
ENDBRANCH   9  22
TORSDOF 6
ENDMDL
MODEL 9
REMARK VINA RESULT:      -6.2      2.596      6.990
REMARK  6 active torsions:
REMARK  status: ('A' for Active; 'I' for Inactive)
REMARK    1  A    between atoms: N_4  and  C_8 
REMARK    2  A    between atoms: N_5  and  C_9 
REMARK    3  A    between atoms: N_5  and  C_11 
REMARK    4  A    between atoms: N_5  and  C_12 
REMARK    5  A    between atoms: C_8  and  C_9 
REMARK    6  A    between atoms: C_15  and  C_21 
ROOT
HETATM    1 Cl   UNK N   1      33.199  16.623   3.512  0.00  0.00    -0.084 Cl
HETATM    2  O   UNK N   1      27.615  17.537   9.369  0.00  0.00    -0.271 OA
HETATM    3  N   UNK N   1      28.651  17.365   7.391  0.00  0.00    -0.314 N 
HETATM    4  N   UNK N   1      30.918  16.854   9.468  0.00  0.00    -0.380 N 
ATOM      5  HN  UNK N   1      31.160  16.437  10.367  1.00  0.00     0.160 HD
HETATM    6  C   UNK N   1      29.837  17.234   6.562  0.00  0.00     0.050 A 
HETATM    7  C   UNK N   1      31.152  16.811   7.011  0.00  0.00     0.020 A 
HETATM    8  C   UNK N   1      28.668  17.511   8.743  0.00  0.00     0.242 C 
HETATM    9  C   UNK N   1      31.562  16.429   8.438  0.00  0.00     0.054 C 
HETATM   10  C   UNK N   1      29.899  17.850   9.472  0.00  0.00     0.223 C 
HETATM   11  C   UNK N   1      29.651  17.435   5.172  0.00  0.00     0.032 A 
HETATM   12  C   UNK N   1      32.140  16.652   6.019  0.00  0.00     0.040 A 
HETATM   13  C   UNK N   1      30.664  17.268   4.245  0.00  0.00     0.026 A 
HETATM   14  C   UNK N   1      31.914  16.876   4.671  0.00  0.00     0.035 A 
ENDROOT
BRANCH   3  15
HETATM   15  C   UNK N   1      27.350  17.452   6.737  0.00  0.00     0.162 C 
BRANCH  15  16
HETATM   16  C   UNK N   1      26.793  16.038   6.542  0.00  0.00     0.292 C 
BRANCH  16  17
HETATM   17  N   UNK N   1      26.012  15.927   5.322  0.00  0.00     0.089 N 
BRANCH  17  18
HETATM   18  C   UNK N   1      26.847  15.225   4.356  0.00  0.00     0.268 C 
HETATM   19  C   UNK N   1      27.693  14.182   5.062  0.00  0.00     0.037 C 
ENDBRANCH  17  18
BRANCH  17  20
HETATM   20  C   UNK N   1      25.835  17.284   4.825  0.00  0.00     0.268 C 
HETATM   21  C   UNK N   1      24.743  17.322   3.772  0.00  0.00     0.037 C 
ENDBRANCH  17  20
ENDBRANCH  16  17
ENDBRANCH  15  16
ENDBRANCH   3  15
BRANCH   9  22
HETATM   22  C   UNK N   1      32.838  15.642   8.740  0.00  0.00     0.030 A 
HETATM   23  C   UNK N   1      34.051  16.305   9.082  0.00  0.00     0.128 A 
HETATM   24  F   UNK N   1      34.113  17.652   9.214  0.00  0.00    -0.205 F 
HETATM   25  C   UNK N   1      35.227  15.574   9.286  0.00  0.00     0.043 A 
HETATM   26  C   UNK N   1      35.234  14.187   9.155  0.00  0.00     0.003 A 
HETATM   27  C   UNK N   1      34.057  13.519   8.834  0.00  0.00     0.001 A 
HETATM   28  C   UNK N   1      32.880  14.239   8.634  0.00  0.00     0.017 A 
ENDBRANCH   9  22
TORSDOF 6
ENDMDL
