REMARK  8 active torsions:
REMARK  status: ('A' for Active; 'I' for Inactive)
REMARK    1  A    between atoms: O_1  and  C_12 
REMARK    2  A    between atoms: O_1  and  C_20 
REMARK    3  A    between atoms: N_3  and  C_11 
REMARK    4  A    between atoms: N_4  and  C_26 
REMARK    5  A    between atoms: C_5  and  C_10 
REMARK    6  A    between atoms: C_5  and  C_12 
REMARK    7  A    between atoms: C_11  and  C_13 
REMARK    8  A    between atoms: C_13  and  C_16 
ROOT
HETATM    1  N   UNK N   1       3.875   0.259   0.154  0.00  0.00     0.088 N 
HETATM    2  C   UNK N   1       4.027   3.248  -0.171  0.00  0.00     0.078 C 
HETATM    3  C   UNK N   1       3.678   2.517   1.137  0.00  0.00     0.055 C 
HETATM    4  C   UNK N   1       4.157   2.252  -1.347  0.00  0.00     0.055 C 
HETATM    5  C   UNK N   1       2.975   1.191   0.857  0.00  0.00     0.274 C 
HETATM    6  C   UNK N   1       4.707   0.897  -0.884  0.00  0.00     0.274 C 
ENDROOT
BRANCH   1   7
HETATM    7  C   UNK N   1       4.790  -0.323   1.132  0.00  0.00     0.277 C 
BRANCH   7   8
HETATM    8  C   UNK N   1       4.080  -1.368   1.986  0.00  0.00     0.068 C 
BRANCH   8   9
HETATM    9  C   UNK N   1       3.734  -2.562   1.166  0.00  0.00    -0.056 A 
HETATM   10  C   UNK N   1       4.747  -3.346   0.600  0.00  0.00     0.009 A 
HETATM   11  C   UNK N   1       4.418  -4.456  -0.181  0.00  0.00     0.029 A 
HETATM   12  C   UNK N   1       3.076  -4.783  -0.398  0.00  0.00     0.025 A 
HETATM   13  C   UNK N   1       2.064  -4.003   0.169  0.00  0.00     0.029 A 
HETATM   14  C   UNK N   1       2.393  -2.893   0.952  0.00  0.00     0.009 A 
BRANCH  12  15
HETATM   15  N   UNK N   1       2.745  -5.900  -1.189  0.00  0.00    -0.399 N 
HETATM   16  H   UNK N   1       1.953  -6.090  -1.742  0.00  0.00     0.156 HD
HETATM   17  H   UNK N   1       3.423  -6.614  -1.189  0.00  0.00     0.156 HD
ENDBRANCH  12  15
ENDBRANCH   8   9
ENDBRANCH   7   8
ENDBRANCH   1   7
BRANCH   2  18
HETATM   18  C   UNK N   1       5.376   3.940   0.059  0.00  0.00    -0.040 A 
HETATM   19  C   UNK N   1       5.515   5.339   0.089  0.00  0.00     0.008 A 
HETATM   20  C   UNK N   1       6.758   5.932   0.325  0.00  0.00     0.001 A 
HETATM   21  C   UNK N   1       7.886   5.135   0.525  0.00  0.00     0.000 A 
HETATM   22  C   UNK N   1       7.770   3.745   0.498  0.00  0.00     0.001 A 
HETATM   23  C   UNK N   1       6.525   3.153   0.276  0.00  0.00     0.008 A 
ENDBRANCH   2  18
BRANCH   2  24
HETATM   24  C   UNK N   1       2.837   4.139  -0.514  0.00  0.00     0.272 C 
HETATM   25  O   UNK N   1       2.959   5.351  -0.635  0.00  0.00    -0.264 OA
BRANCH  24  26
HETATM   26  O   UNK N   1       1.621   3.560  -0.698  0.00  0.00    -0.321 OA
BRANCH  26  27
HETATM   27  C   UNK N   1       0.483   4.278  -0.994  0.00  0.00     0.174 C 
HETATM   28  C   UNK N   1      -0.114   4.856   0.275  0.00  0.00     0.034 C 
ENDBRANCH  26  27
ENDBRANCH  24  26
ENDBRANCH   2  24
TORSDOF 8
