MODEL 1
REMARK VINA RESULT:      -7.6      0.000      0.000
REMARK  3 active torsions:
REMARK  status: ('A' for Active; 'I' for Inactive)
REMARK    1  A    between atoms: O_3  and  C_20 
REMARK    2  A    between atoms: C_9  and  C_12 
REMARK    3  A    between atoms: C_11  and  C_20 
ROOT
HETATM    1 Cl   UNK N   1      22.953  11.165   5.122  0.00  0.00    -0.084 Cl
HETATM    2  O   UNK N   1      20.995  18.777   7.070  0.00  0.00    -0.270 OA
HETATM    3  N   UNK N   1      21.569  16.875   6.129  0.00  0.00    -0.324 N 
HETATM    4  N   UNK N   1      20.679  15.862   8.859  0.00  0.00    -0.367 N 
ATOM      5  HN  UNK N   1      20.635  16.004   9.867  1.00  0.00     0.161 HD
HETATM    6  C   UNK N   1      21.659  14.508   7.025  0.00  0.00     0.019 A 
HETATM    7  C   UNK N   1      21.318  14.804   8.482  0.00  0.00     0.052 C 
HETATM    8  C   UNK N   1      21.731  15.475   5.967  0.00  0.00     0.047 A 
HETATM    9  C   UNK N   1      20.020  16.868   8.071  0.00  0.00     0.273 C 
HETATM   10  C   UNK N   1      20.920  17.557   7.086  0.00  0.00     0.255 C 
HETATM   11  C   UNK N   1      22.033  13.188   6.702  0.00  0.00     0.040 A 
HETATM   12  C   UNK N   1      22.140  15.069   4.688  0.00  0.00     0.032 A 
HETATM   13  C   UNK N   1      22.441  12.811   5.428  0.00  0.00     0.035 A 
HETATM   14  C   UNK N   1      22.485  13.751   4.414  0.00  0.00     0.026 A 
HETATM   15  H   UNK N   1      21.996  17.429   5.437  0.00  0.00     0.169 HD
ENDROOT
BRANCH   7  16
HETATM   16  C   UNK N   1      21.614  13.819   9.592  0.00  0.00    -0.009 A 
HETATM   17  C   UNK N   1      20.539  13.270  10.319  0.00  0.00     0.014 A 
HETATM   18  C   UNK N   1      20.753  12.313  11.314  0.00  0.00     0.001 A 
HETATM   19  C   UNK N   1      22.048  11.874  11.592  0.00  0.00     0.000 A 
HETATM   20  C   UNK N   1      23.127  12.403  10.884  0.00  0.00     0.001 A 
HETATM   21  C   UNK N   1      22.910  13.368   9.897  0.00  0.00     0.014 A 
ENDBRANCH   7  16
BRANCH   9  22
HETATM   22  C   UNK N   1      19.294  17.776   9.053  0.00  0.00     0.173 C 
HETATM   23  O   UNK N   1      18.127  17.589   9.363  0.00  0.00    -0.648 OA
BRANCH  22  24
HETATM   24  O   UNK N   1      19.939  18.844   9.559  0.00  0.00    -0.774 OA
HETATM   25  H   UNK N   1      20.455  19.523   9.171  0.00  0.00     0.167 HD
ENDBRANCH  22  24
ENDBRANCH   9  22
TORSDOF 3
ENDMDL
MODEL 2
REMARK VINA RESULT:      -7.3     15.435     17.119
REMARK  3 active torsions:
REMARK  status: ('A' for Active; 'I' for Inactive)
REMARK    1  A    between atoms: O_3  and  C_20 
REMARK    2  A    between atoms: C_9  and  C_12 
REMARK    3  A    between atoms: C_11  and  C_20 
ROOT
HETATM    1 Cl   UNK N   1      37.177   8.753  16.405  0.00  0.00    -0.084 Cl
HETATM    2  O   UNK N   1      38.056  13.752  10.095  0.00  0.00    -0.270 OA
HETATM    3  N   UNK N   1      37.949  12.081  11.520  0.00  0.00    -0.324 N 
HETATM    4  N   UNK N   1      36.542  14.242  13.139  0.00  0.00    -0.367 N 
ATOM      5  HN  UNK N   1      36.479  15.223  13.411  1.00  0.00     0.161 HD
HETATM    6  C   UNK N   1      37.082  11.941  13.895  0.00  0.00     0.019 A 
HETATM    7  C   UNK N   1      36.768  13.418  14.110  0.00  0.00     0.052 C 
HETATM    8  C   UNK N   1      37.589  11.358  12.686  0.00  0.00     0.047 A 
HETATM    9  C   UNK N   1      36.367  13.985  11.736  0.00  0.00     0.273 C 
HETATM   10  C   UNK N   1      37.530  13.284  11.095  0.00  0.00     0.255 C 
HETATM   11  C   UNK N   1      36.961  11.085  15.009  0.00  0.00     0.040 A 
HETATM   12  C   UNK N   1      37.912   9.993  12.661  0.00  0.00     0.032 A 
HETATM   13  C   UNK N   1      37.294   9.736  14.961  0.00  0.00     0.035 A 
HETATM   14  C   UNK N   1      37.761   9.185  13.781  0.00  0.00     0.026 A 
HETATM   15  H   UNK N   1      38.603  11.634  10.935  0.00  0.00     0.169 HD
ENDROOT
BRANCH   7  16
HETATM   16  C   UNK N   1      36.590  14.010  15.491  0.00  0.00    -0.009 A 
HETATM   17  C   UNK N   1      37.322  15.164  15.836  0.00  0.00     0.014 A 
HETATM   18  C   UNK N   1      37.151  15.784  17.077  0.00  0.00     0.001 A 
HETATM   19  C   UNK N   1      36.233  15.270  17.992  0.00  0.00     0.000 A 
HETATM   20  C   UNK N   1      35.496  14.130  17.671  0.00  0.00     0.001 A 
HETATM   21  C   UNK N   1      35.678  13.506  16.434  0.00  0.00     0.014 A 
ENDBRANCH   7  16
BRANCH   9  22
HETATM   22  C   UNK N   1      35.960  15.307  11.103  0.00  0.00     0.173 C 
HETATM   23  O   UNK N   1      34.800  15.549  10.802  0.00  0.00    -0.648 OA
BRANCH  22  24
HETATM   24  O   UNK N   1      36.910  16.220  10.823  0.00  0.00    -0.774 OA
HETATM   25  H   UNK N   1      36.908  17.156  10.793  0.00  0.00     0.167 HD
ENDBRANCH  22  24
ENDBRANCH   9  22
TORSDOF 3
ENDMDL
MODEL 3
REMARK VINA RESULT:      -7.1      9.365     10.230
REMARK  3 active torsions:
REMARK  status: ('A' for Active; 'I' for Inactive)
REMARK    1  A    between atoms: O_3  and  C_20 
REMARK    2  A    between atoms: C_9  and  C_12 
REMARK    3  A    between atoms: C_11  and  C_20 
ROOT
HETATM    1 Cl   UNK N   1      33.638  15.050   2.968  0.00  0.00    -0.084 Cl
HETATM    2  O   UNK N   1      27.363  18.928   6.307  0.00  0.00    -0.270 OA
HETATM    3  N   UNK N   1      28.820  17.889   5.031  0.00  0.00    -0.324 N 
HETATM    4  N   UNK N   1      30.076  17.404   7.761  0.00  0.00    -0.367 N 
ATOM      5  HN  UNK N   1      30.289  17.753   8.695  1.00  0.00     0.161 HD
HETATM    6  C   UNK N   1      31.013  16.741   5.561  0.00  0.00     0.019 A 
HETATM    7  C   UNK N   1      31.106  17.101   7.040  0.00  0.00     0.052 C 
HETATM    8  C   UNK N   1      29.936  17.089   4.679  0.00  0.00     0.047 A 
HETATM    9  C   UNK N   1      28.677  17.322   7.445  0.00  0.00     0.273 C 
HETATM   10  C   UNK N   1      28.276  18.119   6.237  0.00  0.00     0.255 C 
HETATM   11  C   UNK N   1      32.126  16.098   4.980  0.00  0.00     0.040 A 
HETATM   12  C   UNK N   1      30.027  16.761   3.317  0.00  0.00     0.032 A 
HETATM   13  C   UNK N   1      32.195  15.791   3.626  0.00  0.00     0.035 A 
HETATM   14  C   UNK N   1      31.138  16.113   2.793  0.00  0.00     0.026 A 
HETATM   15  H   UNK N   1      28.376  18.343   4.278  0.00  0.00     0.169 HD
ENDROOT
BRANCH   7  16
HETATM   16  C   UNK N   1      32.408  17.025   7.806  0.00  0.00    -0.009 A 
HETATM   17  C   UNK N   1      33.360  18.050   7.634  0.00  0.00     0.014 A 
HETATM   18  C   UNK N   1      34.553  18.058   8.362  0.00  0.00     0.001 A 
HETATM   19  C   UNK N   1      34.811  17.049   9.288  0.00  0.00     0.000 A 
HETATM   20  C   UNK N   1      33.883  16.025   9.476  0.00  0.00     0.001 A 
HETATM   21  C   UNK N   1      32.696  16.013   8.739  0.00  0.00     0.014 A 
ENDBRANCH   7  16
BRANCH   9  22
HETATM   22  C   UNK N   1      27.925  17.644   8.729  0.00  0.00     0.173 C 
HETATM   23  O   UNK N   1      27.573  16.770   9.507  0.00  0.00    -0.648 OA
BRANCH  22  24
HETATM   24  O   UNK N   1      27.599  18.923   8.994  0.00  0.00    -0.774 OA
HETATM   25  H   UNK N   1      27.915  19.744   8.673  0.00  0.00     0.167 HD
ENDBRANCH  22  24
ENDBRANCH   9  22
TORSDOF 3
ENDMDL
MODEL 4
REMARK VINA RESULT:      -6.8      4.221      6.103
REMARK  3 active torsions:
REMARK  status: ('A' for Active; 'I' for Inactive)
REMARK    1  A    between atoms: O_3  and  C_20 
REMARK    2  A    between atoms: C_9  and  C_12 
REMARK    3  A    between atoms: C_11  and  C_20 
ROOT
HETATM    1 Cl   UNK N   1      19.428  12.285   2.043  0.00  0.00    -0.084 Cl
HETATM    2  O   UNK N   1      20.764  20.080   0.303  0.00  0.00    -0.270 OA
HETATM    3  N   UNK N   1      20.176  17.963   0.392  0.00  0.00    -0.324 N 
HETATM    4  N   UNK N   1      21.259  18.325   3.214  0.00  0.00    -0.367 N 
ATOM      5  HN  UNK N   1      21.951  18.746   3.833  1.00  0.00     0.161 HD
HETATM    6  C   UNK N   1      20.435  16.214   2.203  0.00  0.00     0.019 A 
HETATM    7  C   UNK N   1      21.257  17.032   3.193  0.00  0.00     0.052 C 
HETATM    8  C   UNK N   1      19.927  16.682   0.946  0.00  0.00     0.047 A 
HETATM    9  C   UNK N   1      20.434  19.257   2.497  0.00  0.00     0.273 C 
HETATM   10  C   UNK N   1      20.505  19.112   1.004  0.00  0.00     0.255 C 
HETATM   11  C   UNK N   1      20.239  14.849   2.497  0.00  0.00     0.040 A 
HETATM   12  C   UNK N   1      19.256  15.788   0.097  0.00  0.00     0.032 A 
HETATM   13  C   UNK N   1      19.575  13.982   1.636  0.00  0.00     0.035 A 
HETATM   14  C   UNK N   1      19.073  14.454   0.437  0.00  0.00     0.026 A 
HETATM   15  H   UNK N   1      20.095  18.019  -0.588  0.00  0.00     0.169 HD
ENDROOT
BRANCH   7  16
HETATM   16  C   UNK N   1      22.056  16.385   4.304  0.00  0.00    -0.009 A 
HETATM   17  C   UNK N   1      23.370  15.952   4.034  0.00  0.00     0.014 A 
HETATM   18  C   UNK N   1      24.170  15.401   5.039  0.00  0.00     0.001 A 
HETATM   19  C   UNK N   1      23.676  15.288   6.339  0.00  0.00     0.000 A 
HETATM   20  C   UNK N   1      22.380  15.711   6.629  0.00  0.00     0.001 A 
HETATM   21  C   UNK N   1      21.578  16.250   5.619  0.00  0.00     0.014 A 
ENDBRANCH   7  16
BRANCH   9  22
HETATM   22  C   UNK N   1      20.766  20.637   3.045  0.00  0.00     0.173 C 
HETATM   23  O   UNK N   1      20.110  21.152   3.939  0.00  0.00    -0.648 OA
BRANCH  22  24
HETATM   24  O   UNK N   1      21.782  21.332   2.499  0.00  0.00    -0.774 OA
HETATM   25  H   UNK N   1      22.025  22.236   2.525  0.00  0.00     0.167 HD
ENDBRANCH  22  24
ENDBRANCH   9  22
TORSDOF 3
ENDMDL
MODEL 5
REMARK VINA RESULT:      -6.6     16.434     18.339
REMARK  3 active torsions:
REMARK  status: ('A' for Active; 'I' for Inactive)
REMARK    1  A    between atoms: O_3  and  C_20 
REMARK    2  A    between atoms: C_9  and  C_12 
REMARK    3  A    between atoms: C_11  and  C_20 
ROOT
HETATM    1 Cl   UNK N   1      27.378  28.726  -2.735  0.00  0.00    -0.084 Cl
HETATM    2  O   UNK N   1      24.909  23.200  -8.115  0.00  0.00    -0.270 OA
HETATM    3  N   UNK N   1      25.236  24.938  -6.809  0.00  0.00    -0.324 N 
HETATM    4  N   UNK N   1      27.824  23.413  -6.310  0.00  0.00    -0.367 N 
ATOM      5  HN  UNK N   1      28.296  22.518  -6.189  1.00  0.00     0.161 HD
HETATM    6  C   UNK N   1      27.104  25.512  -5.199  0.00  0.00     0.019 A 
HETATM    7  C   UNK N   1      27.894  24.211  -5.295  0.00  0.00     0.052 C 
HETATM    8  C   UNK N   1      25.910  25.825  -5.932  0.00  0.00     0.047 A 
HETATM    9  C   UNK N   1      27.180  23.598  -7.581  0.00  0.00     0.273 C 
HETATM   10  C   UNK N   1      25.707  23.878  -7.485  0.00  0.00     0.255 C 
HETATM   11  C   UNK N   1      27.520  26.453  -4.234  0.00  0.00     0.040 A 
HETATM   12  C   UNK N   1      25.241  27.032  -5.677  0.00  0.00     0.032 A 
HETATM   13  C   UNK N   1      26.835  27.639  -3.996  0.00  0.00     0.035 A 
HETATM   14  C   UNK N   1      25.699  27.936  -4.727  0.00  0.00     0.026 A 
HETATM   15  H   UNK N   1      24.279  25.128  -6.943  0.00  0.00     0.169 HD
ENDROOT
BRANCH   7  16
HETATM   16  C   UNK N   1      28.910  23.808  -4.248  0.00  0.00    -0.009 A 
HETATM   17  C   UNK N   1      28.455  23.426  -2.970  0.00  0.00     0.014 A 
HETATM   18  C   UNK N   1      29.346  22.989  -1.987  0.00  0.00     0.001 A 
HETATM   19  C   UNK N   1      30.710  22.911  -2.268  0.00  0.00     0.000 A 
HETATM   20  C   UNK N   1      31.183  23.282  -3.526  0.00  0.00     0.001 A 
HETATM   21  C   UNK N   1      30.290  23.729  -4.504  0.00  0.00     0.014 A 
ENDBRANCH   7  16
BRANCH   9  22
HETATM   22  C   UNK N   1      27.571  22.404  -8.440  0.00  0.00     0.173 C 
HETATM   23  O   UNK N   1      28.258  22.528  -9.443  0.00  0.00    -0.648 OA
BRANCH  22  24
HETATM   24  O   UNK N   1      27.111  21.181  -8.112  0.00  0.00    -0.774 OA
HETATM   25  H   UNK N   1      27.374  20.548  -7.474  0.00  0.00     0.167 HD
ENDBRANCH  22  24
ENDBRANCH   9  22
TORSDOF 3
ENDMDL
MODEL 6
REMARK VINA RESULT:      -6.6     17.261     18.380
REMARK  3 active torsions:
REMARK  status: ('A' for Active; 'I' for Inactive)
REMARK    1  A    between atoms: O_3  and  C_20 
REMARK    2  A    between atoms: C_9  and  C_12 
REMARK    3  A    between atoms: C_11  and  C_20 
ROOT
HETATM    1 Cl   UNK N   1      31.719  21.917  -2.873  0.00  0.00    -0.084 Cl
HETATM    2  O   UNK N   1      27.734  21.130  -9.878  0.00  0.00    -0.270 OA
HETATM    3  N   UNK N   1      29.052  20.996  -8.123  0.00  0.00    -0.324 N 
HETATM    4  N   UNK N   1      26.980  22.963  -7.073  0.00  0.00    -0.367 N 
ATOM      5  HN  UNK N   1      26.357  23.750  -7.254  1.00  0.00     0.161 HD
HETATM    6  C   UNK N   1      29.032  22.207  -5.900  0.00  0.00     0.019 A 
HETATM    7  C   UNK N   1      27.891  23.180  -6.182  0.00  0.00     0.052 C 
HETATM    8  C   UNK N   1      29.515  21.198  -6.798  0.00  0.00     0.047 A 
HETATM    9  C   UNK N   1      26.712  21.782  -7.845  0.00  0.00     0.273 C 
HETATM   10  C   UNK N   1      27.874  21.321  -8.678  0.00  0.00     0.255 C 
HETATM   11  C   UNK N   1      29.743  22.375  -4.694  0.00  0.00     0.040 A 
HETATM   12  C   UNK N   1      30.630  20.428  -6.435  0.00  0.00     0.032 A 
HETATM   13  C   UNK N   1      30.850  21.604  -4.360  0.00  0.00     0.035 A 
HETATM   14  C   UNK N   1      31.290  20.620  -5.227  0.00  0.00     0.026 A 
HETATM   15  H   UNK N   1      29.690  20.551  -8.727  0.00  0.00     0.169 HD
ENDROOT
BRANCH   7  16
HETATM   16  C   UNK N   1      27.680  24.432  -5.359  0.00  0.00    -0.009 A 
HETATM   17  C   UNK N   1      28.414  25.591  -5.682  0.00  0.00     0.014 A 
HETATM   18  C   UNK N   1      28.214  26.789  -4.991  0.00  0.00     0.001 A 
HETATM   19  C   UNK N   1      27.264  26.856  -3.972  0.00  0.00     0.000 A 
HETATM   20  C   UNK N   1      26.525  25.722  -3.636  0.00  0.00     0.001 A 
HETATM   21  C   UNK N   1      26.735  24.522  -4.321  0.00  0.00     0.014 A 
ENDBRANCH   7  16
BRANCH   9  22
HETATM   22  C   UNK N   1      25.418  22.046  -8.602  0.00  0.00     0.173 C 
HETATM   23  O   UNK N   1      24.711  23.011  -8.354  0.00  0.00    -0.648 OA
BRANCH  22  24
HETATM   24  O   UNK N   1      25.016  21.168  -9.541  0.00  0.00    -0.774 OA
HETATM   25  H   UNK N   1      24.304  21.164 -10.149  0.00  0.00     0.167 HD
ENDBRANCH  22  24
ENDBRANCH   9  22
TORSDOF 3
ENDMDL
MODEL 7
REMARK VINA RESULT:      -6.6     11.516     13.049
REMARK  3 active torsions:
REMARK  status: ('A' for Active; 'I' for Inactive)
REMARK    1  A    between atoms: O_3  and  C_20 
REMARK    2  A    between atoms: C_9  and  C_12 
REMARK    3  A    between atoms: C_11  and  C_20 
ROOT
HETATM    1 Cl   UNK N   1      28.311  17.228   5.922  0.00  0.00    -0.084 Cl
HETATM    2  O   UNK N   1      35.319  17.504   9.969  0.00  0.00    -0.270 OA
HETATM    3  N   UNK N   1      33.267  17.689   9.200  0.00  0.00    -0.324 N 
HETATM    4  N   UNK N   1      34.311  15.479   7.384  0.00  0.00    -0.367 N 
ATOM      5  HN  UNK N   1      35.083  15.087   6.847  1.00  0.00     0.161 HD
HETATM    6  C   UNK N   1      32.081  16.561   7.269  0.00  0.00     0.019 A 
HETATM    7  C   UNK N   1      33.265  15.793   6.692  0.00  0.00     0.052 C 
HETATM    8  C   UNK N   1      32.109  17.392   8.438  0.00  0.00     0.047 A 
HETATM    9  C   UNK N   1      34.548  15.598   8.797  0.00  0.00     0.273 C 
HETATM   10  C   UNK N   1      34.413  16.999   9.321  0.00  0.00     0.255 C 
HETATM   11  C   UNK N   1      30.875  16.536   6.538  0.00  0.00     0.040 A 
HETATM   12  C   UNK N   1      30.958  18.107   8.804  0.00  0.00     0.032 A 
HETATM   13  C   UNK N   1      29.750  17.259   6.918  0.00  0.00     0.035 A 
HETATM   14  C   UNK N   1      29.787  18.039   8.060  0.00  0.00     0.026 A 
HETATM   15  H   UNK N   1      33.226  18.526   9.718  0.00  0.00     0.169 HD
ENDROOT
BRANCH   7  16
HETATM   16  C   UNK N   1      33.258  15.245   5.282  0.00  0.00    -0.009 A 
HETATM   17  C   UNK N   1      32.892  13.899   5.076  0.00  0.00     0.014 A 
HETATM   18  C   UNK N   1      32.813  13.360   3.789  0.00  0.00     0.001 A 
HETATM   19  C   UNK N   1      33.083  14.162   2.680  0.00  0.00     0.000 A 
HETATM   20  C   UNK N   1      33.445  15.497   2.859  0.00  0.00     0.001 A 
HETATM   21  C   UNK N   1      33.535  16.029   4.148  0.00  0.00     0.014 A 
ENDBRANCH   7  16
BRANCH   9  22
HETATM   22  C   UNK N   1      35.880  14.915   9.069  0.00  0.00     0.173 C 
HETATM   23  O   UNK N   1      36.428  14.213   8.232  0.00  0.00    -0.648 OA
BRANCH  22  24
HETATM   24  O   UNK N   1      36.449  15.047  10.283  0.00  0.00    -0.774 OA
HETATM   25  H   UNK N   1      37.083  15.643  10.630  0.00  0.00     0.167 HD
ENDBRANCH  22  24
ENDBRANCH   9  22
TORSDOF 3
ENDMDL
MODEL 8
REMARK VINA RESULT:      -6.5      2.721      5.526
REMARK  3 active torsions:
REMARK  status: ('A' for Active; 'I' for Inactive)
REMARK    1  A    between atoms: O_3  and  C_20 
REMARK    2  A    between atoms: C_9  and  C_12 
REMARK    3  A    between atoms: C_11  and  C_20 
ROOT
HETATM    1 Cl   UNK N   1      26.013  15.755   4.275  0.00  0.00    -0.084 Cl
HETATM    2  O   UNK N   1      19.698  14.425   9.167  0.00  0.00    -0.270 OA
HETATM    3  N   UNK N   1      21.614  14.479   8.090  0.00  0.00    -0.324 N 
HETATM    4  N   UNK N   1      20.264  16.924   6.879  0.00  0.00    -0.367 N 
ATOM      5  HN  UNK N   1      19.411  17.368   6.539  1.00  0.00     0.161 HD
HETATM    6  C   UNK N   1      22.474  15.989   6.248  0.00  0.00     0.019 A 
HETATM    7  C   UNK N   1      21.200  16.789   5.997  0.00  0.00     0.052 C 
HETATM    8  C   UNK N   1      22.639  14.963   7.238  0.00  0.00     0.047 A 
HETATM    9  C   UNK N   1      20.244  16.544   8.264  0.00  0.00     0.273 C 
HETATM   10  C   UNK N   1      20.486  15.080   8.499  0.00  0.00     0.255 C 
HETATM   11  C   UNK N   1      23.556  16.201   5.369  0.00  0.00     0.040 A 
HETATM   12  C   UNK N   1      23.847  14.251   7.298  0.00  0.00     0.032 A 
HETATM   13  C   UNK N   1      24.740  15.477   5.445  0.00  0.00     0.035 A 
HETATM   14  C   UNK N   1      24.892  14.507   6.419  0.00  0.00     0.026 A 
HETATM   15  H   UNK N   1      21.751  13.567   8.435  0.00  0.00     0.169 HD
ENDROOT
BRANCH   7  16
HETATM   16  C   UNK N   1      20.984  17.579   4.725  0.00  0.00    -0.009 A 
HETATM   17  C   UNK N   1      20.353  16.951   3.633  0.00  0.00     0.014 A 
HETATM   18  C   UNK N   1      20.077  17.653   2.456  0.00  0.00     0.001 A 
HETATM   19  C   UNK N   1      20.414  19.003   2.355  0.00  0.00     0.000 A 
HETATM   20  C   UNK N   1      21.038  19.645   3.424  0.00  0.00     0.001 A 
HETATM   21  C   UNK N   1      21.323  18.938   4.595  0.00  0.00     0.014 A 
ENDBRANCH   7  16
BRANCH   9  22
HETATM   22  C   UNK N   1      18.953  17.103   8.846  0.00  0.00     0.173 C 
HETATM   23  O   UNK N   1      18.940  18.114   9.532  0.00  0.00    -0.648 OA
BRANCH  22  24
HETATM   24  O   UNK N   1      17.799  16.441   8.638  0.00  0.00    -0.774 OA
HETATM   25  H   UNK N   1      17.199  16.007   9.212  0.00  0.00     0.167 HD
ENDBRANCH  22  24
ENDBRANCH   9  22
TORSDOF 3
ENDMDL
MODEL 9
REMARK VINA RESULT:      -6.3      7.601      8.869
REMARK  3 active torsions:
REMARK  status: ('A' for Active; 'I' for Inactive)
REMARK    1  A    between atoms: O_3  and  C_20 
REMARK    2  A    between atoms: C_9  and  C_12 
REMARK    3  A    between atoms: C_11  and  C_20 
ROOT
HETATM    1 Cl   UNK N   1      28.639  13.181   2.566  0.00  0.00    -0.084 Cl
HETATM    2  O   UNK N   1      25.707  20.536   4.262  0.00  0.00    -0.270 OA
HETATM    3  N   UNK N   1      26.116  18.483   3.590  0.00  0.00    -0.324 N 
HETATM    4  N   UNK N   1      28.420  18.863   5.544  0.00  0.00    -0.367 N 
ATOM      5  HN  UNK N   1      29.126  19.478   5.946  1.00  0.00     0.161 HD
HETATM    6  C   UNK N   1      28.011  16.884   4.103  0.00  0.00     0.019 A 
HETATM    7  C   UNK N   1      28.883  17.824   4.930  0.00  0.00     0.052 C 
HETATM    8  C   UNK N   1      26.734  17.209   3.534  0.00  0.00     0.047 A 
HETATM    9  C   UNK N   1      27.060  19.282   5.745  0.00  0.00     0.273 C 
HETATM   10  C   UNK N   1      26.288  19.481   4.471  0.00  0.00     0.255 C 
HETATM   11  C   UNK N   1      28.545  15.620   3.783  0.00  0.00     0.040 A 
HETATM   12  C   UNK N   1      26.081  16.267   2.723  0.00  0.00     0.032 A 
HETATM   13  C   UNK N   1      27.881  14.707   2.971  0.00  0.00     0.035 A 
HETATM   14  C   UNK N   1      26.641  15.026   2.448  0.00  0.00     0.026 A 
HETATM   15  H   UNK N   1      25.462  18.664   2.876  0.00  0.00     0.169 HD
ENDROOT
BRANCH   7  16
HETATM   16  C   UNK N   1      30.348  17.546   5.182  0.00  0.00    -0.009 A 
HETATM   17  C   UNK N   1      31.270  17.753   4.136  0.00  0.00     0.014 A 
HETATM   18  C   UNK N   1      32.641  17.568   4.334  0.00  0.00     0.001 A 
HETATM   19  C   UNK N   1      33.119  17.187   5.588  0.00  0.00     0.000 A 
HETATM   20  C   UNK N   1      32.226  16.979   6.638  0.00  0.00     0.001 A 
HETATM   21  C   UNK N   1      30.854  17.154   6.434  0.00  0.00     0.014 A 
ENDBRANCH   7  16
BRANCH   9  22
HETATM   22  C   UNK N   1      27.112  20.481   6.681  0.00  0.00     0.173 C 
HETATM   23  O   UNK N   1      27.885  21.409   6.497  0.00  0.00    -0.648 OA
BRANCH  22  24
HETATM   24  O   UNK N   1      26.318  20.499   7.769  0.00  0.00    -0.774 OA
HETATM   25  H   UNK N   1      26.172  19.888   8.464  0.00  0.00     0.167 HD
ENDBRANCH  22  24
ENDBRANCH   9  22
TORSDOF 3
ENDMDL
