MODEL 1
REMARK VINA RESULT:      -5.3      0.000      0.000
REMARK  5 active torsions:
REMARK  status: ('A' for Active; 'I' for Inactive)
REMARK    1  A    between atoms: C_1  and  C_2 
REMARK    2  A    between atoms: C_2  and  C_5 
REMARK    3  A    between atoms: C_5  and  N_8 
REMARK    4  A    between atoms: N_8  and  C_11 
REMARK    5  A    between atoms: C_11  and  C_13 
ROOT
HETATM    1  C   UNK N   1      28.337  23.946  -4.178  0.00  0.00     0.223 C 
HETATM    2  C   UNK N   1      28.000  23.573  -5.616  0.00  0.00     0.043 C 
ENDROOT
BRANCH   1   3
HETATM    3  C   UNK N   1      27.005  24.177  -3.470  0.00  0.00     0.074 C 
BRANCH   3   4
HETATM    4  C   UNK N   1      26.347  25.411  -3.990  0.00  0.00    -0.056 A 
HETATM    5  C   UNK N   1      26.401  26.589  -3.240  0.00  0.00     0.007 A 
HETATM    6  C   UNK N   1      25.797  27.754  -3.725  0.00  0.00     0.001 A 
HETATM    7  C   UNK N   1      25.132  27.737  -4.954  0.00  0.00     0.000 A 
HETATM    8  C   UNK N   1      25.070  26.557  -5.700  0.00  0.00     0.001 A 
HETATM    9  C   UNK N   1      25.678  25.394  -5.219  0.00  0.00     0.007 A 
ENDBRANCH   3   4
ENDBRANCH   1   3
BRANCH   1  10
HETATM   10  N   UNK N   1      29.179  25.150  -4.120  0.00  0.00     0.092 N 
HETATM   11  C   UNK N   1      30.397  24.842  -3.383  0.00  0.00     0.310 C 
BRANCH  10  12
HETATM   12  C   UNK N   1      29.629  25.519  -5.458  0.00  0.00     0.311 C 
BRANCH  12  13
HETATM   13  C   UNK N   1      29.142  26.889  -5.788  0.00  0.00    -0.030 A 
HETATM   14  C   UNK N   1      28.454  27.123  -6.982  0.00  0.00     0.009 A 
HETATM   15  C   UNK N   1      27.981  28.405  -7.278  0.00  0.00     0.001 A 
HETATM   16  C   UNK N   1      28.191  29.451  -6.375  0.00  0.00     0.000 A 
HETATM   17  C   UNK N   1      28.879  29.218  -5.181  0.00  0.00     0.001 A 
HETATM   18  C   UNK N   1      29.358  27.936  -4.888  0.00  0.00     0.009 A 
ENDBRANCH  12  13
ENDBRANCH  10  12
ENDBRANCH   1  10
TORSDOF 5
ENDMDL
MODEL 2
REMARK VINA RESULT:      -5.3      2.024      4.507
REMARK  5 active torsions:
REMARK  status: ('A' for Active; 'I' for Inactive)
REMARK    1  A    between atoms: C_1  and  C_2 
REMARK    2  A    between atoms: C_2  and  C_5 
REMARK    3  A    between atoms: C_5  and  N_8 
REMARK    4  A    between atoms: N_8  and  C_11 
REMARK    5  A    between atoms: C_11  and  C_13 
ROOT
HETATM    1  C   UNK N   1      28.534  24.264  -3.493  0.00  0.00     0.223 C 
HETATM    2  C   UNK N   1      29.089  23.215  -2.537  0.00  0.00     0.043 C 
ENDROOT
BRANCH   1   3
HETATM    3  C   UNK N   1      27.017  24.092  -3.486  0.00  0.00     0.074 C 
BRANCH   3   4
HETATM    4  C   UNK N   1      26.355  25.305  -4.047  0.00  0.00    -0.056 A 
HETATM    5  C   UNK N   1      25.693  25.224  -5.275  0.00  0.00     0.007 A 
HETATM    6  C   UNK N   1      25.059  26.353  -5.804  0.00  0.00     0.001 A 
HETATM    7  C   UNK N   1      25.095  27.565  -5.107  0.00  0.00     0.000 A 
HETATM    8  C   UNK N   1      25.764  27.649  -3.883  0.00  0.00     0.001 A 
HETATM    9  C   UNK N   1      26.393  26.520  -3.352  0.00  0.00     0.007 A 
ENDBRANCH   3   4
ENDBRANCH   1   3
BRANCH   1  10
HETATM   10  N   UNK N   1      29.077  24.095  -4.849  0.00  0.00     0.092 N 
HETATM   11  C   UNK N   1      30.058  25.141  -5.102  0.00  0.00     0.310 C 
BRANCH  10  12
HETATM   12  C   UNK N   1      29.823  22.845  -4.943  0.00  0.00     0.311 C 
BRANCH  12  13
HETATM   13  C   UNK N   1      29.266  22.014  -6.049  0.00  0.00    -0.030 A 
HETATM   14  C   UNK N   1      28.132  22.439  -6.748  0.00  0.00     0.009 A 
HETATM   15  C   UNK N   1      27.626  21.667  -7.797  0.00  0.00     0.001 A 
HETATM   16  C   UNK N   1      28.258  20.472  -8.152  0.00  0.00     0.000 A 
HETATM   17  C   UNK N   1      29.392  20.045  -7.454  0.00  0.00     0.001 A 
HETATM   18  C   UNK N   1      29.895  20.816  -6.399  0.00  0.00     0.009 A 
ENDBRANCH  12  13
ENDBRANCH  10  12
ENDBRANCH   1  10
TORSDOF 5
ENDMDL
MODEL 3
REMARK VINA RESULT:      -5.3      2.384      4.862
REMARK  5 active torsions:
REMARK  status: ('A' for Active; 'I' for Inactive)
REMARK    1  A    between atoms: C_1  and  C_2 
REMARK    2  A    between atoms: C_2  and  C_5 
REMARK    3  A    between atoms: C_5  and  N_8 
REMARK    4  A    between atoms: N_8  and  C_11 
REMARK    5  A    between atoms: C_11  and  C_13 
ROOT
HETATM    1  C   UNK N   1      28.115  23.828  -6.599  0.00  0.00     0.223 C 
HETATM    2  C   UNK N   1      28.708  24.301  -7.920  0.00  0.00     0.043 C 
ENDROOT
BRANCH   1   3
HETATM    3  C   UNK N   1      28.746  22.469  -6.306  0.00  0.00     0.074 C 
BRANCH   3   4
HETATM    4  C   UNK N   1      29.537  22.525  -5.043  0.00  0.00    -0.056 A 
HETATM    5  C   UNK N   1      29.602  23.720  -4.322  0.00  0.00     0.007 A 
HETATM    6  C   UNK N   1      30.332  23.779  -3.130  0.00  0.00     0.001 A 
HETATM    7  C   UNK N   1      31.005  22.645  -2.667  0.00  0.00     0.000 A 
HETATM    8  C   UNK N   1      30.949  21.452  -3.392  0.00  0.00     0.001 A 
HETATM    9  C   UNK N   1      30.215  21.391  -4.580  0.00  0.00     0.007 A 
ENDBRANCH   3   4
ENDBRANCH   1   3
BRANCH   1  10
HETATM   10  N   UNK N   1      26.651  23.723  -6.676  0.00  0.00     0.092 N 
HETATM   11  C   UNK N   1      26.296  22.413  -7.203  0.00  0.00     0.310 C 
BRANCH  10  12
HETATM   12  C   UNK N   1      26.069  23.764  -5.338  0.00  0.00     0.311 C 
BRANCH  12  13
HETATM   13  C   UNK N   1      25.914  25.182  -4.905  0.00  0.00    -0.030 A 
HETATM   14  C   UNK N   1      25.192  26.084  -5.692  0.00  0.00     0.009 A 
HETATM   15  C   UNK N   1      25.030  27.408  -5.272  0.00  0.00     0.001 A 
HETATM   16  C   UNK N   1      25.587  27.827  -4.060  0.00  0.00     0.000 A 
HETATM   17  C   UNK N   1      26.309  26.926  -3.272  0.00  0.00     0.001 A 
HETATM   18  C   UNK N   1      26.475  25.603  -3.696  0.00  0.00     0.009 A 
ENDBRANCH  12  13
ENDBRANCH  10  12
ENDBRANCH   1  10
TORSDOF 5
ENDMDL
MODEL 4
REMARK VINA RESULT:      -5.2     13.819     16.119
REMARK  5 active torsions:
REMARK  status: ('A' for Active; 'I' for Inactive)
REMARK    1  A    between atoms: C_1  and  C_2 
REMARK    2  A    between atoms: C_2  and  C_5 
REMARK    3  A    between atoms: C_5  and  N_8 
REMARK    4  A    between atoms: N_8  and  C_11 
REMARK    5  A    between atoms: C_11  and  C_13 
ROOT
HETATM    1  C   UNK N   1      33.763  16.563   7.832  0.00  0.00     0.223 C 
HETATM    2  C   UNK N   1      34.519  17.129   9.028  0.00  0.00     0.043 C 
ENDROOT
BRANCH   1   3
HETATM    3  C   UNK N   1      33.876  17.605   6.721  0.00  0.00     0.074 C 
BRANCH   3   4
HETATM    4  C   UNK N   1      33.592  16.983   5.395  0.00  0.00    -0.056 A 
HETATM    5  C   UNK N   1      34.118  15.722   5.098  0.00  0.00     0.007 A 
HETATM    6  C   UNK N   1      33.848  15.126   3.862  0.00  0.00     0.001 A 
HETATM    7  C   UNK N   1      33.061  15.795   2.921  0.00  0.00     0.000 A 
HETATM    8  C   UNK N   1      32.543  17.060   3.213  0.00  0.00     0.001 A 
HETATM    9  C   UNK N   1      32.807  17.654   4.450  0.00  0.00     0.007 A 
ENDBRANCH   3   4
ENDBRANCH   1   3
BRANCH   1  10
HETATM   10  N   UNK N   1      32.356  16.297   8.163  0.00  0.00     0.092 N 
HETATM   11  C   UNK N   1      32.298  15.287   9.211  0.00  0.00     0.310 C 
BRANCH  10  12
HETATM   12  C   UNK N   1      31.740  17.484   8.746  0.00  0.00     0.311 C 
BRANCH  12  13
HETATM   13  C   UNK N   1      30.418  17.729   8.099  0.00  0.00    -0.030 A 
HETATM   14  C   UNK N   1      29.471  18.548   8.721  0.00  0.00     0.009 A 
HETATM   15  C   UNK N   1      28.242  18.792   8.101  0.00  0.00     0.001 A 
HETATM   16  C   UNK N   1      27.963  18.220   6.856  0.00  0.00     0.000 A 
HETATM   17  C   UNK N   1      28.910  17.401   6.234  0.00  0.00     0.001 A 
HETATM   18  C   UNK N   1      30.138  17.152   6.858  0.00  0.00     0.009 A 
ENDBRANCH  12  13
ENDBRANCH  10  12
ENDBRANCH   1  10
TORSDOF 5
ENDMDL
MODEL 5
REMARK VINA RESULT:      -5.2      1.992      4.706
REMARK  5 active torsions:
REMARK  status: ('A' for Active; 'I' for Inactive)
REMARK    1  A    between atoms: C_1  and  C_2 
REMARK    2  A    between atoms: C_2  and  C_5 
REMARK    3  A    between atoms: C_5  and  N_8 
REMARK    4  A    between atoms: N_8  and  C_11 
REMARK    5  A    between atoms: C_11  and  C_13 
ROOT
HETATM    1  C   UNK N   1      27.063  24.268  -5.404  0.00  0.00     0.223 C 
HETATM    2  C   UNK N   1      26.205  24.206  -4.146  0.00  0.00     0.043 C 
ENDROOT
BRANCH   1   3
HETATM    3  C   UNK N   1      28.474  24.629  -4.945  0.00  0.00     0.074 C 
BRANCH   3   4
HETATM    4  C   UNK N   1      29.232  23.398  -4.580  0.00  0.00    -0.056 A 
HETATM    5  C   UNK N   1      29.435  22.402  -5.539  0.00  0.00     0.007 A 
HETATM    6  C   UNK N   1      30.154  21.249  -5.209  0.00  0.00     0.001 A 
HETATM    7  C   UNK N   1      30.663  21.089  -3.917  0.00  0.00     0.000 A 
HETATM    8  C   UNK N   1      30.453  22.080  -2.954  0.00  0.00     0.001 A 
HETATM    9  C   UNK N   1      29.739  23.235  -3.285  0.00  0.00     0.007 A 
ENDBRANCH   3   4
ENDBRANCH   1   3
BRANCH   1  10
HETATM   10  N   UNK N   1      26.549  25.263  -6.355  0.00  0.00     0.092 N 
HETATM   11  C   UNK N   1      25.852  24.574  -7.433  0.00  0.00     0.310 C 
BRANCH  10  12
HETATM   12  C   UNK N   1      25.533  26.095  -5.719  0.00  0.00     0.311 C 
BRANCH  12  13
HETATM   13  C   UNK N   1      26.113  27.431  -5.398  0.00  0.00    -0.030 A 
HETATM   14  C   UNK N   1      25.697  28.124  -4.256  0.00  0.00     0.009 A 
HETATM   15  C   UNK N   1      26.258  29.367  -3.948  0.00  0.00     0.001 A 
HETATM   16  C   UNK N   1      27.240  29.914  -4.780  0.00  0.00     0.000 A 
HETATM   17  C   UNK N   1      27.655  29.223  -5.921  0.00  0.00     0.001 A 
HETATM   18  C   UNK N   1      27.089  27.981  -6.233  0.00  0.00     0.009 A 
ENDBRANCH  12  13
ENDBRANCH  10  12
ENDBRANCH   1  10
TORSDOF 5
ENDMDL
MODEL 6
REMARK VINA RESULT:      -5.2     11.780     14.206
REMARK  5 active torsions:
REMARK  status: ('A' for Active; 'I' for Inactive)
REMARK    1  A    between atoms: C_1  and  C_2 
REMARK    2  A    between atoms: C_2  and  C_5 
REMARK    3  A    between atoms: C_5  and  N_8 
REMARK    4  A    between atoms: N_8  and  C_11 
REMARK    5  A    between atoms: C_11  and  C_13 
ROOT
HETATM    1  C   UNK N   1      29.542  18.282   8.093  0.00  0.00     0.223 C 
HETATM    2  C   UNK N   1      29.240  18.185   9.583  0.00  0.00     0.043 C 
ENDROOT
BRANCH   1   3
HETATM    3  C   UNK N   1      28.281  17.821   7.367  0.00  0.00     0.074 C 
BRANCH   3   4
HETATM    4  C   UNK N   1      27.821  18.866   6.408  0.00  0.00    -0.056 A 
HETATM    5  C   UNK N   1      27.471  20.132   6.884  0.00  0.00     0.007 A 
HETATM    6  C   UNK N   1      27.049  21.123   5.990  0.00  0.00     0.001 A 
HETATM    7  C   UNK N   1      26.971  20.843   4.623  0.00  0.00     0.000 A 
HETATM    8  C   UNK N   1      27.312  19.574   4.148  0.00  0.00     0.001 A 
HETATM    9  C   UNK N   1      27.739  18.585   5.039  0.00  0.00     0.007 A 
ENDBRANCH   3   4
ENDBRANCH   1   3
BRANCH   1  10
HETATM   10  N   UNK N   1      30.696  17.449   7.724  0.00  0.00     0.092 N 
HETATM   11  C   UNK N   1      31.146  16.715   8.899  0.00  0.00     0.310 C 
BRANCH  10  12
HETATM   12  C   UNK N   1      30.295  16.423   6.767  0.00  0.00     0.311 C 
BRANCH  12  13
HETATM   13  C   UNK N   1      30.972  16.668   5.461  0.00  0.00    -0.030 A 
HETATM   14  C   UNK N   1      32.225  17.288   5.422  0.00  0.00     0.009 A 
HETATM   15  C   UNK N   1      32.865  17.497   4.197  0.00  0.00     0.001 A 
HETATM   16  C   UNK N   1      32.253  17.079   3.011  0.00  0.00     0.000 A 
HETATM   17  C   UNK N   1      31.001  16.460   3.049  0.00  0.00     0.001 A 
HETATM   18  C   UNK N   1      30.358  16.257   4.275  0.00  0.00     0.009 A 
ENDBRANCH  12  13
ENDBRANCH  10  12
ENDBRANCH   1  10
TORSDOF 5
ENDMDL
MODEL 7
REMARK VINA RESULT:      -5.1      1.670      4.018
REMARK  5 active torsions:
REMARK  status: ('A' for Active; 'I' for Inactive)
REMARK    1  A    between atoms: C_1  and  C_2 
REMARK    2  A    between atoms: C_2  and  C_5 
REMARK    3  A    between atoms: C_5  and  N_8 
REMARK    4  A    between atoms: N_8  and  C_11 
REMARK    5  A    between atoms: C_11  and  C_13 
ROOT
HETATM    1  C   UNK N   1      26.789  24.085  -6.085  0.00  0.00     0.223 C 
HETATM    2  C   UNK N   1      25.704  23.027  -6.242  0.00  0.00     0.043 C 
ENDROOT
BRANCH   1   3
HETATM    3  C   UNK N   1      26.898  24.371  -4.590  0.00  0.00     0.074 C 
BRANCH   3   4
HETATM    4  C   UNK N   1      28.324  24.569  -4.201  0.00  0.00    -0.056 A 
HETATM    5  C   UNK N   1      29.116  23.460  -3.891  0.00  0.00     0.007 A 
HETATM    6  C   UNK N   1      30.457  23.635  -3.537  0.00  0.00     0.001 A 
HETATM    7  C   UNK N   1      31.004  24.920  -3.485  0.00  0.00     0.000 A 
HETATM    8  C   UNK N   1      30.211  26.031  -3.786  0.00  0.00     0.001 A 
HETATM    9  C   UNK N   1      28.872  25.856  -4.145  0.00  0.00     0.007 A 
ENDBRANCH   3   4
ENDBRANCH   1   3
BRANCH   1  10
HETATM   10  N   UNK N   1      26.458  25.307  -6.832  0.00  0.00     0.092 N 
HETATM   11  C   UNK N   1      25.841  24.937  -8.099  0.00  0.00     0.310 C 
BRANCH  10  12
HETATM   12  C   UNK N   1      25.437  26.073  -6.124  0.00  0.00     0.311 C 
BRANCH  12  13
HETATM   13  C   UNK N   1      26.023  27.356  -5.640  0.00  0.00    -0.030 A 
HETATM   14  C   UNK N   1      25.571  27.931  -4.448  0.00  0.00     0.009 A 
HETATM   15  C   UNK N   1      26.138  29.124  -3.988  0.00  0.00     0.001 A 
HETATM   16  C   UNK N   1      27.162  29.736  -4.716  0.00  0.00     0.000 A 
HETATM   17  C   UNK N   1      27.613  29.162  -5.908  0.00  0.00     0.001 A 
HETATM   18  C   UNK N   1      27.042  27.972  -6.372  0.00  0.00     0.009 A 
ENDBRANCH  12  13
ENDBRANCH  10  12
ENDBRANCH   1  10
TORSDOF 5
ENDMDL
MODEL 8
REMARK VINA RESULT:      -5.0     11.876     14.427
REMARK  5 active torsions:
REMARK  status: ('A' for Active; 'I' for Inactive)
REMARK    1  A    between atoms: C_1  and  C_2 
REMARK    2  A    between atoms: C_2  and  C_5 
REMARK    3  A    between atoms: C_5  and  N_8 
REMARK    4  A    between atoms: N_8  and  C_11 
REMARK    5  A    between atoms: C_11  and  C_13 
ROOT
HETATM    1  C   UNK N   1      28.307  16.277   5.624  0.00  0.00     0.223 C 
HETATM    2  C   UNK N   1      27.278  15.219   5.244  0.00  0.00     0.043 C 
ENDROOT
BRANCH   1   3
HETATM    3  C   UNK N   1      28.349  17.271   4.467  0.00  0.00     0.074 C 
BRANCH   3   4
HETATM    4  C   UNK N   1      27.852  18.605   4.910  0.00  0.00    -0.056 A 
HETATM    5  C   UNK N   1      27.198  19.436   3.996  0.00  0.00     0.007 A 
HETATM    6  C   UNK N   1      26.717  20.684   4.406  0.00  0.00     0.001 A 
HETATM    7  C   UNK N   1      26.900  21.104   5.727  0.00  0.00     0.000 A 
HETATM    8  C   UNK N   1      27.562  20.278   6.638  0.00  0.00     0.001 A 
HETATM    9  C   UNK N   1      28.037  19.028   6.232  0.00  0.00     0.007 A 
ENDBRANCH   3   4
ENDBRANCH   1   3
BRANCH   1  10
HETATM   10  N   UNK N   1      29.630  15.679   5.853  0.00  0.00     0.092 N 
HETATM   11  C   UNK N   1      29.675  14.368   5.219  0.00  0.00     0.310 C 
BRANCH  10  12
HETATM   12  C   UNK N   1      30.662  16.460   5.180  0.00  0.00     0.311 C 
BRANCH  12  13
HETATM   13  C   UNK N   1      31.618  16.999   6.190  0.00  0.00    -0.030 A 
HETATM   14  C   UNK N   1      32.955  17.223   5.847  0.00  0.00     0.009 A 
HETATM   15  C   UNK N   1      33.842  17.748   6.791  0.00  0.00     0.001 A 
HETATM   16  C   UNK N   1      33.390  18.056   8.077  0.00  0.00     0.000 A 
HETATM   17  C   UNK N   1      32.054  17.832   8.422  0.00  0.00     0.001 A 
HETATM   18  C   UNK N   1      31.167  17.301   7.478  0.00  0.00     0.009 A 
ENDBRANCH  12  13
ENDBRANCH  10  12
ENDBRANCH   1  10
TORSDOF 5
ENDMDL
MODEL 9
REMARK VINA RESULT:      -5.0      1.911      4.483
REMARK  5 active torsions:
REMARK  status: ('A' for Active; 'I' for Inactive)
REMARK    1  A    between atoms: C_1  and  C_2 
REMARK    2  A    between atoms: C_2  and  C_5 
REMARK    3  A    between atoms: C_5  and  N_8 
REMARK    4  A    between atoms: N_8  and  C_11 
REMARK    5  A    between atoms: C_11  and  C_13 
ROOT
HETATM    1  C   UNK N   1      25.940  26.072  -7.482  0.00  0.00     0.223 C 
HETATM    2  C   UNK N   1      25.716  26.040  -8.988  0.00  0.00     0.043 C 
ENDROOT
BRANCH   1   3
HETATM    3  C   UNK N   1      27.165  26.953  -7.248  0.00  0.00     0.074 C 
BRANCH   3   4
HETATM    4  C   UNK N   1      26.918  27.896  -6.119  0.00  0.00    -0.056 A 
HETATM    5  C   UNK N   1      25.928  27.602  -5.178  0.00  0.00     0.007 A 
HETATM    6  C   UNK N   1      25.698  28.474  -4.109  0.00  0.00     0.001 A 
HETATM    7  C   UNK N   1      26.452  29.645  -3.988  0.00  0.00     0.000 A 
HETATM    8  C   UNK N   1      27.435  29.945  -4.935  0.00  0.00     0.001 A 
HETATM    9  C   UNK N   1      27.670  29.071  -5.999  0.00  0.00     0.007 A 
ENDBRANCH   3   4
ENDBRANCH   1   3
BRANCH   1  10
HETATM   10  N   UNK N   1      26.154  24.721  -6.943  0.00  0.00     0.092 N 
HETATM   11  C   UNK N   1      25.656  23.744  -7.901  0.00  0.00     0.310 C 
BRANCH  10  12
HETATM   12  C   UNK N   1      27.581  24.442  -6.825  0.00  0.00     0.311 C 
BRANCH  12  13
HETATM   13  C   UNK N   1      27.912  24.129  -5.405  0.00  0.00    -0.030 A 
HETATM   14  C   UNK N   1      26.957  24.316  -4.401  0.00  0.00     0.009 A 
HETATM   15  C   UNK N   1      27.265  24.001  -3.074  0.00  0.00     0.001 A 
HETATM   16  C   UNK N   1      28.527  23.492  -2.753  0.00  0.00     0.000 A 
HETATM   17  C   UNK N   1      29.482  23.304  -3.756  0.00  0.00     0.001 A 
HETATM   18  C   UNK N   1      29.176  23.626  -5.083  0.00  0.00     0.009 A 
ENDBRANCH  12  13
ENDBRANCH  10  12
ENDBRANCH   1  10
TORSDOF 5
ENDMDL
