MODEL 1
REMARK VINA RESULT:      -6.9      0.000      0.000
REMARK  8 active torsions:
REMARK  status: ('A' for Active; 'I' for Inactive)
REMARK    1  A    between atoms: O_1  and  C_12 
REMARK    2  A    between atoms: O_1  and  C_20 
REMARK    3  A    between atoms: N_3  and  C_11 
REMARK    4  A    between atoms: N_4  and  C_26 
REMARK    5  A    between atoms: C_5  and  C_10 
REMARK    6  A    between atoms: C_5  and  C_12 
REMARK    7  A    between atoms: C_11  and  C_13 
REMARK    8  A    between atoms: C_13  and  C_16 
ROOT
HETATM    1  N   UNK N   1      36.074   9.706  14.698  0.00  0.00     0.088 N 
HETATM    2  C   UNK N   1      36.143  12.688  14.290  0.00  0.00     0.078 C 
HETATM    3  C   UNK N   1      34.866  11.848  14.463  0.00  0.00     0.055 C 
HETATM    4  C   UNK N   1      37.397  11.785  14.214  0.00  0.00     0.055 C 
HETATM    5  C   UNK N   1      35.058  10.434  13.918  0.00  0.00     0.274 C 
HETATM    6  C   UNK N   1      37.242  10.526  15.076  0.00  0.00     0.274 C 
ENDROOT
BRANCH   1   7
HETATM    7  C   UNK N   1      35.459   9.247  15.941  0.00  0.00     0.277 C 
BRANCH   7   8
HETATM    8  C   UNK N   1      36.427   9.387  17.111  0.00  0.00     0.068 C 
BRANCH   8   9
HETATM    9  C   UNK N   1      35.690   9.735  18.357  0.00  0.00    -0.056 A 
HETATM   10  C   UNK N   1      34.499   9.072  18.680  0.00  0.00     0.009 A 
HETATM   11  C   UNK N   1      33.802   9.411  19.841  0.00  0.00     0.029 A 
HETATM   12  C   UNK N   1      34.295  10.415  20.681  0.00  0.00     0.025 A 
HETATM   13  C   UNK N   1      35.485  11.075  20.362  0.00  0.00     0.029 A 
HETATM   14  C   UNK N   1      36.183  10.734  19.200  0.00  0.00     0.009 A 
BRANCH  12  15
HETATM   15  N   UNK N   1      33.590  10.760  21.851  0.00  0.00    -0.399 N 
HETATM   16  H   UNK N   1      32.996  10.228  22.430  0.00  0.00     0.156 HD
HETATM   17  H   UNK N   1      33.711  11.693  22.139  0.00  0.00     0.156 HD
ENDBRANCH  12  15
ENDBRANCH   8   9
ENDBRANCH   7   8
ENDBRANCH   1   7
BRANCH   2  18
HETATM   18  C   UNK N   1      36.244  13.592  15.525  0.00  0.00    -0.040 A 
HETATM   19  C   UNK N   1      37.102  14.705  15.582  0.00  0.00     0.008 A 
HETATM   20  C   UNK N   1      37.148  15.518  16.717  0.00  0.00     0.001 A 
HETATM   21  C   UNK N   1      36.344  15.226  17.819  0.00  0.00     0.000 A 
HETATM   22  C   UNK N   1      35.487  14.126  17.784  0.00  0.00     0.001 A 
HETATM   23  C   UNK N   1      35.431  13.322  16.644  0.00  0.00     0.008 A 
ENDBRANCH   2  18
BRANCH   2  24
HETATM   24  C   UNK N   1      36.045  13.374  12.931  0.00  0.00     0.272 C 
HETATM   25  O   UNK N   1      36.943  13.286  12.104  0.00  0.00    -0.264 OA
BRANCH  24  26
HETATM   26  O   UNK N   1      34.924  14.087  12.641  0.00  0.00    -0.321 OA
BRANCH  26  27
HETATM   27  C   UNK N   1      34.696  14.661  11.409  0.00  0.00     0.174 C 
HETATM   28  C   UNK N   1      35.319  16.043  11.355  0.00  0.00     0.034 C 
ENDBRANCH  26  27
ENDBRANCH  24  26
ENDBRANCH   2  24
TORSDOF 8
ENDMDL
MODEL 2
REMARK VINA RESULT:      -6.6      9.401     12.516
REMARK  8 active torsions:
REMARK  status: ('A' for Active; 'I' for Inactive)
REMARK    1  A    between atoms: O_1  and  C_12 
REMARK    2  A    between atoms: O_1  and  C_20 
REMARK    3  A    between atoms: N_3  and  C_11 
REMARK    4  A    between atoms: N_4  and  C_26 
REMARK    5  A    between atoms: C_5  and  C_10 
REMARK    6  A    between atoms: C_5  and  C_12 
REMARK    7  A    between atoms: C_11  and  C_13 
REMARK    8  A    between atoms: C_13  and  C_16 
ROOT
HETATM    1  N   UNK N   1      31.939  15.825   3.864  0.00  0.00     0.088 N 
HETATM    2  C   UNK N   1      29.430  16.272   5.466  0.00  0.00     0.078 C 
HETATM    3  C   UNK N   1      30.368  15.061   5.610  0.00  0.00     0.055 C 
HETATM    4  C   UNK N   1      29.864  17.174   4.287  0.00  0.00     0.055 C 
HETATM    5  C   UNK N   1      31.048  14.729   4.284  0.00  0.00     0.274 C 
HETATM    6  C   UNK N   1      31.386  17.172   4.103  0.00  0.00     0.274 C 
ENDROOT
BRANCH   1   7
HETATM    7  C   UNK N   1      33.177  15.732   4.632  0.00  0.00     0.277 C 
BRANCH   7   8
HETATM    8  C   UNK N   1      33.588  17.099   5.168  0.00  0.00     0.068 C 
BRANCH   8   9
HETATM    9  C   UNK N   1      33.957  17.004   6.608  0.00  0.00    -0.056 A 
HETATM   10  C   UNK N   1      34.070  15.752   7.225  0.00  0.00     0.009 A 
HETATM   11  C   UNK N   1      34.400  15.667   8.579  0.00  0.00     0.029 A 
HETATM   12  C   UNK N   1      34.617  16.834   9.318  0.00  0.00     0.025 A 
HETATM   13  C   UNK N   1      34.508  18.084   8.702  0.00  0.00     0.029 A 
HETATM   14  C   UNK N   1      34.178  18.169   7.347  0.00  0.00     0.009 A 
BRANCH  12  15
HETATM   15  N   UNK N   1      34.947  16.748  10.684  0.00  0.00    -0.399 N 
HETATM   16  H   UNK N   1      34.670  17.297  11.453  0.00  0.00     0.156 HD
HETATM   17  H   UNK N   1      35.560  16.011  10.910  0.00  0.00     0.156 HD
ENDBRANCH  12  15
ENDBRANCH   8   9
ENDBRANCH   7   8
ENDBRANCH   1   7
BRANCH   2  18
HETATM   18  C   UNK N   1      29.530  17.064   6.775  0.00  0.00    -0.040 A 
HETATM   19  C   UNK N   1      30.620  16.939   7.655  0.00  0.00     0.008 A 
HETATM   20  C   UNK N   1      30.687  17.696   8.827  0.00  0.00     0.001 A 
HETATM   21  C   UNK N   1      29.659  18.585   9.145  0.00  0.00     0.000 A 
HETATM   22  C   UNK N   1      28.568  18.723   8.286  0.00  0.00     0.001 A 
HETATM   23  C   UNK N   1      28.509  17.976   7.108  0.00  0.00     0.008 A 
ENDBRANCH   2  18
BRANCH   2  24
HETATM   24  C   UNK N   1      28.056  15.728   5.086  0.00  0.00     0.272 C 
HETATM   25  O   UNK N   1      27.554  14.784   5.682  0.00  0.00    -0.264 OA
BRANCH  24  26
HETATM   26  O   UNK N   1      27.380  16.320   4.066  0.00  0.00    -0.321 OA
BRANCH  26  27
HETATM   27  C   UNK N   1      26.131  15.911   3.654  0.00  0.00     0.174 C 
HETATM   28  C   UNK N   1      26.127  15.679   2.155  0.00  0.00     0.034 C 
ENDBRANCH  26  27
ENDBRANCH  24  26
ENDBRANCH   2  24
TORSDOF 8
ENDMDL
MODEL 3
REMARK VINA RESULT:      -6.5     22.472     25.733
REMARK  8 active torsions:
REMARK  status: ('A' for Active; 'I' for Inactive)
REMARK    1  A    between atoms: O_1  and  C_12 
REMARK    2  A    between atoms: O_1  and  C_20 
REMARK    3  A    between atoms: N_3  and  C_11 
REMARK    4  A    between atoms: N_4  and  C_26 
REMARK    5  A    between atoms: C_5  and  C_10 
REMARK    6  A    between atoms: C_5  and  C_12 
REMARK    7  A    between atoms: C_11  and  C_13 
REMARK    8  A    between atoms: C_13  and  C_16 
ROOT
HETATM    1  N   UNK N   1      28.511  24.860  -3.506  0.00  0.00     0.088 N 
HETATM    2  C   UNK N   1      26.799  24.466  -5.951  0.00  0.00     0.078 C 
HETATM    3  C   UNK N   1      28.207  25.086  -5.948  0.00  0.00     0.055 C 
HETATM    4  C   UNK N   1      26.308  24.194  -4.510  0.00  0.00     0.055 C 
HETATM    5  C   UNK N   1      28.488  25.810  -4.634  0.00  0.00     0.274 C 
HETATM    6  C   UNK N   1      27.467  23.820  -3.577  0.00  0.00     0.274 C 
ENDROOT
BRANCH   1   7
HETATM    7  C   UNK N   1      29.798  24.170  -3.512  0.00  0.00     0.277 C 
BRANCH   7   8
HETATM    8  C   UNK N   1      29.667  22.770  -2.923  0.00  0.00     0.068 C 
BRANCH   8   9
HETATM    9  C   UNK N   1      30.736  21.880  -3.454  0.00  0.00    -0.056 A 
HETATM   10  C   UNK N   1      30.473  21.030  -4.536  0.00  0.00     0.009 A 
HETATM   11  C   UNK N   1      31.474  20.185  -5.021  0.00  0.00     0.029 A 
HETATM   12  C   UNK N   1      32.739  20.189  -4.425  0.00  0.00     0.025 A 
HETATM   13  C   UNK N   1      33.004  21.039  -3.347  0.00  0.00     0.029 A 
HETATM   14  C   UNK N   1      32.002  21.885  -2.862  0.00  0.00     0.009 A 
BRANCH  12  15
HETATM   15  N   UNK N   1      33.747  19.334  -4.912  0.00  0.00    -0.399 N 
HETATM   16  H   UNK N   1      34.389  19.445  -5.650  0.00  0.00     0.156 HD
HETATM   17  H   UNK N   1      33.822  18.478  -4.431  0.00  0.00     0.156 HD
ENDBRANCH  12  15
ENDBRANCH   8   9
ENDBRANCH   7   8
ENDBRANCH   1   7
BRANCH   2  18
HETATM   18  C   UNK N   1      26.904  23.138  -6.710  0.00  0.00    -0.040 A 
HETATM   19  C   UNK N   1      25.779  22.458  -7.208  0.00  0.00     0.008 A 
HETATM   20  C   UNK N   1      25.918  21.262  -7.916  0.00  0.00     0.001 A 
HETATM   21  C   UNK N   1      27.186  20.719  -8.130  0.00  0.00     0.000 A 
HETATM   22  C   UNK N   1      28.316  21.378  -7.643  0.00  0.00     0.001 A 
HETATM   23  C   UNK N   1      28.177  22.581  -6.948  0.00  0.00     0.008 A 
ENDBRANCH   2  18
BRANCH   2  24
HETATM   24  C   UNK N   1      25.851  25.519  -6.518  0.00  0.00     0.272 C 
HETATM   25  O   UNK N   1      25.971  25.938  -7.662  0.00  0.00    -0.264 OA
BRANCH  24  26
HETATM   26  O   UNK N   1      24.849  25.987  -5.728  0.00  0.00    -0.321 OA
BRANCH  26  27
HETATM   27  C   UNK N   1      24.595  27.329  -5.549  0.00  0.00     0.174 C 
HETATM   28  C   UNK N   1      25.437  27.872  -4.410  0.00  0.00     0.034 C 
ENDBRANCH  26  27
ENDBRANCH  24  26
ENDBRANCH   2  24
TORSDOF 8
ENDMDL
MODEL 4
REMARK VINA RESULT:      -6.5     22.997     26.538
REMARK  8 active torsions:
REMARK  status: ('A' for Active; 'I' for Inactive)
REMARK    1  A    between atoms: O_1  and  C_12 
REMARK    2  A    between atoms: O_1  and  C_20 
REMARK    3  A    between atoms: N_3  and  C_11 
REMARK    4  A    between atoms: N_4  and  C_26 
REMARK    5  A    between atoms: C_5  and  C_10 
REMARK    6  A    between atoms: C_5  and  C_12 
REMARK    7  A    between atoms: C_11  and  C_13 
REMARK    8  A    between atoms: C_13  and  C_16 
ROOT
HETATM    1  N   UNK N   1      31.631  26.709  -5.377  0.00  0.00     0.088 N 
HETATM    2  C   UNK N   1      30.144  24.350  -4.242  0.00  0.00     0.078 C 
HETATM    3  C   UNK N   1      30.160  25.763  -3.633  0.00  0.00     0.055 C 
HETATM    4  C   UNK N   1      31.108  24.254  -5.448  0.00  0.00     0.055 C 
HETATM    5  C   UNK N   1      31.476  26.477  -3.930  0.00  0.00     0.274 C 
HETATM    6  C   UNK N   1      31.188  25.579  -6.217  0.00  0.00     0.274 C 
ENDROOT
BRANCH   1   7
HETATM    7  C   UNK N   1      30.812  27.860  -5.749  0.00  0.00     0.277 C 
BRANCH   7   8
HETATM    8  C   UNK N   1      29.979  27.556  -6.990  0.00  0.00     0.068 C 
BRANCH   8   9
HETATM    9  C   UNK N   1      28.533  27.484  -6.641  0.00  0.00    -0.056 A 
HETATM   10  C   UNK N   1      28.075  28.007  -5.425  0.00  0.00     0.009 A 
HETATM   11  C   UNK N   1      26.721  27.924  -5.095  0.00  0.00     0.029 A 
HETATM   12  C   UNK N   1      25.823  27.316  -5.978  0.00  0.00     0.025 A 
HETATM   13  C   UNK N   1      26.279  26.796  -7.193  0.00  0.00     0.029 A 
HETATM   14  C   UNK N   1      27.634  26.880  -7.524  0.00  0.00     0.009 A 
BRANCH  12  15
HETATM   15  N   UNK N   1      24.459  27.229  -5.642  0.00  0.00    -0.399 N 
HETATM   16  H   UNK N   1      23.752  27.914  -5.618  0.00  0.00     0.156 HD
HETATM   17  H   UNK N   1      24.159  26.326  -5.388  0.00  0.00     0.156 HD
ENDBRANCH  12  15
ENDBRANCH   8   9
ENDBRANCH   7   8
ENDBRANCH   1   7
BRANCH   2  18
HETATM   18  C   UNK N   1      28.709  24.094  -4.719  0.00  0.00    -0.040 A 
HETATM   19  C   UNK N   1      28.417  23.478  -5.949  0.00  0.00     0.008 A 
HETATM   20  C   UNK N   1      27.097  23.240  -6.337  0.00  0.00     0.001 A 
HETATM   21  C   UNK N   1      26.044  23.623  -5.505  0.00  0.00     0.000 A 
HETATM   22  C   UNK N   1      26.311  24.236  -4.281  0.00  0.00     0.001 A 
HETATM   23  C   UNK N   1      27.632  24.461  -3.888  0.00  0.00     0.008 A 
ENDBRANCH   2  18
BRANCH   2  24
HETATM   24  C   UNK N   1      30.707  23.404  -3.187  0.00  0.00     0.272 C 
HETATM   25  O   UNK N   1      30.582  23.632  -1.991  0.00  0.00    -0.264 OA
BRANCH  24  26
HETATM   26  O   UNK N   1      31.350  22.278  -3.597  0.00  0.00    -0.321 OA
BRANCH  26  27
HETATM   27  C   UNK N   1      30.726  21.055  -3.712  0.00  0.00     0.174 C 
HETATM   28  C   UNK N   1      30.984  20.465  -5.085  0.00  0.00     0.034 C 
ENDBRANCH  26  27
ENDBRANCH  24  26
ENDBRANCH   2  24
TORSDOF 8
ENDMDL
MODEL 5
REMARK VINA RESULT:      -6.5     22.473     27.004
REMARK  8 active torsions:
REMARK  status: ('A' for Active; 'I' for Inactive)
REMARK    1  A    between atoms: O_1  and  C_12 
REMARK    2  A    between atoms: O_1  and  C_20 
REMARK    3  A    between atoms: N_3  and  C_11 
REMARK    4  A    between atoms: N_4  and  C_26 
REMARK    5  A    between atoms: C_5  and  C_10 
REMARK    6  A    between atoms: C_5  and  C_12 
REMARK    7  A    between atoms: C_11  and  C_13 
REMARK    8  A    between atoms: C_13  and  C_16 
ROOT
HETATM    1  N   UNK N   1      25.653  24.546  -5.043  0.00  0.00     0.088 N 
HETATM    2  C   UNK N   1      28.628  24.200  -4.741  0.00  0.00     0.078 C 
HETATM    3  C   UNK N   1      27.862  24.147  -6.074  0.00  0.00     0.055 C 
HETATM    4  C   UNK N   1      27.655  24.317  -3.545  0.00  0.00     0.055 C 
HETATM    5  C   UNK N   1      26.443  23.620  -5.874  0.00  0.00     0.274 C 
HETATM    6  C   UNK N   1      26.402  25.123  -3.910  0.00  0.00     0.274 C 
ENDROOT
BRANCH   1   7
HETATM    7  C   UNK N   1      25.223  25.663  -5.879  0.00  0.00     0.277 C 
BRANCH   7   8
HETATM    8  C   UNK N   1      25.484  26.995  -5.184  0.00  0.00     0.068 C 
BRANCH   8   9
HETATM    9  C   UNK N   1      26.560  27.747  -5.887  0.00  0.00    -0.056 A 
HETATM   10  C   UNK N   1      27.040  27.299  -7.124  0.00  0.00     0.009 A 
HETATM   11  C   UNK N   1      28.060  27.999  -7.773  0.00  0.00     0.029 A 
HETATM   12  C   UNK N   1      28.600  29.147  -7.186  0.00  0.00     0.025 A 
HETATM   13  C   UNK N   1      28.119  29.597  -5.954  0.00  0.00     0.029 A 
HETATM   14  C   UNK N   1      27.098  28.898  -5.305  0.00  0.00     0.009 A 
BRANCH  12  15
HETATM   15  N   UNK N   1      29.631  29.850  -7.840  0.00  0.00    -0.399 N 
HETATM   16  H   UNK N   1      30.019  29.743  -8.738  0.00  0.00     0.156 HD
HETATM   17  H   UNK N   1      30.032  30.573  -7.306  0.00  0.00     0.156 HD
ENDBRANCH  12  15
ENDBRANCH   8   9
ENDBRANCH   7   8
ENDBRANCH   1   7
BRANCH   2  18
HETATM   18  C   UNK N   1      29.518  25.448  -4.795  0.00  0.00    -0.040 A 
HETATM   19  C   UNK N   1      29.576  26.383  -3.747  0.00  0.00     0.008 A 
HETATM   20  C   UNK N   1      30.418  27.496  -3.824  0.00  0.00     0.001 A 
HETATM   21  C   UNK N   1      31.209  27.697  -4.956  0.00  0.00     0.000 A 
HETATM   22  C   UNK N   1      31.165  26.781  -6.008  0.00  0.00     0.001 A 
HETATM   23  C   UNK N   1      30.334  25.662  -5.924  0.00  0.00     0.008 A 
ENDBRANCH   2  18
BRANCH   2  24
HETATM   24  C   UNK N   1      29.326  22.853  -4.576  0.00  0.00     0.272 C 
HETATM   25  O   UNK N   1      29.526  22.114  -5.531  0.00  0.00    -0.264 OA
BRANCH  24  26
HETATM   26  O   UNK N   1      29.742  22.483  -3.335  0.00  0.00    -0.321 OA
BRANCH  26  27
HETATM   27  C   UNK N   1      30.963  22.848  -2.811  0.00  0.00     0.174 C 
HETATM   28  C   UNK N   1      31.942  21.695  -2.917  0.00  0.00     0.034 C 
ENDBRANCH  26  27
ENDBRANCH  24  26
ENDBRANCH   2  24
TORSDOF 8
ENDMDL
MODEL 6
REMARK VINA RESULT:      -6.4      9.296     13.990
REMARK  8 active torsions:
REMARK  status: ('A' for Active; 'I' for Inactive)
REMARK    1  A    between atoms: O_1  and  C_12 
REMARK    2  A    between atoms: O_1  and  C_20 
REMARK    3  A    between atoms: N_3  and  C_11 
REMARK    4  A    between atoms: N_4  and  C_26 
REMARK    5  A    between atoms: C_5  and  C_10 
REMARK    6  A    between atoms: C_5  and  C_12 
REMARK    7  A    between atoms: C_11  and  C_13 
REMARK    8  A    between atoms: C_13  and  C_16 
ROOT
HETATM    1  N   UNK N   1      31.177  15.678   3.435  0.00  0.00     0.088 N 
HETATM    2  C   UNK N   1      32.091  16.720   6.107  0.00  0.00     0.078 C 
HETATM    3  C   UNK N   1      31.973  17.560   4.823  0.00  0.00     0.055 C 
HETATM    4  C   UNK N   1      31.810  15.226   5.822  0.00  0.00     0.055 C 
HETATM    5  C   UNK N   1      32.222  16.707   3.582  0.00  0.00     0.274 C 
HETATM    6  C   UNK N   1      30.773  15.047   4.706  0.00  0.00     0.274 C 
ENDROOT
BRANCH   1   7
HETATM    7  C   UNK N   1      29.984  16.311   2.878  0.00  0.00     0.277 C 
BRANCH   7   8
HETATM    8  C   UNK N   1      28.737  15.892   3.649  0.00  0.00     0.068 C 
BRANCH   8   9
HETATM    9  C   UNK N   1      27.767  17.020   3.721  0.00  0.00    -0.056 A 
HETATM   10  C   UNK N   1      26.414  16.807   3.427  0.00  0.00     0.009 A 
HETATM   11  C   UNK N   1      25.511  17.870   3.481  0.00  0.00     0.029 A 
HETATM   12  C   UNK N   1      25.959  19.148   3.829  0.00  0.00     0.025 A 
HETATM   13  C   UNK N   1      27.308  19.362   4.126  0.00  0.00     0.029 A 
HETATM   14  C   UNK N   1      28.212  18.297   4.074  0.00  0.00     0.009 A 
BRANCH  12  15
HETATM   15  N   UNK N   1      25.048  20.221   3.879  0.00  0.00    -0.399 N 
HETATM   16  H   UNK N   1      25.046  21.044   4.419  0.00  0.00     0.156 HD
HETATM   17  H   UNK N   1      24.280  20.132   3.269  0.00  0.00     0.156 HD
ENDBRANCH  12  15
ENDBRANCH   8   9
ENDBRANCH   7   8
ENDBRANCH   1   7
BRANCH   2  18
HETATM   18  C   UNK N   1      31.035  17.258   7.081  0.00  0.00    -0.040 A 
HETATM   19  C   UNK N   1      29.657  17.043   6.900  0.00  0.00     0.008 A 
HETATM   20  C   UNK N   1      28.728  17.529   7.823  0.00  0.00     0.001 A 
HETATM   21  C   UNK N   1      29.160  18.247   8.939  0.00  0.00     0.000 A 
HETATM   22  C   UNK N   1      30.523  18.472   9.136  0.00  0.00     0.001 A 
HETATM   23  C   UNK N   1      31.452  17.974   8.221  0.00  0.00     0.008 A 
ENDBRANCH   2  18
BRANCH   2  24
HETATM   24  C   UNK N   1      33.548  16.789   6.552  0.00  0.00     0.272 C 
HETATM   25  O   UNK N   1      34.239  17.775   6.331  0.00  0.00    -0.264 OA
BRANCH  24  26
HETATM   26  O   UNK N   1      34.077  15.729   7.219  0.00  0.00    -0.321 OA
BRANCH  26  27
HETATM   27  C   UNK N   1      34.492  15.797   8.531  0.00  0.00     0.174 C 
HETATM   28  C   UNK N   1      33.470  15.138   9.437  0.00  0.00     0.034 C 
ENDBRANCH  26  27
ENDBRANCH  24  26
ENDBRANCH   2  24
TORSDOF 8
ENDMDL
MODEL 7
REMARK VINA RESULT:      -6.4      9.174     11.667
REMARK  8 active torsions:
REMARK  status: ('A' for Active; 'I' for Inactive)
REMARK    1  A    between atoms: O_1  and  C_12 
REMARK    2  A    between atoms: O_1  and  C_20 
REMARK    3  A    between atoms: N_3  and  C_11 
REMARK    4  A    between atoms: N_4  and  C_26 
REMARK    5  A    between atoms: C_5  and  C_10 
REMARK    6  A    between atoms: C_5  and  C_12 
REMARK    7  A    between atoms: C_11  and  C_13 
REMARK    8  A    between atoms: C_13  and  C_16 
ROOT
HETATM    1  N   UNK N   1      31.780  15.382   3.326  0.00  0.00     0.088 N 
HETATM    2  C   UNK N   1      31.159  16.812   5.902  0.00  0.00     0.078 C 
HETATM    3  C   UNK N   1      30.893  15.321   5.631  0.00  0.00     0.055 C 
HETATM    4  C   UNK N   1      31.664  17.527   4.627  0.00  0.00     0.055 C 
HETATM    5  C   UNK N   1      30.600  15.073   4.153  0.00  0.00     0.274 C 
HETATM    6  C   UNK N   1      32.508  16.593   3.750  0.00  0.00     0.274 C 
ENDROOT
BRANCH   1   7
HETATM    7  C   UNK N   1      32.717  14.267   3.426  0.00  0.00     0.277 C 
BRANCH   7   8
HETATM    8  C   UNK N   1      34.111  14.760   3.801  0.00  0.00     0.068 C 
BRANCH   8   9
HETATM    9  C   UNK N   1      34.488  14.273   5.157  0.00  0.00    -0.056 A 
HETATM   10  C   UNK N   1      35.581  14.834   5.829  0.00  0.00     0.009 A 
HETATM   11  C   UNK N   1      35.940  14.363   7.094  0.00  0.00     0.029 A 
HETATM   12  C   UNK N   1      35.208  13.331   7.688  0.00  0.00     0.025 A 
HETATM   13  C   UNK N   1      34.115  12.772   7.019  0.00  0.00     0.029 A 
HETATM   14  C   UNK N   1      33.754  13.244   5.754  0.00  0.00     0.009 A 
BRANCH  12  15
HETATM   15  N   UNK N   1      35.574  12.854   8.962  0.00  0.00    -0.399 N 
HETATM   16  H   UNK N   1      35.222  12.108   9.499  0.00  0.00     0.156 HD
HETATM   17  H   UNK N   1      36.308  13.353   9.388  0.00  0.00     0.156 HD
ENDBRANCH  12  15
ENDBRANCH   8   9
ENDBRANCH   7   8
ENDBRANCH   1   7
BRANCH   2  18
HETATM   18  C   UNK N   1      32.246  16.874   6.983  0.00  0.00    -0.040 A 
HETATM   19  C   UNK N   1      33.248  17.861   6.994  0.00  0.00     0.008 A 
HETATM   20  C   UNK N   1      34.207  17.898   8.010  0.00  0.00     0.001 A 
HETATM   21  C   UNK N   1      34.186  16.943   9.027  0.00  0.00     0.000 A 
HETATM   22  C   UNK N   1      33.201  15.955   9.033  0.00  0.00     0.001 A 
HETATM   23  C   UNK N   1      32.234  15.926   8.026  0.00  0.00     0.008 A 
ENDBRANCH   2  18
BRANCH   2  24
HETATM   24  C   UNK N   1      29.814  17.452   6.229  0.00  0.00     0.272 C 
HETATM   25  O   UNK N   1      29.141  18.004   5.368  0.00  0.00    -0.264 OA
BRANCH  24  26
HETATM   26  O   UNK N   1      29.358  17.393   7.508  0.00  0.00    -0.321 OA
BRANCH  26  27
HETATM   27  C   UNK N   1      29.043  18.512   8.248  0.00  0.00     0.174 C 
HETATM   28  C   UNK N   1      30.029  18.677   9.389  0.00  0.00     0.034 C 
ENDBRANCH  26  27
ENDBRANCH  24  26
ENDBRANCH   2  24
TORSDOF 8
ENDMDL
MODEL 8
REMARK VINA RESULT:      -6.3     23.696     26.630
REMARK  8 active torsions:
REMARK  status: ('A' for Active; 'I' for Inactive)
REMARK    1  A    between atoms: O_1  and  C_12 
REMARK    2  A    between atoms: O_1  and  C_20 
REMARK    3  A    between atoms: N_3  and  C_11 
REMARK    4  A    between atoms: N_4  and  C_26 
REMARK    5  A    between atoms: C_5  and  C_10 
REMARK    6  A    between atoms: C_5  and  C_12 
REMARK    7  A    between atoms: C_11  and  C_13 
REMARK    8  A    between atoms: C_13  and  C_16 
ROOT
HETATM    1  N   UNK N   1      25.437  27.161  -5.658  0.00  0.00     0.088 N 
HETATM    2  C   UNK N   1      27.961  28.565  -4.810  0.00  0.00     0.078 C 
HETATM    3  C   UNK N   1      26.972  27.872  -3.857  0.00  0.00     0.055 C 
HETATM    4  C   UNK N   1      27.424  28.572  -6.260  0.00  0.00     0.055 C 
HETATM    5  C   UNK N   1      25.548  27.928  -4.404  0.00  0.00     0.274 C 
HETATM    6  C   UNK N   1      26.592  27.320  -6.563  0.00  0.00     0.274 C 
ENDROOT
BRANCH   1   7
HETATM    7  C   UNK N   1      25.354  25.742  -5.323  0.00  0.00     0.277 C 
BRANCH   7   8
HETATM    8  C   UNK N   1      26.473  24.957  -6.000  0.00  0.00     0.068 C 
BRANCH   8   9
HETATM    9  C   UNK N   1      27.393  24.379  -4.981  0.00  0.00    -0.056 A 
HETATM   10  C   UNK N   1      27.013  24.332  -3.634  0.00  0.00     0.009 A 
HETATM   11  C   UNK N   1      27.884  23.803  -2.679  0.00  0.00     0.029 A 
HETATM   12  C   UNK N   1      29.138  23.322  -3.070  0.00  0.00     0.025 A 
HETATM   13  C   UNK N   1      29.517  23.366  -4.415  0.00  0.00     0.029 A 
HETATM   14  C   UNK N   1      28.644  23.894  -5.370  0.00  0.00     0.009 A 
BRANCH  12  15
HETATM   15  N   UNK N   1      30.018  22.793  -2.107  0.00  0.00    -0.399 N 
HETATM   16  H   UNK N   1      30.281  21.865  -1.910  0.00  0.00     0.156 HD
HETATM   17  H   UNK N   1      30.443  23.468  -1.530  0.00  0.00     0.156 HD
ENDBRANCH  12  15
ENDBRANCH   8   9
ENDBRANCH   7   8
ENDBRANCH   1   7
BRANCH   2  18
HETATM   18  C   UNK N   1      29.264  27.757  -4.756  0.00  0.00    -0.040 A 
HETATM   19  C   UNK N   1      30.047  27.505  -5.896  0.00  0.00     0.008 A 
HETATM   20  C   UNK N   1      31.241  26.784  -5.801  0.00  0.00     0.001 A 
HETATM   21  C   UNK N   1      31.666  26.294  -4.565  0.00  0.00     0.000 A 
HETATM   22  C   UNK N   1      30.902  26.533  -3.422  0.00  0.00     0.001 A 
HETATM   23  C   UNK N   1      29.717  27.265  -3.515  0.00  0.00     0.008 A 
ENDBRANCH   2  18
BRANCH   2  24
HETATM   24  C   UNK N   1      28.033  30.030  -4.389  0.00  0.00     0.272 C 
HETATM   25  O   UNK N   1      27.390  30.895  -4.969  0.00  0.00    -0.264 OA
BRANCH  24  26
HETATM   26  O   UNK N   1      28.823  30.367  -3.336  0.00  0.00    -0.321 OA
BRANCH  26  27
HETATM   27  C   UNK N   1      28.331  30.909  -2.169  0.00  0.00     0.174 C 
HETATM   28  C   UNK N   1      28.412  29.893  -1.046  0.00  0.00     0.034 C 
ENDBRANCH  26  27
ENDBRANCH  24  26
ENDBRANCH   2  24
TORSDOF 8
ENDMDL
MODEL 9
REMARK VINA RESULT:      -6.3      8.546     11.331
REMARK  8 active torsions:
REMARK  status: ('A' for Active; 'I' for Inactive)
REMARK    1  A    between atoms: O_1  and  C_12 
REMARK    2  A    between atoms: O_1  and  C_20 
REMARK    3  A    between atoms: N_3  and  C_11 
REMARK    4  A    between atoms: N_4  and  C_26 
REMARK    5  A    between atoms: C_5  and  C_10 
REMARK    6  A    between atoms: C_5  and  C_12 
REMARK    7  A    between atoms: C_11  and  C_13 
REMARK    8  A    between atoms: C_13  and  C_16 
ROOT
HETATM    1  N   UNK N   1      33.113  13.638   3.796  0.00  0.00     0.088 N 
HETATM    2  C   UNK N   1      31.787  16.188   4.691  0.00  0.00     0.078 C 
HETATM    3  C   UNK N   1      31.312  14.770   5.053  0.00  0.00     0.055 C 
HETATM    4  C   UNK N   1      32.961  16.141   3.685  0.00  0.00     0.055 C 
HETATM    5  C   UNK N   1      31.653  13.775   3.946  0.00  0.00     0.274 C 
HETATM    6  C   UNK N   1      33.849  14.911   3.908  0.00  0.00     0.274 C 
ENDROOT
BRANCH   1   7
HETATM    7  C   UNK N   1      33.605  12.768   4.860  0.00  0.00     0.277 C 
BRANCH   7   8
HETATM    8  C   UNK N   1      34.811  13.390   5.556  0.00  0.00     0.068 C 
BRANCH   8   9
HETATM    9  C   UNK N   1      34.463  13.781   6.950  0.00  0.00    -0.056 A 
HETATM   10  C   UNK N   1      33.243  13.383   7.510  0.00  0.00     0.009 A 
HETATM   11  C   UNK N   1      32.913  13.765   8.812  0.00  0.00     0.029 A 
HETATM   12  C   UNK N   1      33.803  14.545   9.556  0.00  0.00     0.025 A 
HETATM   13  C   UNK N   1      35.023  14.940   9.000  0.00  0.00     0.029 A 
HETATM   14  C   UNK N   1      35.354  14.557   7.697  0.00  0.00     0.009 A 
BRANCH  12  15
HETATM   15  N   UNK N   1      33.469  14.933  10.868  0.00  0.00    -0.399 N 
HETATM   16  H   UNK N   1      32.864  14.525  11.529  0.00  0.00     0.156 HD
HETATM   17  H   UNK N   1      33.917  15.753  11.176  0.00  0.00     0.156 HD
ENDBRANCH  12  15
ENDBRANCH   8   9
ENDBRANCH   7   8
ENDBRANCH   1   7
BRANCH   2  18
HETATM   18  C   UNK N   1      32.261  16.839   5.995  0.00  0.00    -0.040 A 
HETATM   19  C   UNK N   1      31.492  16.827   7.172  0.00  0.00     0.008 A 
HETATM   20  C   UNK N   1      31.970  17.411   8.348  0.00  0.00     0.001 A 
HETATM   21  C   UNK N   1      33.223  18.026   8.364  0.00  0.00     0.000 A 
HETATM   22  C   UNK N   1      34.001  18.050   7.207  0.00  0.00     0.001 A 
HETATM   23  C   UNK N   1      33.529  17.454   6.036  0.00  0.00     0.008 A 
ENDBRANCH   2  18
BRANCH   2  24
HETATM   24  C   UNK N   1      30.637  16.866   3.952  0.00  0.00     0.272 C 
HETATM   25  O   UNK N   1      30.348  16.563   2.802  0.00  0.00    -0.264 OA
BRANCH  24  26
HETATM   26  O   UNK N   1      29.918  17.820   4.602  0.00  0.00    -0.321 OA
BRANCH  26  27
HETATM   27  C   UNK N   1      28.544  17.790   4.698  0.00  0.00     0.174 C 
HETATM   28  C   UNK N   1      28.110  16.665   5.618  0.00  0.00     0.034 C 
ENDBRANCH  26  27
ENDBRANCH  24  26
ENDBRANCH   2  24
TORSDOF 8
ENDMDL
