MODEL 1
REMARK VINA RESULT:      -5.3      0.000      0.000
REMARK  3 active torsions:
REMARK  status: ('A' for Active; 'I' for Inactive)
REMARK    1  A    between atoms: N_1  and  C_2 
REMARK    2  A    between atoms: C_2  and  C_3 
REMARK    3  A    between atoms: C_3  and  C_6 
ROOT
HETATM    1  C   UNK N   1      35.264  13.170  15.394  0.00  0.00     0.068 C 
ENDROOT
BRANCH   1   2
HETATM    2  C   UNK N   1      36.536  13.778  14.787  0.00  0.00     0.019 C 
HETATM    3  C   UNK N   1      36.226  14.404  13.440  0.00  0.00     0.037 C 
HETATM    4  C   UNK N   1      37.164  14.826  15.690  0.00  0.00     0.037 C 
BRANCH   2   5
HETATM    5  N   UNK N   1      37.498  12.711  14.591  0.00  0.00    -0.422 N 
HETATM    6  H   UNK N   1      38.381  12.740  14.081  0.00  0.00     0.150 HD
HETATM    7  H   UNK N   1      37.262  11.816  15.017  0.00  0.00     0.150 HD
ENDBRANCH   2   5
ENDBRANCH   1   2
BRANCH   1   8
HETATM    8  C   UNK N   1      35.373  12.674  16.811  0.00  0.00    -0.056 A 
HETATM    9  C   UNK N   1      35.663  11.328  17.065  0.00  0.00     0.007 A 
HETATM   10  C   UNK N   1      35.701  10.852  18.379  0.00  0.00     0.001 A 
HETATM   11  C   UNK N   1      35.439  11.719  19.442  0.00  0.00     0.000 A 
HETATM   12  C   UNK N   1      35.140  13.062  19.193  0.00  0.00     0.001 A 
HETATM   13  C   UNK N   1      35.100  13.539  17.876  0.00  0.00     0.007 A 
ENDBRANCH   1   8
TORSDOF 3
ENDMDL
MODEL 2
REMARK VINA RESULT:      -4.8      2.067      3.013
REMARK  3 active torsions:
REMARK  status: ('A' for Active; 'I' for Inactive)
REMARK    1  A    between atoms: N_1  and  C_2 
REMARK    2  A    between atoms: C_2  and  C_3 
REMARK    3  A    between atoms: C_3  and  C_6 
ROOT
HETATM    1  C   UNK N   1      36.066  11.531  14.877  0.00  0.00     0.068 C 
ENDROOT
BRANCH   1   2
HETATM    2  C   UNK N   1      34.891  11.157  13.963  0.00  0.00     0.019 C 
HETATM    3  C   UNK N   1      35.280  10.006  13.054  0.00  0.00     0.037 C 
HETATM    4  C   UNK N   1      33.647  10.775  14.745  0.00  0.00     0.037 C 
BRANCH   2   5
HETATM    5  N   UNK N   1      34.574  12.309  13.140  0.00  0.00    -0.422 N 
HETATM    6  H   UNK N   1      35.200  13.045  12.813  0.00  0.00     0.150 HD
HETATM    7  H   UNK N   1      33.601  12.394  12.850  0.00  0.00     0.150 HD
ENDBRANCH   2   5
ENDBRANCH   1   2
BRANCH   1   8
HETATM    8  C   UNK N   1      35.716  11.913  16.290  0.00  0.00    -0.056 A 
HETATM    9  C   UNK N   1      35.381  13.237  16.598  0.00  0.00     0.007 A 
HETATM   10  C   UNK N   1      35.118  13.607  17.920  0.00  0.00     0.001 A 
HETATM   11  C   UNK N   1      35.199  12.655  18.939  0.00  0.00     0.000 A 
HETATM   12  C   UNK N   1      35.542  11.334  18.638  0.00  0.00     0.001 A 
HETATM   13  C   UNK N   1      35.807  10.963  17.313  0.00  0.00     0.007 A 
ENDBRANCH   1   8
TORSDOF 3
ENDMDL
MODEL 3
REMARK VINA RESULT:      -4.7     23.134     26.089
REMARK  3 active torsions:
REMARK  status: ('A' for Active; 'I' for Inactive)
REMARK    1  A    between atoms: N_1  and  C_2 
REMARK    2  A    between atoms: C_2  and  C_3 
REMARK    3  A    between atoms: C_3  and  C_6 
ROOT
HETATM    1  C   UNK N   1      27.155  24.287  -3.304  0.00  0.00     0.068 C 
ENDROOT
BRANCH   1   2
HETATM    2  C   UNK N   1      28.612  24.048  -3.722  0.00  0.00     0.019 C 
HETATM    3  C   UNK N   1      29.336  23.240  -2.662  0.00  0.00     0.037 C 
HETATM    4  C   UNK N   1      28.721  23.330  -5.056  0.00  0.00     0.037 C 
BRANCH   2   5
HETATM    5  N   UNK N   1      29.264  25.338  -3.846  0.00  0.00    -0.422 N 
HETATM    6  H   UNK N   1      29.736  25.881  -3.123  0.00  0.00     0.150 HD
HETATM    7  H   UNK N   1      29.248  25.756  -4.775  0.00  0.00     0.150 HD
ENDBRANCH   2   5
ENDBRANCH   1   2
BRANCH   1   8
HETATM    8  C   UNK N   1      26.454  25.446  -3.960  0.00  0.00    -0.056 A 
HETATM    9  C   UNK N   1      26.355  26.675  -3.298  0.00  0.00     0.007 A 
HETATM   10  C   UNK N   1      25.650  27.733  -3.879  0.00  0.00     0.001 A 
HETATM   11  C   UNK N   1      25.032  27.560  -5.120  0.00  0.00     0.000 A 
HETATM   12  C   UNK N   1      25.120  26.332  -5.781  0.00  0.00     0.001 A 
HETATM   13  C   UNK N   1      25.826  25.271  -5.198  0.00  0.00     0.007 A 
ENDBRANCH   1   8
TORSDOF 3
ENDMDL
MODEL 4
REMARK VINA RESULT:      -4.4      1.576      2.616
REMARK  3 active torsions:
REMARK  status: ('A' for Active; 'I' for Inactive)
REMARK    1  A    between atoms: N_1  and  C_2 
REMARK    2  A    between atoms: C_2  and  C_3 
REMARK    3  A    between atoms: C_3  and  C_6 
ROOT
HETATM    1  C   UNK N   1      36.862  13.797  14.593  0.00  0.00     0.068 C 
ENDROOT
BRANCH   1   2
HETATM    2  C   UNK N   1      36.318  13.608  13.170  0.00  0.00     0.019 C 
HETATM    3  C   UNK N   1      37.212  12.664  12.388  0.00  0.00     0.037 C 
HETATM    4  C   UNK N   1      34.897  13.070  13.161  0.00  0.00     0.037 C 
BRANCH   2   5
HETATM    5  N   UNK N   1      36.319  14.899  12.510  0.00  0.00    -0.422 N 
HETATM    6  H   UNK N   1      35.562  15.579  12.446  0.00  0.00     0.150 HD
HETATM    7  H   UNK N   1      37.190  15.161  12.049  0.00  0.00     0.150 HD
ENDBRANCH   2   5
ENDBRANCH   1   2
BRANCH   1   8
HETATM    8  C   UNK N   1      36.321  12.866  15.644  0.00  0.00    -0.056 A 
HETATM    9  C   UNK N   1      35.540  13.367  16.693  0.00  0.00     0.007 A 
HETATM   10  C   UNK N   1      35.090  12.514  17.705  0.00  0.00     0.001 A 
HETATM   11  C   UNK N   1      35.428  11.159  17.675  0.00  0.00     0.000 A 
HETATM   12  C   UNK N   1      36.215  10.655  16.634  0.00  0.00     0.001 A 
HETATM   13  C   UNK N   1      36.667  11.511  15.621  0.00  0.00     0.007 A 
ENDBRANCH   1   8
TORSDOF 3
ENDMDL
MODEL 5
REMARK VINA RESULT:      -4.3     14.597     15.526
REMARK  3 active torsions:
REMARK  status: ('A' for Active; 'I' for Inactive)
REMARK    1  A    between atoms: N_1  and  C_2 
REMARK    2  A    between atoms: C_2  and  C_3 
REMARK    3  A    between atoms: C_3  and  C_6 
ROOT
HETATM    1  C   UNK N   1      21.695  12.784   8.171  0.00  0.00     0.068 C 
ENDROOT
BRANCH   1   2
HETATM    2  C   UNK N   1      21.401  14.247   7.812  0.00  0.00     0.019 C 
HETATM    3  C   UNK N   1      20.970  15.014   9.047  0.00  0.00     0.037 C 
HETATM    4  C   UNK N   1      22.599  14.942   7.187  0.00  0.00     0.037 C 
BRANCH   2   5
HETATM    5  N   UNK N   1      20.313  14.268   6.852  0.00  0.00    -0.422 N 
HETATM    6  H   UNK N   1      19.509  14.894   6.820  0.00  0.00     0.150 HD
HETATM    7  H   UNK N   1      20.358  13.565   6.115  0.00  0.00     0.150 HD
ENDBRANCH   2   5
ENDBRANCH   1   2
BRANCH   1   8
HETATM    8  C   UNK N   1      22.482  12.552   9.432  0.00  0.00    -0.056 A 
HETATM    9  C   UNK N   1      23.881  12.590   9.405  0.00  0.00     0.007 A 
HETATM   10  C   UNK N   1      24.615  12.312  10.562  0.00  0.00     0.001 A 
HETATM   11  C   UNK N   1      23.951  11.986  11.747  0.00  0.00     0.000 A 
HETATM   12  C   UNK N   1      22.554  11.937  11.777  0.00  0.00     0.001 A 
HETATM   13  C   UNK N   1      21.819  12.214  10.617  0.00  0.00     0.007 A 
ENDBRANCH   1   8
TORSDOF 3
ENDMDL
MODEL 6
REMARK VINA RESULT:      -4.3     11.717     13.894
REMARK  3 active torsions:
REMARK  status: ('A' for Active; 'I' for Inactive)
REMARK    1  A    between atoms: N_1  and  C_2 
REMARK    2  A    between atoms: C_2  and  C_3 
REMARK    3  A    between atoms: C_3  and  C_6 
ROOT
HETATM    1  C   UNK N   1      27.301  18.531   5.980  0.00  0.00     0.068 C 
ENDROOT
BRANCH   1   2
HETATM    2  C   UNK N   1      27.357  19.840   5.181  0.00  0.00     0.019 C 
HETATM    3  C   UNK N   1      26.062  20.043   4.416  0.00  0.00     0.037 C 
HETATM    4  C   UNK N   1      27.608  21.049   6.065  0.00  0.00     0.037 C 
BRANCH   2   5
HETATM    5  N   UNK N   1      28.446  19.741   4.227  0.00  0.00    -0.422 N 
HETATM    6  H   UNK N   1      28.437  19.961   3.231  0.00  0.00     0.150 HD
HETATM    7  H   UNK N   1      29.334  19.408   4.600  0.00  0.00     0.150 HD
ENDBRANCH   2   5
ENDBRANCH   1   2
BRANCH   1   8
HETATM    8  C   UNK N   1      28.402  18.315   6.983  0.00  0.00    -0.056 A 
HETATM    9  C   UNK N   1      29.555  17.609   6.621  0.00  0.00     0.007 A 
HETATM   10  C   UNK N   1      30.550  17.351   7.569  0.00  0.00     0.001 A 
HETATM   11  C   UNK N   1      30.390  17.793   8.884  0.00  0.00     0.000 A 
HETATM   12  C   UNK N   1      29.236  18.491   9.253  0.00  0.00     0.001 A 
HETATM   13  C   UNK N   1      28.238  18.747   8.304  0.00  0.00     0.007 A 
ENDBRANCH   1   8
TORSDOF 3
ENDMDL
MODEL 7
REMARK VINA RESULT:      -4.3     10.373     11.381
REMARK  3 active torsions:
REMARK  status: ('A' for Active; 'I' for Inactive)
REMARK    1  A    between atoms: N_1  and  C_2 
REMARK    2  A    between atoms: C_2  and  C_3 
REMARK    3  A    between atoms: C_3  and  C_6 
ROOT
HETATM    1  C   UNK N   1      32.421  16.311   7.602  0.00  0.00     0.068 C 
ENDROOT
BRANCH   1   2
HETATM    2  C   UNK N   1      33.664  17.007   7.033  0.00  0.00     0.019 C 
HETATM    3  C   UNK N   1      33.394  17.489   5.620  0.00  0.00     0.037 C 
HETATM    4  C   UNK N   1      34.112  18.182   7.884  0.00  0.00     0.037 C 
BRANCH   2   5
HETATM    5  N   UNK N   1      34.745  16.038   6.991  0.00  0.00    -0.422 N 
HETATM    6  H   UNK N   1      35.177  15.539   7.768  0.00  0.00     0.150 HD
HETATM    7  H   UNK N   1      35.120  15.831   6.066  0.00  0.00     0.150 HD
ENDBRANCH   2   5
ENDBRANCH   1   2
BRANCH   1   8
HETATM    8  C   UNK N   1      31.183  17.157   7.729  0.00  0.00    -0.056 A 
HETATM    9  C   UNK N   1      30.993  17.962   8.859  0.00  0.00     0.007 A 
HETATM   10  C   UNK N   1      29.815  18.699   9.009  0.00  0.00     0.001 A 
HETATM   11  C   UNK N   1      28.819  18.626   8.033  0.00  0.00     0.000 A 
HETATM   12  C   UNK N   1      28.999  17.817   6.906  0.00  0.00     0.001 A 
HETATM   13  C   UNK N   1      30.179  17.076   6.758  0.00  0.00     0.007 A 
ENDBRANCH   1   8
TORSDOF 3
ENDMDL
MODEL 8
REMARK VINA RESULT:      -4.2     15.199     16.577
REMARK  3 active torsions:
REMARK  status: ('A' for Active; 'I' for Inactive)
REMARK    1  A    between atoms: N_1  and  C_2 
REMARK    2  A    between atoms: C_2  and  C_3 
REMARK    3  A    between atoms: C_3  and  C_6 
ROOT
HETATM    1  C   UNK N   1      21.385  12.732  10.332  0.00  0.00     0.068 C 
ENDROOT
BRANCH   1   2
HETATM    2  C   UNK N   1      22.831  12.264  10.548  0.00  0.00     0.019 C 
HETATM    3  C   UNK N   1      23.061  11.932  12.010  0.00  0.00     0.037 C 
HETATM    4  C   UNK N   1      23.180  11.053   9.701  0.00  0.00     0.037 C 
BRANCH   2   5
HETATM    5  N   UNK N   1      23.718  13.351  10.176  0.00  0.00    -0.422 N 
HETATM    6  H   UNK N   1      23.498  14.342  10.078  0.00  0.00     0.150 HD
HETATM    7  H   UNK N   1      24.685  13.089   9.987  0.00  0.00     0.150 HD
ENDBRANCH   2   5
ENDBRANCH   1   2
BRANCH   1   8
HETATM    8  C   UNK N   1      21.141  13.614   9.137  0.00  0.00    -0.056 A 
HETATM    9  C   UNK N   1      20.830  14.967   9.314  0.00  0.00     0.007 A 
HETATM   10  C   UNK N   1      20.540  15.773   8.209  0.00  0.00     0.001 A 
HETATM   11  C   UNK N   1      20.551  15.224   6.924  0.00  0.00     0.000 A 
HETATM   12  C   UNK N   1      20.852  13.871   6.743  0.00  0.00     0.001 A 
HETATM   13  C   UNK N   1      21.141  13.063   7.851  0.00  0.00     0.007 A 
ENDBRANCH   1   8
TORSDOF 3
ENDMDL
MODEL 9
REMARK VINA RESULT:      -4.2     25.872     27.172
REMARK  3 active torsions:
REMARK  status: ('A' for Active; 'I' for Inactive)
REMARK    1  A    between atoms: N_1  and  C_2 
REMARK    2  A    between atoms: C_2  and  C_3 
REMARK    3  A    between atoms: C_3  and  C_6 
ROOT
HETATM    1  C   UNK N   1      27.826  27.973  -4.239  0.00  0.00     0.068 C 
ENDROOT
BRANCH   1   2
HETATM    2  C   UNK N   1      27.083  29.124  -3.546  0.00  0.00     0.019 C 
HETATM    3  C   UNK N   1      27.768  29.479  -2.240  0.00  0.00     0.037 C 
HETATM    4  C   UNK N   1      26.997  30.365  -4.417  0.00  0.00     0.037 C 
BRANCH   2   5
HETATM    5  N   UNK N   1      25.733  28.679  -3.254  0.00  0.00    -0.422 N 
HETATM    6  H   UNK N   1      24.989  28.439  -3.909  0.00  0.00     0.150 HD
HETATM    7  H   UNK N   1      25.497  28.596  -2.266  0.00  0.00     0.150 HD
ENDBRANCH   2   5
ENDBRANCH   1   2
BRANCH   1   8
HETATM    8  C   UNK N   1      27.003  26.763  -4.590  0.00  0.00    -0.056 A 
HETATM    9  C   UNK N   1      27.019  25.636  -3.761  0.00  0.00     0.007 A 
HETATM   10  C   UNK N   1      26.306  24.488  -4.118  0.00  0.00     0.001 A 
HETATM   11  C   UNK N   1      25.581  24.462  -5.312  0.00  0.00     0.000 A 
HETATM   12  C   UNK N   1      25.568  25.582  -6.148  0.00  0.00     0.001 A 
HETATM   13  C   UNK N   1      26.285  26.732  -5.791  0.00  0.00     0.007 A 
ENDBRANCH   1   8
TORSDOF 3
ENDMDL
