MODEL 1
REMARK VINA RESULT:      -5.7      0.000      0.000
REMARK  1 active torsions:
REMARK  status: ('A' for Active; 'I' for Inactive)
REMARK    1  A    between atoms: C_4  and  C_7 
ROOT
HETATM    1  O   UNK N   1      36.554  13.692  15.183  0.00  0.00    -0.378 OA
HETATM    2  N   UNK N   1      35.106  12.454  13.088  0.00  0.00    -0.413 N 
HETATM    3  C   UNK N   1      35.109  11.900  14.446  0.00  0.00     0.106 C 
HETATM    4  C   UNK N   1      35.342  13.032  15.485  0.00  0.00     0.176 C 
HETATM    5  C   UNK N   1      36.301  13.263  12.862  0.00  0.00     0.140 C 
HETATM    6  C   UNK N   1      36.386  14.330  13.946  0.00  0.00     0.188 C 
HETATM    7  C   UNK N   1      33.776  11.200  14.655  0.00  0.00     0.035 C 
HETATM    8  H   UNK N   1      34.373  12.296  12.398  0.00  0.00     0.153 HD
ENDROOT
BRANCH   4   9
HETATM    9  C   UNK N   1      35.381  12.542  16.921  0.00  0.00    -0.028 A 
HETATM   10  C   UNK N   1      35.082  13.414  17.980  0.00  0.00     0.010 A 
HETATM   11  C   UNK N   1      35.133  12.967  19.304  0.00  0.00     0.001 A 
HETATM   12  C   UNK N   1      35.498  11.650  19.584  0.00  0.00     0.000 A 
HETATM   13  C   UNK N   1      35.811  10.776  18.541  0.00  0.00     0.001 A 
HETATM   14  C   UNK N   1      35.753  11.219  17.217  0.00  0.00     0.010 A 
ENDBRANCH   4   9
TORSDOF 1
ENDMDL
MODEL 2
REMARK VINA RESULT:      -5.6      1.437      2.229
REMARK  1 active torsions:
REMARK  status: ('A' for Active; 'I' for Inactive)
REMARK    1  A    between atoms: C_4  and  C_7 
ROOT
HETATM    1  O   UNK N   1      35.006  13.454  14.089  0.00  0.00    -0.378 OA
HETATM    2  N   UNK N   1      37.297  12.510  12.718  0.00  0.00    -0.413 N 
HETATM    3  C   UNK N   1      37.212  12.471  14.181  0.00  0.00     0.106 C 
HETATM    4  C   UNK N   1      35.728  12.367  14.630  0.00  0.00     0.176 C 
HETATM    5  C   UNK N   1      36.415  13.544  12.181  0.00  0.00     0.140 C 
HETATM    6  C   UNK N   1      35.002  13.302  12.695  0.00  0.00     0.188 C 
HETATM    7  C   UNK N   1      38.035  11.285  14.654  0.00  0.00     0.035 C 
HETATM    8  H   UNK N   1      37.889  11.901  12.153  0.00  0.00     0.153 HD
ENDROOT
BRANCH   4   9
HETATM    9  C   UNK N   1      35.547  12.342  16.137  0.00  0.00    -0.028 A 
HETATM   10  C   UNK N   1      35.452  11.121  16.823  0.00  0.00     0.010 A 
HETATM   11  C   UNK N   1      35.269  11.098  18.209  0.00  0.00     0.001 A 
HETATM   12  C   UNK N   1      35.163  12.295  18.920  0.00  0.00     0.000 A 
HETATM   13  C   UNK N   1      35.242  13.515  18.248  0.00  0.00     0.001 A 
HETATM   14  C   UNK N   1      35.434  13.539  16.864  0.00  0.00     0.010 A 
ENDBRANCH   4   9
TORSDOF 1
ENDMDL
MODEL 3
REMARK VINA RESULT:      -5.3     14.441     16.090
REMARK  1 active torsions:
REMARK  status: ('A' for Active; 'I' for Inactive)
REMARK    1  A    between atoms: C_4  and  C_7 
ROOT
HETATM    1  O   UNK N   1      20.711  15.698   9.065  0.00  0.00    -0.378 OA
HETATM    2  N   UNK N   1      20.139  15.022   6.375  0.00  0.00    -0.413 N 
HETATM    3  C   UNK N   1      20.992  14.172   7.212  0.00  0.00     0.106 C 
HETATM    4  C   UNK N   1      20.608  14.334   8.709  0.00  0.00     0.176 C 
HETATM    5  C   UNK N   1      20.145  16.397   6.869  0.00  0.00     0.140 C 
HETATM    6  C   UNK N   1      19.738  16.396   8.337  0.00  0.00     0.188 C 
HETATM    7  C   UNK N   1      20.820  12.740   6.732  0.00  0.00     0.035 C 
HETATM    8  H   UNK N   1      19.615  14.699   5.563  0.00  0.00     0.153 HD
ENDROOT
BRANCH   4   9
HETATM    9  C   UNK N   1      21.459  13.502   9.651  0.00  0.00    -0.028 A 
HETATM   10  C   UNK N   1      22.850  13.428   9.477  0.00  0.00     0.010 A 
HETATM   11  C   UNK N   1      23.632  12.649  10.334  0.00  0.00     0.001 A 
HETATM   12  C   UNK N   1      23.031  11.924  11.365  0.00  0.00     0.000 A 
HETATM   13  C   UNK N   1      21.647  11.978  11.540  0.00  0.00     0.001 A 
HETATM   14  C   UNK N   1      20.865  12.763  10.688  0.00  0.00     0.010 A 
ENDBRANCH   4   9
TORSDOF 1
ENDMDL
MODEL 4
REMARK VINA RESULT:      -5.2      2.601      4.050
REMARK  1 active torsions:
REMARK  status: ('A' for Active; 'I' for Inactive)
REMARK    1  A    between atoms: C_4  and  C_7 
ROOT
HETATM    1  O   UNK N   1      34.599  14.508  12.191  0.00  0.00    -0.378 OA
HETATM    2  N   UNK N   1      37.075  14.456  10.818  0.00  0.00    -0.413 N 
HETATM    3  C   UNK N   1      36.823  13.587  11.972  0.00  0.00     0.106 C 
HETATM    4  C   UNK N   1      35.303  13.287  12.095  0.00  0.00     0.176 C 
HETATM    5  C   UNK N   1      36.213  15.635  10.867  0.00  0.00     0.140 C 
HETATM    6  C   UNK N   1      34.763  15.183  10.974  0.00  0.00     0.188 C 
HETATM    7  C   UNK N   1      37.640  12.321  11.775  0.00  0.00     0.035 C 
HETATM    8  H   UNK N   1      37.755  14.264  10.084  0.00  0.00     0.153 HD
ENDROOT
BRANCH   4   9
HETATM    9  C   UNK N   1      34.950  12.407  13.281  0.00  0.00    -0.028 A 
HETATM   10  C   UNK N   1      34.326  11.164  13.085  0.00  0.00     0.010 A 
HETATM   11  C   UNK N   1      33.986  10.361  14.178  0.00  0.00     0.001 A 
HETATM   12  C   UNK N   1      34.251  10.798  15.477  0.00  0.00     0.000 A 
HETATM   13  C   UNK N   1      34.858  12.038  15.685  0.00  0.00     0.001 A 
HETATM   14  C   UNK N   1      35.206  12.838  14.593  0.00  0.00     0.010 A 
ENDBRANCH   4   9
TORSDOF 1
ENDMDL
MODEL 5
REMARK VINA RESULT:      -5.1      8.891     10.743
REMARK  1 active torsions:
REMARK  status: ('A' for Active; 'I' for Inactive)
REMARK    1  A    between atoms: C_4  and  C_7 
ROOT
HETATM    1  O   UNK N   1      30.080  16.530   6.718  0.00  0.00    -0.378 OA
HETATM    2  N   UNK N   1      28.054  17.804   8.232  0.00  0.00    -0.413 N 
HETATM    3  C   UNK N   1      29.375  17.527   8.804  0.00  0.00     0.106 C 
HETATM    4  C   UNK N   1      30.450  17.495   7.682  0.00  0.00     0.176 C 
HETATM    5  C   UNK N   1      27.771  16.887   7.130  0.00  0.00     0.140 C 
HETATM    6  C   UNK N   1      28.898  16.977   6.110  0.00  0.00     0.188 C 
HETATM    7  C   UNK N   1      29.660  18.606   9.836  0.00  0.00     0.035 C 
HETATM    8  H   UNK N   1      27.422  18.535   8.556  0.00  0.00     0.153 HD
ENDROOT
BRANCH   4   9
HETATM    9  C   UNK N   1      31.849  17.192   8.187  0.00  0.00    -0.028 A 
HETATM   10  C   UNK N   1      32.885  18.125   8.020  0.00  0.00     0.010 A 
HETATM   11  C   UNK N   1      34.177  17.840   8.470  0.00  0.00     0.001 A 
HETATM   12  C   UNK N   1      34.451  16.613   9.077  0.00  0.00     0.000 A 
HETATM   13  C   UNK N   1      33.434  15.671   9.236  0.00  0.00     0.001 A 
HETATM   14  C   UNK N   1      32.140  15.959   8.794  0.00  0.00     0.010 A 
ENDBRANCH   4   9
TORSDOF 1
ENDMDL
MODEL 6
REMARK VINA RESULT:      -5.0     10.356     12.397
REMARK  1 active torsions:
REMARK  status: ('A' for Active; 'I' for Inactive)
REMARK    1  A    between atoms: C_4  and  C_7 
ROOT
HETATM    1  O   UNK N   1      30.003  16.657   6.843  0.00  0.00    -0.378 OA
HETATM    2  N   UNK N   1      31.316  17.858   9.046  0.00  0.00    -0.413 N 
HETATM    3  C   UNK N   1      32.070  17.295   7.921  0.00  0.00     0.106 C 
HETATM    4  C   UNK N   1      31.216  17.347   6.624  0.00  0.00     0.176 C 
HETATM    5  C   UNK N   1      30.000  17.230   9.146  0.00  0.00     0.140 C 
HETATM    6  C   UNK N   1      29.283  17.372   7.810  0.00  0.00     0.188 C 
HETATM    7  C   UNK N   1      33.355  18.095   7.789  0.00  0.00     0.035 C 
HETATM    8  H   UNK N   1      31.660  18.586   9.671  0.00  0.00     0.153 HD
ENDROOT
BRANCH   4   9
HETATM    9  C   UNK N   1      31.915  16.763   5.410  0.00  0.00    -0.028 A 
HETATM   10  C   UNK N   1      32.389  15.442   5.427  0.00  0.00     0.010 A 
HETATM   11  C   UNK N   1      33.048  14.909   4.315  0.00  0.00     0.001 A 
HETATM   12  C   UNK N   1      33.253  15.696   3.180  0.00  0.00     0.000 A 
HETATM   13  C   UNK N   1      32.799  17.015   3.155  0.00  0.00     0.001 A 
HETATM   14  C   UNK N   1      32.133  17.546   4.263  0.00  0.00     0.010 A 
ENDBRANCH   4   9
TORSDOF 1
ENDMDL
MODEL 7
REMARK VINA RESULT:      -4.9      8.082     11.503
REMARK  1 active torsions:
REMARK  status: ('A' for Active; 'I' for Inactive)
REMARK    1  A    between atoms: C_4  and  C_7 
ROOT
HETATM    1  O   UNK N   1      32.570  14.911   7.862  0.00  0.00    -0.378 OA
HETATM    2  N   UNK N   1      34.021  16.553   9.657  0.00  0.00    -0.413 N 
HETATM    3  C   UNK N   1      34.109  16.744   8.206  0.00  0.00     0.106 C 
HETATM    4  C   UNK N   1      32.800  16.263   7.522  0.00  0.00     0.176 C 
HETATM    5  C   UNK N   1      33.627  15.182   9.971  0.00  0.00     0.140 C 
HETATM    6  C   UNK N   1      32.327  14.863   9.242  0.00  0.00     0.188 C 
HETATM    7  C   UNK N   1      34.376  18.218   7.956  0.00  0.00     0.035 C 
HETATM    8  H   UNK N   1      34.209  17.276  10.351  0.00  0.00     0.153 HD
ENDROOT
BRANCH   4   9
HETATM    9  C   UNK N   1      32.814  16.406   6.010  0.00  0.00    -0.028 A 
HETATM   10  C   UNK N   1      33.626  15.574   5.223  0.00  0.00     0.010 A 
HETATM   11  C   UNK N   1      33.651  15.716   3.833  0.00  0.00     0.001 A 
HETATM   12  C   UNK N   1      32.877  16.700   3.216  0.00  0.00     0.000 A 
HETATM   13  C   UNK N   1      32.075  17.542   3.988  0.00  0.00     0.001 A 
HETATM   14  C   UNK N   1      32.043  17.396   5.377  0.00  0.00     0.010 A 
ENDBRANCH   4   9
TORSDOF 1
ENDMDL
MODEL 8
REMARK VINA RESULT:      -4.9     25.818     27.492
REMARK  1 active torsions:
REMARK  status: ('A' for Active; 'I' for Inactive)
REMARK    1  A    between atoms: C_4  and  C_7 
ROOT
HETATM    1  O   UNK N   1      27.813  26.091  -4.548  0.00  0.00    -0.378 OA
HETATM    2  N   UNK N   1      25.369  24.968  -5.435  0.00  0.00    -0.413 N 
HETATM    3  C   UNK N   1      25.465  26.379  -5.046  0.00  0.00     0.106 C 
HETATM    4  C   UNK N   1      26.911  26.901  -5.274  0.00  0.00     0.176 C 
HETATM    5  C   UNK N   1      26.418  24.186  -4.787  0.00  0.00     0.140 C 
HETATM    6  C   UNK N   1      27.770  24.808  -5.111  0.00  0.00     0.188 C 
HETATM    7  C   UNK N   1      24.445  27.149  -5.868  0.00  0.00     0.035 C 
HETATM    8  H   UNK N   1      24.668  24.587  -6.070  0.00  0.00     0.153 HD
ENDROOT
BRANCH   4   9
HETATM    9  C   UNK N   1      27.105  28.353  -4.876  0.00  0.00    -0.028 A 
HETATM   10  C   UNK N   1      26.664  28.814  -3.625  0.00  0.00     0.010 A 
HETATM   11  C   UNK N   1      26.828  30.154  -3.265  0.00  0.00     0.001 A 
HETATM   12  C   UNK N   1      27.421  31.051  -4.156  0.00  0.00     0.000 A 
HETATM   13  C   UNK N   1      27.851  30.608  -5.407  0.00  0.00     0.001 A 
HETATM   14  C   UNK N   1      27.695  29.266  -5.766  0.00  0.00     0.010 A 
ENDBRANCH   4   9
TORSDOF 1
ENDMDL
MODEL 9
REMARK VINA RESULT:      -4.9      3.083      6.521
REMARK  1 active torsions:
REMARK  status: ('A' for Active; 'I' for Inactive)
REMARK    1  A    between atoms: C_4  and  C_7 
ROOT
HETATM    1  O   UNK N   1      35.335  13.952  13.652  0.00  0.00    -0.378 OA
HETATM    2  N   UNK N   1      37.585  12.282  13.242  0.00  0.00    -0.413 N 
HETATM    3  C   UNK N   1      36.870  12.891  12.116  0.00  0.00     0.106 C 
HETATM    4  C   UNK N   1      36.195  14.217  12.563  0.00  0.00     0.176 C 
HETATM    5  C   UNK N   1      36.707  12.168  14.404  0.00  0.00     0.140 C 
HETATM    6  C   UNK N   1      36.135  13.542  14.728  0.00  0.00     0.188 C 
HETATM    7  C   UNK N   1      37.879  13.112  11.001  0.00  0.00     0.035 C 
HETATM    8  H   UNK N   1      38.558  11.980  13.217  0.00  0.00     0.153 HD
ENDROOT
BRANCH   4   9
HETATM    9  C   UNK N   1      35.413  14.906  11.460  0.00  0.00    -0.028 A 
HETATM   10  C   UNK N   1      34.328  14.260  10.845  0.00  0.00     0.010 A 
HETATM   11  C   UNK N   1      33.618  14.888   9.818  0.00  0.00     0.001 A 
HETATM   12  C   UNK N   1      33.993  16.161   9.384  0.00  0.00     0.000 A 
HETATM   13  C   UNK N   1      35.077  16.808   9.978  0.00  0.00     0.001 A 
HETATM   14  C   UNK N   1      35.784  16.185  11.010  0.00  0.00     0.010 A 
ENDBRANCH   4   9
TORSDOF 1
ENDMDL
