MODEL 1
REMARK VINA RESULT:      -5.3      0.000      0.000
REMARK  3 active torsions:
REMARK  status: ('A' for Active; 'I' for Inactive)
REMARK    1  A    between atoms: C_6  and  C_7 
REMARK    2  A    between atoms: C_6  and  C_8 
REMARK    3  A    between atoms: C_7  and  C_9 
ROOT
HETATM    1  O   UNK N   1      34.207  18.006   6.341  0.00  0.00    -0.272 OA
HETATM    2  O   UNK N   1      31.923  15.163   9.327  0.00  0.00    -0.272 OA
HETATM    3  O   UNK N   1      35.664  17.264  10.475  0.00  0.00    -0.247 OA
HETATM    4  N   UNK N   1      34.930  17.642   8.410  0.00  0.00    -0.278 N 
HETATM    5  N   UNK N   1      33.789  16.217   9.901  0.00  0.00    -0.278 N 
HETATM    6  C   UNK N   1      32.845  16.504   7.589  0.00  0.00     0.125 A 
HETATM    7  C   UNK N   1      34.038  17.438   7.409  0.00  0.00     0.244 A 
HETATM    8  C   UNK N   1      32.826  15.918   8.998  0.00  0.00     0.244 A 
HETATM    9  C   UNK N   1      34.821  17.048   9.623  0.00  0.00     0.329 A 
HETATM   10  H   UNK N   1      35.689  18.248   8.247  0.00  0.00     0.173 HD
HETATM   11  H   UNK N   1      33.738  15.814  10.797  0.00  0.00     0.173 HD
ENDROOT
BRANCH   6  12
HETATM   12  C   UNK N   1      31.507  17.268   7.356  0.00  0.00     0.008 C 
HETATM   13  C   UNK N   1      30.412  16.385   6.771  0.00  0.00     0.011 C 
BRANCH  12  14
HETATM   14  C   UNK N   1      30.966  18.001   8.578  0.00  0.00     0.001 C 
HETATM   15  C   UNK N   1      29.452  17.904   8.589  0.00  0.00     0.005 C 
ENDBRANCH  12  14
ENDBRANCH   6  12
BRANCH   6  16
HETATM   16  C   UNK N   1      33.022  15.359   6.569  0.00  0.00     0.025 C 
HETATM   17  C   UNK N   1      34.254  14.492   6.789  0.00  0.00     0.007 C 
ENDBRANCH   6  16
TORSDOF 3
ENDMDL
MODEL 2
REMARK VINA RESULT:      -5.2      1.570      3.495
REMARK  3 active torsions:
REMARK  status: ('A' for Active; 'I' for Inactive)
REMARK    1  A    between atoms: C_6  and  C_7 
REMARK    2  A    between atoms: C_6  and  C_8 
REMARK    3  A    between atoms: C_7  and  C_9 
ROOT
HETATM    1  O   UNK N   1      32.447  14.970   7.539  0.00  0.00    -0.272 OA
HETATM    2  O   UNK N   1      34.803  18.998   8.202  0.00  0.00    -0.272 OA
HETATM    3  O   UNK N   1      34.940  15.681  11.151  0.00  0.00    -0.247 OA
HETATM    4  N   UNK N   1      33.700  15.322   9.340  0.00  0.00    -0.278 N 
HETATM    5  N   UNK N   1      34.875  17.338   9.672  0.00  0.00    -0.278 N 
HETATM    6  C   UNK N   1      33.488  17.111   7.588  0.00  0.00     0.125 A 
HETATM    7  C   UNK N   1      33.182  15.728   8.154  0.00  0.00     0.244 A 
HETATM    8  C   UNK N   1      34.432  17.876   8.511  0.00  0.00     0.244 A 
HETATM    9  C   UNK N   1      34.519  16.101  10.088  0.00  0.00     0.329 A 
HETATM   10  H   UNK N   1      33.470  14.424   9.670  0.00  0.00     0.173 HD
HETATM   11  H   UNK N   1      35.481  17.869  10.237  0.00  0.00     0.173 HD
ENDROOT
BRANCH   6  12
HETATM   12  C   UNK N   1      34.156  16.997   6.185  0.00  0.00     0.008 C 
HETATM   13  C   UNK N   1      34.863  15.664   5.970  0.00  0.00     0.011 C 
BRANCH  12  14
HETATM   14  C   UNK N   1      33.228  17.273   5.008  0.00  0.00     0.001 C 
HETATM   15  C   UNK N   1      33.293  16.109   4.036  0.00  0.00     0.005 C 
ENDBRANCH  12  14
ENDBRANCH   6  12
BRANCH   6  16
HETATM   16  C   UNK N   1      32.142  17.864   7.508  0.00  0.00     0.025 C 
HETATM   17  C   UNK N   1      31.352  17.900   8.810  0.00  0.00     0.007 C 
ENDBRANCH   6  16
TORSDOF 3
ENDMDL
MODEL 3
REMARK VINA RESULT:      -5.1      7.208      8.829
REMARK  3 active torsions:
REMARK  status: ('A' for Active; 'I' for Inactive)
REMARK    1  A    between atoms: C_6  and  C_7 
REMARK    2  A    between atoms: C_6  and  C_8 
REMARK    3  A    between atoms: C_7  and  C_9 
ROOT
HETATM    1  O   UNK N   1      34.841  13.795  13.274  0.00  0.00    -0.272 OA
HETATM    2  O   UNK N   1      36.861  10.082  15.361  0.00  0.00    -0.272 OA
HETATM    3  O   UNK N   1      37.989  11.381  11.266  0.00  0.00    -0.247 OA
HETATM    4  N   UNK N   1      36.420  12.594  12.275  0.00  0.00    -0.278 N 
HETATM    5  N   UNK N   1      37.427  10.735  13.317  0.00  0.00    -0.278 N 
HETATM    6  C   UNK N   1      35.642  11.973  14.582  0.00  0.00     0.125 A 
HETATM    7  C   UNK N   1      35.613  12.849  13.334  0.00  0.00     0.244 A 
HETATM    8  C   UNK N   1      36.685  10.868  14.441  0.00  0.00     0.244 A 
HETATM    9  C   UNK N   1      37.301  11.564  12.255  0.00  0.00     0.329 A 
HETATM   10  H   UNK N   1      36.363  13.182  11.487  0.00  0.00     0.173 HD
HETATM   11  H   UNK N   1      38.086  10.006  13.270  0.00  0.00     0.173 HD
ENDROOT
BRANCH   6  12
HETATM   12  C   UNK N   1      35.990  12.821  15.842  0.00  0.00     0.008 C 
HETATM   13  C   UNK N   1      36.868  14.026  15.525  0.00  0.00     0.011 C 
BRANCH  12  14
HETATM   14  C   UNK N   1      34.788  13.273  16.662  0.00  0.00     0.001 C 
HETATM   15  C   UNK N   1      35.159  13.275  18.134  0.00  0.00     0.005 C 
ENDBRANCH  12  14
ENDBRANCH   6  12
BRANCH   6  16
HETATM   16  C   UNK N   1      34.242  11.334  14.706  0.00  0.00     0.025 C 
HETATM   17  C   UNK N   1      33.841  10.443  13.537  0.00  0.00     0.007 C 
ENDBRANCH   6  16
TORSDOF 3
ENDMDL
MODEL 4
REMARK VINA RESULT:      -5.0      2.366      3.368
REMARK  3 active torsions:
REMARK  status: ('A' for Active; 'I' for Inactive)
REMARK    1  A    between atoms: C_6  and  C_7 
REMARK    2  A    between atoms: C_6  and  C_8 
REMARK    3  A    between atoms: C_7  and  C_9 
ROOT
HETATM    1  O   UNK N   1      34.720  18.333   7.385  0.00  0.00    -0.272 OA
HETATM    2  O   UNK N   1      31.508  15.078   6.243  0.00  0.00    -0.272 OA
HETATM    3  O   UNK N   1      30.632  18.336   9.132  0.00  0.00    -0.247 OA
HETATM    4  N   UNK N   1      32.674  18.339   8.251  0.00  0.00    -0.278 N 
HETATM    5  N   UNK N   1      31.069  16.709   7.682  0.00  0.00    -0.278 N 
HETATM    6  C   UNK N   1      33.344  16.545   6.624  0.00  0.00     0.125 A 
HETATM    7  C   UNK N   1      33.621  17.802   7.443  0.00  0.00     0.244 A 
HETATM    8  C   UNK N   1      31.912  16.065   6.841  0.00  0.00     0.244 A 
HETATM    9  C   UNK N   1      31.433  17.811   8.378  0.00  0.00     0.329 A 
HETATM   10  H   UNK N   1      32.899  19.148   8.766  0.00  0.00     0.173 HD
HETATM   11  H   UNK N   1      30.156  16.362   7.792  0.00  0.00     0.173 HD
ENDROOT
BRANCH   6  12
HETATM   12  C   UNK N   1      33.546  16.822   5.104  0.00  0.00     0.008 C 
HETATM   13  C   UNK N   1      33.841  15.559   4.303  0.00  0.00     0.011 C 
BRANCH  12  14
HETATM   14  C   UNK N   1      32.412  17.590   4.436  0.00  0.00     0.001 C 
HETATM   15  C   UNK N   1      32.185  17.035   3.042  0.00  0.00     0.005 C 
ENDBRANCH  12  14
ENDBRANCH   6  12
BRANCH   6  16
HETATM   16  C   UNK N   1      34.321  15.463   7.132  0.00  0.00     0.025 C 
HETATM   17  C   UNK N   1      34.128  15.059   8.587  0.00  0.00     0.007 C 
ENDBRANCH   6  16
TORSDOF 3
ENDMDL
MODEL 5
REMARK VINA RESULT:      -4.9      1.881      2.576
REMARK  3 active torsions:
REMARK  status: ('A' for Active; 'I' for Inactive)
REMARK    1  A    between atoms: C_6  and  C_7 
REMARK    2  A    between atoms: C_6  and  C_8 
REMARK    3  A    between atoms: C_7  and  C_9 
ROOT
HETATM    1  O   UNK N   1      34.138  15.312   6.240  0.00  0.00    -0.272 OA
HETATM    2  O   UNK N   1      30.983  17.682   8.818  0.00  0.00    -0.272 OA
HETATM    3  O   UNK N   1      35.171  19.086   8.351  0.00  0.00    -0.247 OA
HETATM    4  N   UNK N   1      34.651  17.202   7.288  0.00  0.00    -0.278 N 
HETATM    5  N   UNK N   1      33.074  18.385   8.579  0.00  0.00    -0.278 N 
HETATM    6  C   UNK N   1      32.333  16.252   7.476  0.00  0.00     0.125 A 
HETATM    7  C   UNK N   1      33.767  16.229   6.958  0.00  0.00     0.244 A 
HETATM    8  C   UNK N   1      32.090  17.489   8.336  0.00  0.00     0.244 A 
HETATM    9  C   UNK N   1      34.325  18.251   8.081  0.00  0.00     0.329 A 
HETATM   10  H   UNK N   1      35.569  17.144   6.936  0.00  0.00     0.173 HD
HETATM   11  H   UNK N   1      32.872  19.167   9.142  0.00  0.00     0.173 HD
ENDROOT
BRANCH   6  12
HETATM   12  C   UNK N   1      31.320  16.269   6.292  0.00  0.00     0.008 C 
HETATM   13  C   UNK N   1      31.718  17.234   5.182  0.00  0.00     0.011 C 
BRANCH  12  14
HETATM   14  C   UNK N   1      31.015  14.903   5.689  0.00  0.00     0.001 C 
HETATM   15  C   UNK N   1      29.546  14.838   5.313  0.00  0.00     0.005 C 
ENDBRANCH  12  14
ENDBRANCH   6  12
BRANCH   6  16
HETATM   16  C   UNK N   1      32.157  14.989   8.346  0.00  0.00     0.025 C 
HETATM   17  C   UNK N   1      33.058  14.928   9.573  0.00  0.00     0.007 C 
ENDBRANCH   6  16
TORSDOF 3
ENDMDL
MODEL 6
REMARK VINA RESULT:      -4.7      1.991      4.215
REMARK  3 active torsions:
REMARK  status: ('A' for Active; 'I' for Inactive)
REMARK    1  A    between atoms: C_6  and  C_7 
REMARK    2  A    between atoms: C_6  and  C_8 
REMARK    3  A    between atoms: C_7  and  C_9 
ROOT
HETATM    1  O   UNK N   1      32.074  14.694   6.785  0.00  0.00    -0.272 OA
HETATM    2  O   UNK N   1      34.772  18.504   7.433  0.00  0.00    -0.272 OA
HETATM    3  O   UNK N   1      30.643  18.244   9.048  0.00  0.00    -0.247 OA
HETATM    4  N   UNK N   1      31.363  16.464   7.923  0.00  0.00    -0.278 N 
HETATM    5  N   UNK N   1      32.711  18.370   8.244  0.00  0.00    -0.278 N 
HETATM    6  C   UNK N   1      33.664  16.461   6.915  0.00  0.00     0.125 A 
HETATM    7  C   UNK N   1      32.315  15.814   7.209  0.00  0.00     0.244 A 
HETATM    8  C   UNK N   1      33.748  17.847   7.549  0.00  0.00     0.244 A 
HETATM    9  C   UNK N   1      31.544  17.710   8.425  0.00  0.00     0.329 A 
HETATM   10  H   UNK N   1      30.503  16.011   8.083  0.00  0.00     0.173 HD
HETATM   11  H   UNK N   1      32.810  19.269   8.633  0.00  0.00     0.173 HD
ENDROOT
BRANCH   6  12
HETATM   12  C   UNK N   1      34.827  15.591   7.478  0.00  0.00     0.008 C 
HETATM   13  C   UNK N   1      34.526  15.015   8.856  0.00  0.00     0.011 C 
BRANCH  12  14
HETATM   14  C   UNK N   1      35.296  14.473   6.555  0.00  0.00     0.001 C 
HETATM   15  C   UNK N   1      35.418  13.186   7.350  0.00  0.00     0.005 C 
ENDBRANCH  12  14
ENDBRANCH   6  12
BRANCH   6  16
HETATM   16  C   UNK N   1      33.762  16.603   5.380  0.00  0.00     0.025 C 
HETATM   17  C   UNK N   1      32.698  17.493   4.752  0.00  0.00     0.007 C 
ENDBRANCH   6  16
TORSDOF 3
ENDMDL
MODEL 7
REMARK VINA RESULT:      -4.6      9.649     11.052
REMARK  3 active torsions:
REMARK  status: ('A' for Active; 'I' for Inactive)
REMARK    1  A    between atoms: C_6  and  C_7 
REMARK    2  A    between atoms: C_6  and  C_8 
REMARK    3  A    between atoms: C_7  and  C_9 
ROOT
HETATM    1  O   UNK N   1      25.153  13.418   8.804  0.00  0.00    -0.272 OA
HETATM    2  O   UNK N   1      20.714  12.231   9.855  0.00  0.00    -0.272 OA
HETATM    3  O   UNK N   1      24.008  11.874  12.813  0.00  0.00    -0.247 OA
HETATM    4  N   UNK N   1      24.579  12.655  10.810  0.00  0.00    -0.278 N 
HETATM    5  N   UNK N   1      22.359  12.058  11.334  0.00  0.00    -0.278 N 
HETATM    6  C   UNK N   1      22.841  12.887   9.010  0.00  0.00     0.125 A 
HETATM    7  C   UNK N   1      24.267  13.007   9.538  0.00  0.00     0.244 A 
HETATM    8  C   UNK N   1      21.904  12.369  10.098  0.00  0.00     0.244 A 
HETATM    9  C   UNK N   1      23.659  12.186  11.688  0.00  0.00     0.329 A 
HETATM   10  H   UNK N   1      25.513  12.743  11.107  0.00  0.00     0.173 HD
HETATM   11  H   UNK N   1      21.719  11.725  12.003  0.00  0.00     0.173 HD
ENDROOT
BRANCH   6  12
HETATM   12  C   UNK N   1      22.314  14.270   8.524  0.00  0.00     0.008 C 
HETATM   13  C   UNK N   1      21.908  14.269   7.055  0.00  0.00     0.011 C 
BRANCH  12  14
HETATM   14  C   UNK N   1      21.182  14.855   9.360  0.00  0.00     0.001 C 
HETATM   15  C   UNK N   1      20.508  15.969   8.581  0.00  0.00     0.005 C 
ENDBRANCH  12  14
ENDBRANCH   6  12
BRANCH   6  16
HETATM   16  C   UNK N   1      22.884  11.865   7.853  0.00  0.00     0.025 C 
HETATM   17  C   UNK N   1      23.568  10.547   8.190  0.00  0.00     0.007 C 
ENDBRANCH   6  16
TORSDOF 3
ENDMDL
MODEL 8
REMARK VINA RESULT:      -4.6     11.832     13.491
REMARK  3 active torsions:
REMARK  status: ('A' for Active; 'I' for Inactive)
REMARK    1  A    between atoms: C_6  and  C_7 
REMARK    2  A    between atoms: C_6  and  C_8 
REMARK    3  A    between atoms: C_7  and  C_9 
ROOT
HETATM    1  O   UNK N   1      43.702  21.143   0.441  0.00  0.00    -0.272 OA
HETATM    2  O   UNK N   1      43.525  23.124   4.714  0.00  0.00    -0.272 OA
HETATM    3  O   UNK N   1      46.029  24.794   1.448  0.00  0.00    -0.247 OA
HETATM    4  N   UNK N   1      44.857  22.972   0.942  0.00  0.00    -0.278 N 
HETATM    5  N   UNK N   1      44.771  23.961   3.080  0.00  0.00    -0.278 N 
HETATM    6  C   UNK N   1      43.415  21.881   2.687  0.00  0.00     0.125 A 
HETATM    7  C   UNK N   1      43.999  21.979   1.281  0.00  0.00     0.244 A 
HETATM    8  C   UNK N   1      43.911  23.032   3.558  0.00  0.00     0.244 A 
HETATM    9  C   UNK N   1      45.244  23.936   1.812  0.00  0.00     0.329 A 
HETATM   10  H   UNK N   1      45.215  22.993   0.025  0.00  0.00     0.173 HD
HETATM   11  H   UNK N   1      45.066  24.684   3.679  0.00  0.00     0.173 HD
ENDROOT
BRANCH   6  12
HETATM   12  C   UNK N   1      41.859  21.932   2.642  0.00  0.00     0.008 C 
HETATM   13  C   UNK N   1      41.325  22.964   1.656  0.00  0.00     0.011 C 
BRANCH  12  14
HETATM   14  C   UNK N   1      41.180  20.592   2.387  0.00  0.00     0.001 C 
HETATM   15  C   UNK N   1      39.796  20.833   1.813  0.00  0.00     0.005 C 
ENDBRANCH  12  14
ENDBRANCH   6  12
BRANCH   6  16
HETATM   16  C   UNK N   1      43.916  20.547   3.281  0.00  0.00     0.025 C 
HETATM   17  C   UNK N   1      45.426  20.451   3.455  0.00  0.00     0.007 C 
ENDBRANCH   6  16
TORSDOF 3
ENDMDL
MODEL 9
REMARK VINA RESULT:      -4.6      7.303      9.320
REMARK  3 active torsions:
REMARK  status: ('A' for Active; 'I' for Inactive)
REMARK    1  A    between atoms: C_6  and  C_7 
REMARK    2  A    between atoms: C_6  and  C_8 
REMARK    3  A    between atoms: C_7  and  C_9 
ROOT
HETATM    1  O   UNK N   1      36.961  14.304  15.427  0.00  0.00    -0.272 OA
HETATM    2  O   UNK N   1      33.785  10.905  14.666  0.00  0.00    -0.272 OA
HETATM    3  O   UNK N   1      35.147  13.620  11.426  0.00  0.00    -0.247 OA
HETATM    4  N   UNK N   1      36.061  13.956  13.426  0.00  0.00    -0.278 N 
HETATM    5  N   UNK N   1      34.470  12.259  13.047  0.00  0.00    -0.278 N 
HETATM    6  C   UNK N   1      35.375  12.529  15.377  0.00  0.00     0.125 A 
HETATM    7  C   UNK N   1      36.187  13.652  14.742  0.00  0.00     0.244 A 
HETATM    8  C   UNK N   1      34.491  11.847  14.336  0.00  0.00     0.244 A 
HETATM    9  C   UNK N   1      35.223  13.288  12.596  0.00  0.00     0.329 A 
HETATM   10  H   UNK N   1      36.600  14.694  13.060  0.00  0.00     0.173 HD
HETATM   11  H   UNK N   1      33.883  11.791  12.412  0.00  0.00     0.173 HD
ENDROOT
BRANCH   6  12
HETATM   12  C   UNK N   1      36.314  11.456  16.004  0.00  0.00     0.008 C 
HETATM   13  C   UNK N   1      35.559  10.390  16.790  0.00  0.00     0.011 C 
BRANCH  12  14
HETATM   14  C   UNK N   1      37.263  10.781  15.021  0.00  0.00     0.001 C 
HETATM   15  C   UNK N   1      37.603   9.391  15.528  0.00  0.00     0.005 C 
ENDBRANCH  12  14
ENDBRANCH   6  12
BRANCH   6  16
HETATM   16  C   UNK N   1      34.477  13.184  16.449  0.00  0.00     0.025 C 
HETATM   17  C   UNK N   1      35.166  13.453  17.781  0.00  0.00     0.007 C 
ENDBRANCH   6  16
TORSDOF 3
ENDMDL
