MODEL 1
REMARK VINA RESULT:      -7.1      0.000      0.000
REMARK  3 active torsions:
REMARK  status: ('A' for Active; 'I' for Inactive)
REMARK    1  A    between atoms: N_2  and  C_10 
REMARK    2  A    between atoms: N_2  and  C_13 
REMARK       I    between atoms: N_2  and  C_19 
REMARK    3  A    between atoms: C_9  and  C_11 
ROOT
HETATM    1  N   UNK N   1      35.890  13.380  14.275  0.00  0.00    -0.238 N 
HETATM    2  N   UNK N   1      36.750  14.358  14.535  0.00  0.00    -0.302 N 
ATOM      3  HN  UNK N   1      37.319  14.850  13.845  1.00  0.00     0.186 HD
HETATM    4  N   UNK N   1      34.399  12.011  15.467  0.00  0.00    -0.349 N 
ATOM      5  HN  UNK N   1      33.982  11.729  16.354  1.00  0.00     0.166 HD
HETATM    6  N   UNK N   1      35.209  13.565  18.999  0.00  0.00    -0.191 NA
HETATM    7  C   UNK N   1      35.603  12.792  13.057  0.00  0.00     0.070 A 
HETATM    8  C   UNK N   1      35.320  12.993  15.421  0.00  0.00     0.149 A 
HETATM    9  C   UNK N   1      34.632  11.770  13.066  0.00  0.00     0.049 A 
HETATM   10  C   UNK N   1      35.827  13.725  16.463  0.00  0.00     0.107 A 
HETATM   11  C   UNK N   1      34.037  11.400  14.302  0.00  0.00     0.092 A 
HETATM   12  C   UNK N   1      36.746  14.597  15.874  0.00  0.00     0.134 A 
HETATM   13  C   UNK N   1      35.468  13.617  17.868  0.00  0.00     0.105 C 
ENDROOT
BRANCH   7  14
HETATM   14  C   UNK N   1      36.358  13.201  11.807  0.00  0.00    -0.005 A 
HETATM   15  C   UNK N   1      35.664  14.026  10.961  0.00  0.00     0.043 A 
HETATM   16  C   UNK N   1      36.117  14.519   9.757  0.00  0.00     0.038 A 
HETATM   17  C   UNK N   1      37.410  14.154   9.340  0.00  0.00     0.030 A 
HETATM   18  C   UNK N   1      38.201  13.345  10.194  0.00  0.00     0.003 A 
HETATM   19  C   UNK N   1      37.685  12.873  11.436  0.00  0.00     0.014 A 
BRANCH  16  20
HETATM   20  N   UNK N   1      35.251  15.440   9.069  0.00  0.00    -0.319 N 
HETATM   21  C   UNK N   1      35.005  16.727   9.472  0.00  0.00     0.220 C 
HETATM   22  O   UNK N   1      35.587  17.201  10.433  0.00  0.00    -0.273 OA
HETATM   23  C   UNK N   1      34.042  17.604   8.704  0.00  0.00     0.117 C 
BRANCH  20  24
HETATM   24  C   UNK N   1      34.606  14.945   7.861  0.00  0.00     0.128 C 
HETATM   25  C   UNK N   1      33.455  14.024   8.214  0.00  0.00     0.027 C 
ENDBRANCH  20  24
ENDBRANCH  16  20
ENDBRANCH   7  14
TORSDOF 3
ENDMDL
MODEL 2
REMARK VINA RESULT:      -6.9      7.197     11.738
REMARK  3 active torsions:
REMARK  status: ('A' for Active; 'I' for Inactive)
REMARK    1  A    between atoms: N_2  and  C_10 
REMARK    2  A    between atoms: N_2  and  C_13 
REMARK       I    between atoms: N_2  and  C_19 
REMARK    3  A    between atoms: C_9  and  C_11 
ROOT
HETATM    1  N   UNK N   1      27.336  18.787   5.427  0.00  0.00    -0.238 N 
HETATM    2  N   UNK N   1      27.901  19.986   5.336  0.00  0.00    -0.302 N 
ATOM      3  HN  UNK N   1      28.753  20.281   5.814  1.00  0.00     0.186 HD
HETATM    4  N   UNK N   1      25.468  17.671   4.543  0.00  0.00    -0.349 N 
ATOM      5  HN  UNK N   1      24.638  17.680   3.949  1.00  0.00     0.166 HD
HETATM    6  N   UNK N   1      24.201  20.719   2.386  0.00  0.00    -0.191 NA
HETATM    7  C   UNK N   1      27.736  17.707   6.194  0.00  0.00     0.070 A 
HETATM    8  C   UNK N   1      26.247  18.765   4.652  0.00  0.00     0.149 A 
HETATM    9  C   UNK N   1      26.951  16.541   6.091  0.00  0.00     0.049 A 
HETATM   10  C   UNK N   1      26.082  19.984   4.047  0.00  0.00     0.107 A 
HETATM   11  C   UNK N   1      25.811  16.552   5.244  0.00  0.00     0.092 A 
HETATM   12  C   UNK N   1      27.155  20.756   4.500  0.00  0.00     0.134 A 
HETATM   13  C   UNK N   1      25.025  20.370   3.126  0.00  0.00     0.105 C 
ENDROOT
BRANCH   7  14
HETATM   14  C   UNK N   1      28.919  17.826   7.134  0.00  0.00    -0.005 A 
HETATM   15  C   UNK N   1      30.018  17.092   6.770  0.00  0.00     0.043 A 
HETATM   16  C   UNK N   1      31.206  17.014   7.462  0.00  0.00     0.038 A 
HETATM   17  C   UNK N   1      31.322  17.747   8.656  0.00  0.00     0.030 A 
HETATM   18  C   UNK N   1      30.242  18.570   9.062  0.00  0.00     0.003 A 
HETATM   19  C   UNK N   1      29.038  18.623   8.299  0.00  0.00     0.014 A 
BRANCH  16  20
HETATM   20  N   UNK N   1      32.260  16.246   6.852  0.00  0.00    -0.319 N 
HETATM   21  C   UNK N   1      33.373  16.785   6.260  0.00  0.00     0.220 C 
HETATM   22  O   UNK N   1      33.571  17.988   6.284  0.00  0.00    -0.273 OA
HETATM   23  C   UNK N   1      34.405  15.894   5.606  0.00  0.00     0.117 C 
BRANCH  20  24
HETATM   24  C   UNK N   1      32.110  14.798   6.883  0.00  0.00     0.128 C 
HETATM   25  C   UNK N   1      32.508  14.252   8.240  0.00  0.00     0.027 C 
ENDBRANCH  20  24
ENDBRANCH  16  20
ENDBRANCH   7  14
TORSDOF 3
ENDMDL
MODEL 3
REMARK VINA RESULT:      -6.9      5.198      9.597
REMARK  3 active torsions:
REMARK  status: ('A' for Active; 'I' for Inactive)
REMARK    1  A    between atoms: N_2  and  C_10 
REMARK    2  A    between atoms: N_2  and  C_13 
REMARK       I    between atoms: N_2  and  C_19 
REMARK    3  A    between atoms: C_9  and  C_11 
ROOT
HETATM    1  N   UNK N   1      29.443  17.749   6.479  0.00  0.00    -0.238 N 
HETATM    2  N   UNK N   1      29.664  17.540   5.186  0.00  0.00    -0.302 N 
ATOM      3  HN  UNK N   1      30.542  17.222   4.776  1.00  0.00     0.186 HD
HETATM    4  N   UNK N   1      27.664  18.430   7.853  0.00  0.00    -0.349 N 
ATOM      5  HN  UNK N   1      26.695  18.734   7.951  1.00  0.00     0.166 HD
HETATM    6  N   UNK N   1      25.077  18.887   4.913  0.00  0.00    -0.191 NA
HETATM    7  C   UNK N   1      30.333  17.627   7.531  0.00  0.00     0.070 A 
HETATM    8  C   UNK N   1      28.176  18.144   6.640  0.00  0.00     0.149 A 
HETATM    9  C   UNK N   1      29.825  17.904   8.817  0.00  0.00     0.049 A 
HETATM   10  C   UNK N   1      27.551  18.209   5.422  0.00  0.00     0.107 A 
HETATM   11  C   UNK N   1      28.469  18.304   8.948  0.00  0.00     0.092 A 
HETATM   12  C   UNK N   1      28.524  17.819   4.499  0.00  0.00     0.134 A 
HETATM   13  C   UNK N   1      26.171  18.591   5.164  0.00  0.00     0.105 C 
ENDROOT
BRANCH   7  14
HETATM   14  C   UNK N   1      31.786  17.277   7.275  0.00  0.00    -0.005 A 
HETATM   15  C   UNK N   1      32.459  16.787   8.364  0.00  0.00     0.043 A 
HETATM   16  C   UNK N   1      33.785  16.417   8.396  0.00  0.00     0.038 A 
HETATM   17  C   UNK N   1      34.535  16.547   7.214  0.00  0.00     0.030 A 
HETATM   18  C   UNK N   1      33.886  16.997   6.038  0.00  0.00     0.003 A 
HETATM   19  C   UNK N   1      32.505  17.354   6.058  0.00  0.00     0.014 A 
BRANCH  16  20
HETATM   20  N   UNK N   1      34.267  15.848   9.628  0.00  0.00    -0.319 N 
HETATM   21  C   UNK N   1      35.179  16.447  10.458  0.00  0.00     0.220 C 
HETATM   22  O   UNK N   1      35.592  17.570  10.224  0.00  0.00    -0.273 OA
HETATM   23  C   UNK N   1      35.657  15.748  11.711  0.00  0.00     0.117 C 
BRANCH  20  24
HETATM   24  C   UNK N   1      33.729  14.547   9.996  0.00  0.00     0.128 C 
HETATM   25  C   UNK N   1      34.345  13.457   9.140  0.00  0.00     0.027 C 
ENDBRANCH  20  24
ENDBRANCH  16  20
ENDBRANCH   7  14
TORSDOF 3
ENDMDL
MODEL 4
REMARK VINA RESULT:      -6.9      3.862      8.581
REMARK  3 active torsions:
REMARK  status: ('A' for Active; 'I' for Inactive)
REMARK    1  A    between atoms: N_2  and  C_10 
REMARK    2  A    between atoms: N_2  and  C_13 
REMARK       I    between atoms: N_2  and  C_19 
REMARK    3  A    between atoms: C_9  and  C_11 
ROOT
HETATM    1  N   UNK N   1      35.220  12.674  14.314  0.00  0.00    -0.238 N 
HETATM    2  N   UNK N   1      35.910  13.798  14.476  0.00  0.00    -0.302 N 
ATOM      3  HN  UNK N   1      36.234  14.174  15.368  1.00  0.00     0.186 HD
HETATM    4  N   UNK N   1      34.306  11.434  12.541  0.00  0.00    -0.349 N 
ATOM      5  HN  UNK N   1      34.137  11.322  11.541  1.00  0.00     0.166 HD
HETATM    6  N   UNK N   1      35.500  13.901   9.707  0.00  0.00    -0.191 NA
HETATM    7  C   UNK N   1      34.761  11.802  15.284  0.00  0.00     0.070 A 
HETATM    8  C   UNK N   1      34.989  12.497  13.009  0.00  0.00     0.149 A 
HETATM    9  C   UNK N   1      34.056  10.671  14.828  0.00  0.00     0.049 A 
HETATM   10  C   UNK N   1      35.528  13.536  12.296  0.00  0.00     0.107 A 
HETATM   11  C   UNK N   1      33.845  10.510  13.433  0.00  0.00     0.092 A 
HETATM   12  C   UNK N   1      36.115  14.363  13.257  0.00  0.00     0.134 A 
HETATM   13  C   UNK N   1      35.498  13.718  10.853  0.00  0.00     0.105 C 
ENDROOT
BRANCH   7  14
HETATM   14  C   UNK N   1      34.963  12.111  16.755  0.00  0.00    -0.005 A 
HETATM   15  C   UNK N   1      35.154  11.012  17.552  0.00  0.00     0.043 A 
HETATM   16  C   UNK N   1      35.339  11.023  18.916  0.00  0.00     0.038 A 
HETATM   17  C   UNK N   1      35.336  12.266  19.572  0.00  0.00     0.030 A 
HETATM   18  C   UNK N   1      35.197  13.447  18.800  0.00  0.00     0.003 A 
HETATM   19  C   UNK N   1      35.021  13.377  17.387  0.00  0.00     0.014 A 
BRANCH  16  20
HETATM   20  N   UNK N   1      35.605   9.754  19.542  0.00  0.00    -0.319 N 
HETATM   21  C   UNK N   1      34.654   8.964  20.137  0.00  0.00     0.220 C 
HETATM   22  O   UNK N   1      33.476   9.275  20.101  0.00  0.00    -0.273 OA
HETATM   23  C   UNK N   1      35.041   7.666  20.808  0.00  0.00     0.117 C 
BRANCH  20  24
HETATM   24  C   UNK N   1      36.988   9.299  19.526  0.00  0.00     0.128 C 
HETATM   25  C   UNK N   1      37.763   9.915  20.674  0.00  0.00     0.027 C 
ENDBRANCH  20  24
ENDBRANCH  16  20
ENDBRANCH   7  14
TORSDOF 3
ENDMDL
MODEL 5
REMARK VINA RESULT:      -6.8      7.178     11.861
REMARK  3 active torsions:
REMARK  status: ('A' for Active; 'I' for Inactive)
REMARK    1  A    between atoms: N_2  and  C_10 
REMARK    2  A    between atoms: N_2  and  C_13 
REMARK       I    between atoms: N_2  and  C_19 
REMARK    3  A    between atoms: C_9  and  C_11 
ROOT
HETATM    1  N   UNK N   1      27.396  18.815   5.307  0.00  0.00    -0.238 N 
HETATM    2  N   UNK N   1      27.571  20.081   5.669  0.00  0.00    -0.302 N 
ATOM      3  HN  UNK N   1      28.193  20.408   6.408  1.00  0.00     0.186 HD
HETATM    4  N   UNK N   1      26.147  17.615   3.721  0.00  0.00    -0.349 N 
ATOM      5  HN  UNK N   1      25.472  17.608   2.955  1.00  0.00     0.166 HD
HETATM    6  N   UNK N   1      24.403  20.782   2.147  0.00  0.00    -0.191 NA
HETATM    7  C   UNK N   1      27.967  17.680   5.855  0.00  0.00     0.070 A 
HETATM    8  C   UNK N   1      26.520  18.774   4.298  0.00  0.00     0.149 A 
HETATM    9  C   UNK N   1      27.609  16.451   5.264  0.00  0.00     0.049 A 
HETATM   10  C   UNK N   1      26.097  20.042   3.997  0.00  0.00     0.107 A 
HETATM   11  C   UNK N   1      26.689  16.451   4.183  0.00  0.00     0.092 A 
HETATM   12  C   UNK N   1      26.783  20.869   4.890  0.00  0.00     0.134 A 
HETATM   13  C   UNK N   1      25.151  20.429   2.962  0.00  0.00     0.105 C 
ENDROOT
BRANCH   7  14
HETATM   14  C   UNK N   1      28.872  17.781   7.067  0.00  0.00    -0.005 A 
HETATM   15  C   UNK N   1      30.116  17.231   6.902  0.00  0.00     0.043 A 
HETATM   16  C   UNK N   1      31.111  17.176   7.853  0.00  0.00     0.038 A 
HETATM   17  C   UNK N   1      30.844  17.730   9.117  0.00  0.00     0.030 A 
HETATM   18  C   UNK N   1      29.596  18.363   9.338  0.00  0.00     0.003 A 
HETATM   19  C   UNK N   1      28.606  18.402   8.312  0.00  0.00     0.014 A 
BRANCH  16  20
HETATM   20  N   UNK N   1      32.374  16.625   7.436  0.00  0.00    -0.319 N 
HETATM   21  C   UNK N   1      32.709  15.298   7.518  0.00  0.00     0.220 C 
HETATM   22  O   UNK N   1      31.896  14.471   7.896  0.00  0.00    -0.273 OA
HETATM   23  C   UNK N   1      34.081  14.822   7.094  0.00  0.00     0.117 C 
BRANCH  20  24
HETATM   24  C   UNK N   1      33.343  17.563   6.890  0.00  0.00     0.128 C 
HETATM   25  C   UNK N   1      34.087  18.268   8.008  0.00  0.00     0.027 C 
ENDBRANCH  20  24
ENDBRANCH  16  20
ENDBRANCH   7  14
TORSDOF 3
ENDMDL
MODEL 6
REMARK VINA RESULT:      -6.7     18.548     21.830
REMARK  3 active torsions:
REMARK  status: ('A' for Active; 'I' for Inactive)
REMARK    1  A    between atoms: N_2  and  C_10 
REMARK    2  A    between atoms: N_2  and  C_13 
REMARK       I    between atoms: N_2  and  C_19 
REMARK    3  A    between atoms: C_9  and  C_11 
ROOT
HETATM    1  N   UNK N   1      29.653  22.622  -4.831  0.00  0.00    -0.238 N 
HETATM    2  N   UNK N   1      29.574  22.351  -6.129  0.00  0.00    -0.302 N 
ATOM      3  HN  UNK N   1      28.924  22.779  -6.788  1.00  0.00     0.186 HD
HETATM    4  N   UNK N   1      30.941  21.947  -2.987  0.00  0.00    -0.349 N 
ATOM      5  HN  UNK N   1      31.687  21.368  -2.599  1.00  0.00     0.166 HD
HETATM    6  N   UNK N   1      33.164  19.389  -5.002  0.00  0.00    -0.191 NA
HETATM    7  C   UNK N   1      28.873  23.489  -4.087  0.00  0.00     0.070 A 
HETATM    8  C   UNK N   1      30.629  21.882  -4.296  0.00  0.00     0.149 A 
HETATM    9  C   UNK N   1      29.183  23.593  -2.716  0.00  0.00     0.049 A 
HETATM   10  C   UNK N   1      31.198  21.094  -5.262  0.00  0.00     0.107 A 
HETATM   11  C   UNK N   1      30.238  22.802  -2.189  0.00  0.00     0.092 A 
HETATM   12  C   UNK N   1      30.506  21.408  -6.434  0.00  0.00     0.134 A 
HETATM   13  C   UNK N   1      32.292  20.150  -5.092  0.00  0.00     0.105 C 
ENDROOT
BRANCH   7  14
HETATM   14  C   UNK N   1      27.712  24.224  -4.729  0.00  0.00    -0.005 A 
HETATM   15  C   UNK N   1      27.691  25.575  -4.502  0.00  0.00     0.043 A 
HETATM   16  C   UNK N   1      26.737  26.458  -4.956  0.00  0.00     0.038 A 
HETATM   17  C   UNK N   1      25.676  25.945  -5.724  0.00  0.00     0.030 A 
HETATM   18  C   UNK N   1      25.666  24.564  -6.040  0.00  0.00     0.003 A 
HETATM   19  C   UNK N   1      26.688  23.696  -5.554  0.00  0.00     0.014 A 
BRANCH  16  20
HETATM   20  N   UNK N   1      26.958  27.852  -4.670  0.00  0.00    -0.319 N 
HETATM   21  C   UNK N   1      26.230  28.587  -3.771  0.00  0.00     0.220 C 
HETATM   22  O   UNK N   1      25.370  28.060  -3.086  0.00  0.00    -0.273 OA
HETATM   23  C   UNK N   1      26.511  30.060  -3.572  0.00  0.00     0.117 C 
BRANCH  20  24
HETATM   24  C   UNK N   1      28.038  28.501  -5.399  0.00  0.00     0.128 C 
HETATM   25  C   UNK N   1      27.745  28.509  -6.886  0.00  0.00     0.027 C 
ENDBRANCH  20  24
ENDBRANCH  16  20
ENDBRANCH   7  14
TORSDOF 3
ENDMDL
MODEL 7
REMARK VINA RESULT:      -6.6      7.511     12.093
REMARK  3 active torsions:
REMARK  status: ('A' for Active; 'I' for Inactive)
REMARK    1  A    between atoms: N_2  and  C_10 
REMARK    2  A    between atoms: N_2  and  C_13 
REMARK       I    between atoms: N_2  and  C_19 
REMARK    3  A    between atoms: C_9  and  C_11 
ROOT
HETATM    1  N   UNK N   1      26.913  18.513   4.936  0.00  0.00    -0.238 N 
HETATM    2  N   UNK N   1      26.640  17.679   3.938  0.00  0.00    -0.302 N 
ATOM      3  HN  UNK N   1      27.103  16.787   3.764  1.00  0.00     0.186 HD
HETATM    4  N   UNK N   1      26.143  20.583   5.735  0.00  0.00    -0.349 N 
ATOM      5  HN  UNK N   1      25.513  21.381   5.647  1.00  0.00     0.166 HD
HETATM    6  N   UNK N   1      23.408  21.068   2.937  0.00  0.00    -0.191 NA
HETATM    7  C   UNK N   1      27.882  18.389   5.916  0.00  0.00     0.070 A 
HETATM    8  C   UNK N   1      26.097  19.568   4.851  0.00  0.00     0.149 A 
HETATM    9  C   UNK N   1      27.948  19.427   6.867  0.00  0.00     0.049 A 
HETATM   10  C   UNK N   1      25.274  19.432   3.762  0.00  0.00     0.107 A 
HETATM   11  C   UNK N   1      27.052  20.522   6.752  0.00  0.00     0.092 A 
HETATM   12  C   UNK N   1      25.639  18.213   3.188  0.00  0.00     0.134 A 
HETATM   13  C   UNK N   1      24.243  20.358   3.322  0.00  0.00     0.105 C 
ENDROOT
BRANCH   7  14
HETATM   14  C   UNK N   1      28.849  17.221   5.900  0.00  0.00    -0.005 A 
HETATM   15  C   UNK N   1      30.039  17.451   6.539  0.00  0.00     0.043 A 
HETATM   16  C   UNK N   1      31.086  16.563   6.647  0.00  0.00     0.038 A 
HETATM   17  C   UNK N   1      30.940  15.297   6.052  0.00  0.00     0.030 A 
HETATM   18  C   UNK N   1      29.713  14.975   5.421  0.00  0.00     0.003 A 
HETATM   19  C   UNK N   1      28.656  15.930   5.350  0.00  0.00     0.014 A 
BRANCH  16  20
HETATM   20  N   UNK N   1      32.212  16.985   7.438  0.00  0.00    -0.319 N 
HETATM   21  C   UNK N   1      33.343  17.573   6.931  0.00  0.00     0.220 C 
HETATM   22  O   UNK N   1      33.425  17.846   5.745  0.00  0.00    -0.273 OA
HETATM   23  C   UNK N   1      34.493  17.942   7.840  0.00  0.00     0.117 C 
BRANCH  20  24
HETATM   24  C   UNK N   1      32.118  16.764   8.873  0.00  0.00     0.128 C 
HETATM   25  C   UNK N   1      32.363  15.304   9.203  0.00  0.00     0.027 C 
ENDBRANCH  20  24
ENDBRANCH  16  20
ENDBRANCH   7  14
TORSDOF 3
ENDMDL
MODEL 8
REMARK VINA RESULT:      -6.6     11.780     15.361
REMARK  3 active torsions:
REMARK  status: ('A' for Active; 'I' for Inactive)
REMARK    1  A    between atoms: N_2  and  C_10 
REMARK    2  A    between atoms: N_2  and  C_13 
REMARK       I    between atoms: N_2  and  C_19 
REMARK    3  A    between atoms: C_9  and  C_11 
ROOT
HETATM    1  N   UNK N   1      26.421  18.160   3.671  0.00  0.00    -0.238 N 
HETATM    2  N   UNK N   1      25.956  17.049   3.110  0.00  0.00    -0.302 N 
ATOM      3  HN  UNK N   1      24.992  16.887   2.819  1.00  0.00     0.186 HD
HETATM    4  N   UNK N   1      28.473  18.984   4.463  0.00  0.00    -0.349 N 
ATOM      5  HN  UNK N   1      29.470  18.846   4.631  1.00  0.00     0.166 HD
HETATM    6  N   UNK N   1      30.537  15.740   3.591  0.00  0.00    -0.191 NA
HETATM    7  C   UNK N   1      25.722  19.302   4.017  0.00  0.00     0.070 A 
HETATM    8  C   UNK N   1      27.730  18.012   3.899  0.00  0.00     0.149 A 
HETATM    9  C   UNK N   1      26.472  20.345   4.596  0.00  0.00     0.049 A 
HETATM   10  C   UNK N   1      28.135  16.768   3.489  0.00  0.00     0.107 A 
HETATM   11  C   UNK N   1      27.864  20.156   4.806  0.00  0.00     0.092 A 
HETATM   12  C   UNK N   1      26.981  16.163   2.986  0.00  0.00     0.134 A 
HETATM   13  C   UNK N   1      29.479  16.217   3.557  0.00  0.00     0.105 C 
ENDROOT
BRANCH   7  14
HETATM   14  C   UNK N   1      24.218  19.372   3.832  0.00  0.00    -0.005 A 
HETATM   15  C   UNK N   1      23.505  18.474   4.582  0.00  0.00     0.043 A 
HETATM   16  C   UNK N   1      22.136  18.323   4.579  0.00  0.00     0.038 A 
HETATM   17  C   UNK N   1      21.383  19.157   3.734  0.00  0.00     0.030 A 
HETATM   18  C   UNK N   1      22.054  20.144   2.970  0.00  0.00     0.003 A 
HETATM   19  C   UNK N   1      23.475  20.265   3.022  0.00  0.00     0.014 A 
BRANCH  16  20
HETATM   20  N   UNK N   1      21.589  17.372   5.512  0.00  0.00    -0.319 N 
HETATM   21  C   UNK N   1      21.071  17.695   6.739  0.00  0.00     0.220 C 
HETATM   22  O   UNK N   1      20.976  18.859   7.089  0.00  0.00    -0.273 OA
HETATM   23  C   UNK N   1      20.559  16.617   7.668  0.00  0.00     0.117 C 
BRANCH  20  24
HETATM   24  C   UNK N   1      21.596  15.977   5.096  0.00  0.00     0.128 C 
HETATM   25  C   UNK N   1      20.484  15.715   4.098  0.00  0.00     0.027 C 
ENDBRANCH  20  24
ENDBRANCH  16  20
ENDBRANCH   7  14
TORSDOF 3
ENDMDL
MODEL 9
REMARK VINA RESULT:      -6.5      7.739     11.275
REMARK  3 active torsions:
REMARK  status: ('A' for Active; 'I' for Inactive)
REMARK    1  A    between atoms: N_2  and  C_10 
REMARK    2  A    between atoms: N_2  and  C_13 
REMARK       I    between atoms: N_2  and  C_19 
REMARK    3  A    between atoms: C_9  and  C_11 
ROOT
HETATM    1  N   UNK N   1      29.793  17.615   7.098  0.00  0.00    -0.238 N 
HETATM    2  N   UNK N   1      30.397  17.197   5.991  0.00  0.00    -0.302 N 
ATOM      3  HN  UNK N   1      30.102  17.405   5.037  1.00  0.00     0.186 HD
HETATM    4  N   UNK N   1      30.090  17.429   9.420  0.00  0.00    -0.349 N 
ATOM      5  HN  UNK N   1      30.621  17.065  10.213  1.00  0.00     0.166 HD
HETATM    6  N   UNK N   1      33.335  15.199   9.202  0.00  0.00    -0.191 NA
HETATM    7  C   UNK N   1      28.641  18.372   7.212  0.00  0.00     0.070 A 
HETATM    8  C   UNK N   1      30.471  17.160   8.156  0.00  0.00     0.149 A 
HETATM    9  C   UNK N   1      28.222  18.684   8.521  0.00  0.00     0.049 A 
HETATM   10  C   UNK N   1      31.540  16.412   7.737  0.00  0.00     0.107 A 
HETATM   11  C   UNK N   1      28.979  18.196   9.619  0.00  0.00     0.092 A 
HETATM   12  C   UNK N   1      31.475  16.446   6.342  0.00  0.00     0.134 A 
HETATM   13  C   UNK N   1      32.526  15.745   8.573  0.00  0.00     0.105 C 
ENDROOT
BRANCH   7  14
HETATM   14  C   UNK N   1      27.856  18.771   5.977  0.00  0.00    -0.005 A 
HETATM   15  C   UNK N   1      26.948  17.839   5.548  0.00  0.00     0.043 A 
HETATM   16  C   UNK N   1      26.131  17.953   4.445  0.00  0.00     0.038 A 
HETATM   17  C   UNK N   1      26.223  19.126   3.675  0.00  0.00     0.030 A 
HETATM   18  C   UNK N   1      27.104  20.153   4.094  0.00  0.00     0.003 A 
HETATM   19  C   UNK N   1      27.918  19.987   5.254  0.00  0.00     0.014 A 
BRANCH  16  20
HETATM   20  N   UNK N   1      25.189  16.886   4.226  0.00  0.00    -0.319 N 
HETATM   21  C   UNK N   1      25.232  16.016   3.167  0.00  0.00     0.220 C 
HETATM   22  O   UNK N   1      26.147  16.056   2.363  0.00  0.00    -0.273 OA
HETATM   23  C   UNK N   1      24.169  14.953   3.000  0.00  0.00     0.117 C 
BRANCH  20  24
HETATM   24  C   UNK N   1      24.131  16.741   5.214  0.00  0.00     0.128 C 
HETATM   25  C   UNK N   1      23.161  17.904   5.128  0.00  0.00     0.027 C 
ENDBRANCH  20  24
ENDBRANCH  16  20
ENDBRANCH   7  14
TORSDOF 3
ENDMDL
