MODEL 1
REMARK VINA RESULT:      -7.2      0.000      0.000
REMARK  5 active torsions:
REMARK  status: ('A' for Active; 'I' for Inactive)
REMARK    1  A    between atoms: C_6  and  O_13 
REMARK    2  A    between atoms: C_16  and  C_17 
REMARK    3  A    between atoms: C_17  and  C_18 
REMARK    4  A    between atoms: C_18  and  C_19 
REMARK    5  A    between atoms: C_19  and  C_20 
ROOT
HETATM    1  C   UNK N   1      35.183  12.475  16.594  0.00  0.00     0.054 C 
HETATM    2  C   UNK N   1      35.088  11.600  17.842  0.00  0.00     0.017 A 
HETATM    3  C   UNK N   1      35.821  11.626  15.486  0.00  0.00     0.032 C 
HETATM    4  C   UNK N   1      35.886  13.801  16.772  0.00  0.00    -0.014 C 
HETATM    5  C   UNK N   1      34.724  10.247  17.643  0.00  0.00     0.080 A 
HETATM    6  C   UNK N   1      35.318  12.063  19.162  0.00  0.00     0.075 A 
HETATM    7  C   UNK N   1      34.923  10.380  15.216  0.00  0.00     0.065 C 
HETATM    8  C   UNK N   1      36.036  12.470  14.228  0.00  0.00     0.013 C 
HETATM    9  C   UNK N   1      36.693  14.334  15.840  0.00  0.00    -0.087 C 
HETATM   10  O   UNK N   1      34.557   9.739  16.397  0.00  0.00    -0.340 OA
HETATM   11  C   UNK N   1      34.543   9.400  18.740  0.00  0.00     0.044 A 
HETATM   12  C   UNK N   1      35.133  11.195  20.244  0.00  0.00     0.044 A 
HETATM   13  C   UNK N   1      36.950  13.664  14.512  0.00  0.00     0.034 C 
HETATM   14  C   UNK N   1      37.356  15.636  16.123  0.00  0.00     0.043 C 
HETATM   15  C   UNK N   1      34.732   9.874  20.033  0.00  0.00    -0.053 A 
HETATM   16  C   UNK N   1      33.640  10.751  14.481  0.00  0.00     0.046 C 
HETATM   17  C   UNK N   1      35.684   9.392  14.348  0.00  0.00     0.046 C 
ENDROOT
BRANCH  15  18
HETATM   18  C   UNK N   1      34.478   8.972  21.188  0.00  0.00     0.039 C 
BRANCH  18  19
HETATM   19  C   UNK N   1      33.505   9.642  22.145  0.00  0.00     0.005 C 
BRANCH  19  20
HETATM   20  C   UNK N   1      32.099   9.586  21.586  0.00  0.00    -0.000 C 
BRANCH  20  21
HETATM   21  C   UNK N   1      31.710   8.139  21.353  0.00  0.00    -0.005 C 
HETATM   22  C   UNK N   1      30.865   8.040  20.103  0.00  0.00     0.005 C 
ENDBRANCH  20  21
ENDBRANCH  19  20
ENDBRANCH  18  19
ENDBRANCH  15  18
BRANCH   6  23
HETATM   23  O   UNK N   1      35.687  13.329  19.414  0.00  0.00    -0.360 OA
HETATM   24  H   UNK N   1      35.482  13.723  20.239  0.00  0.00     0.217 HD
ENDBRANCH   6  23
TORSDOF 5
ENDMDL
MODEL 2
REMARK VINA RESULT:      -6.9     23.756     27.018
REMARK  5 active torsions:
REMARK  status: ('A' for Active; 'I' for Inactive)
REMARK    1  A    between atoms: C_6  and  O_13 
REMARK    2  A    between atoms: C_16  and  C_17 
REMARK    3  A    between atoms: C_17  and  C_18 
REMARK    4  A    between atoms: C_18  and  C_19 
REMARK    5  A    between atoms: C_19  and  C_20 
ROOT
HETATM    1  C   UNK N   1      30.790  22.284  -5.189  0.00  0.00     0.054 C 
HETATM    2  C   UNK N   1      29.460  22.987  -4.929  0.00  0.00     0.017 A 
HETATM    3  C   UNK N   1      30.472  20.918  -5.814  0.00  0.00     0.032 C 
HETATM    4  C   UNK N   1      31.716  22.165  -4.000  0.00  0.00    -0.014 C 
HETATM    5  C   UNK N   1      28.459  22.841  -5.918  0.00  0.00     0.080 A 
HETATM    6  C   UNK N   1      29.186  23.779  -3.785  0.00  0.00     0.075 A 
HETATM    7  C   UNK N   1      29.696  21.136  -7.148  0.00  0.00     0.065 C 
HETATM    8  C   UNK N   1      31.758  20.115  -6.017  0.00  0.00     0.013 C 
HETATM    9  C   UNK N   1      32.470  21.079  -3.765  0.00  0.00    -0.087 C 
HETATM   10  O   UNK N   1      28.649  22.042  -6.997  0.00  0.00    -0.340 OA
HETATM   11  C   UNK N   1      27.241  23.513  -5.789  0.00  0.00     0.044 A 
HETATM   12  C   UNK N   1      27.958  24.442  -3.678  0.00  0.00     0.044 A 
HETATM   13  C   UNK N   1      32.482  19.884  -4.687  0.00  0.00     0.034 C 
HETATM   14  C   UNK N   1      33.333  21.052  -2.552  0.00  0.00     0.043 C 
HETATM   15  C   UNK N   1      26.997  24.321  -4.684  0.00  0.00    -0.053 A 
HETATM   16  C   UNK N   1      30.600  21.666  -8.255  0.00  0.00     0.046 C 
HETATM   17  C   UNK N   1      29.121  19.810  -7.617  0.00  0.00     0.046 C 
ENDROOT
BRANCH  15  18
HETATM   18  C   UNK N   1      25.717  25.073  -4.596  0.00  0.00     0.039 C 
BRANCH  18  19
HETATM   19  C   UNK N   1      25.476  25.811  -5.904  0.00  0.00     0.005 C 
BRANCH  19  20
HETATM   20  C   UNK N   1      24.769  27.123  -5.641  0.00  0.00    -0.000 C 
BRANCH  20  21
HETATM   21  C   UNK N   1      25.520  27.892  -4.572  0.00  0.00    -0.005 C 
HETATM   22  C   UNK N   1      26.717  28.577  -5.192  0.00  0.00     0.005 C 
ENDBRANCH  20  21
ENDBRANCH  19  20
ENDBRANCH  18  19
ENDBRANCH  15  18
BRANCH   6  23
HETATM   23  O   UNK N   1      30.086  23.939  -2.802  0.00  0.00    -0.360 OA
HETATM   24  H   UNK N   1      30.952  24.236  -3.001  0.00  0.00     0.217 HD
ENDBRANCH   6  23
TORSDOF 5
ENDMDL
MODEL 3
REMARK VINA RESULT:      -6.6     16.530     19.334
REMARK  5 active torsions:
REMARK  status: ('A' for Active; 'I' for Inactive)
REMARK    1  A    between atoms: C_6  and  O_13 
REMARK    2  A    between atoms: C_16  and  C_17 
REMARK    3  A    between atoms: C_17  and  C_18 
REMARK    4  A    between atoms: C_18  and  C_19 
REMARK    5  A    between atoms: C_19  and  C_20 
ROOT
HETATM    1  C   UNK N   1      22.560  19.456   3.709  0.00  0.00     0.054 C 
HETATM    2  C   UNK N   1      24.069  19.272   3.852  0.00  0.00     0.017 A 
HETATM    3  C   UNK N   1      21.927  18.057   3.702  0.00  0.00     0.032 C 
HETATM    4  C   UNK N   1      22.107  20.293   2.535  0.00  0.00    -0.014 C 
HETATM    5  C   UNK N   1      24.506  18.257   4.736  0.00  0.00     0.080 A 
HETATM    6  C   UNK N   1      25.037  20.060   3.179  0.00  0.00     0.075 A 
HETATM    7  C   UNK N   1      22.268  17.335   5.041  0.00  0.00     0.065 C 
HETATM    8  C   UNK N   1      20.419  18.159   3.466  0.00  0.00     0.013 C 
HETATM    9  C   UNK N   1      21.010  20.009   1.814  0.00  0.00    -0.087 C 
HETATM   10  O   UNK N   1      23.622  17.435   5.353  0.00  0.00    -0.340 OA
HETATM   11  C   UNK N   1      25.870  18.076   4.978  0.00  0.00     0.044 A 
HETATM   12  C   UNK N   1      26.397  19.858   3.436  0.00  0.00     0.044 A 
HETATM   13  C   UNK N   1      20.112  18.838   2.129  0.00  0.00     0.034 C 
HETATM   14  C   UNK N   1      20.662  20.885   0.661  0.00  0.00     0.043 C 
HETATM   15  C   UNK N   1      26.810  18.880   4.344  0.00  0.00    -0.053 A 
HETATM   16  C   UNK N   1      21.486  17.912   6.216  0.00  0.00     0.046 C 
HETATM   17  C   UNK N   1      21.908  15.864   4.924  0.00  0.00     0.046 C 
ENDROOT
BRANCH  15  18
HETATM   18  C   UNK N   1      28.253  18.708   4.660  0.00  0.00     0.039 C 
BRANCH  18  19
HETATM   19  C   UNK N   1      28.416  17.585   5.672  0.00  0.00     0.005 C 
BRANCH  19  20
HETATM   20  C   UNK N   1      29.356  18.012   6.779  0.00  0.00    -0.000 C 
BRANCH  20  21
HETATM   21  C   UNK N   1      29.004  17.266   8.051  0.00  0.00    -0.005 C 
HETATM   22  C   UNK N   1      28.212  18.174   8.964  0.00  0.00     0.005 C 
ENDBRANCH  20  21
ENDBRANCH  19  20
ENDBRANCH  18  19
ENDBRANCH  15  18
BRANCH   6  23
HETATM   23  O   UNK N   1      24.686  21.024   2.312  0.00  0.00    -0.360 OA
HETATM   24  H   UNK N   1      24.176  20.813   1.555  0.00  0.00     0.217 HD
ENDBRANCH   6  23
TORSDOF 5
ENDMDL
MODEL 4
REMARK VINA RESULT:      -6.3      1.226      2.315
REMARK  5 active torsions:
REMARK  status: ('A' for Active; 'I' for Inactive)
REMARK    1  A    between atoms: C_6  and  O_13 
REMARK    2  A    between atoms: C_16  and  C_17 
REMARK    3  A    between atoms: C_17  and  C_18 
REMARK    4  A    between atoms: C_18  and  C_19 
REMARK    5  A    between atoms: C_19  and  C_20 
ROOT
HETATM    1  C   UNK N   1      35.186  12.471  16.639  0.00  0.00     0.054 C 
HETATM    2  C   UNK N   1      35.070  11.612  17.896  0.00  0.00     0.017 A 
HETATM    3  C   UNK N   1      35.852  11.612  15.556  0.00  0.00     0.032 C 
HETATM    4  C   UNK N   1      35.877  13.804  16.814  0.00  0.00    -0.014 C 
HETATM    5  C   UNK N   1      34.719  10.254  17.708  0.00  0.00     0.080 A 
HETATM    6  C   UNK N   1      35.271  12.094  19.214  0.00  0.00     0.075 A 
HETATM    7  C   UNK N   1      34.967  10.357  15.284  0.00  0.00     0.065 C 
HETATM    8  C   UNK N   1      36.087  12.440  14.291  0.00  0.00     0.013 C 
HETATM    9  C   UNK N   1      36.699  14.329  15.891  0.00  0.00    -0.087 C 
HETATM   10  O   UNK N   1      34.581   9.729  16.465  0.00  0.00    -0.340 OA
HETATM   11  C   UNK N   1      34.521   9.421  18.812  0.00  0.00     0.044 A 
HETATM   12  C   UNK N   1      35.069  11.240  20.304  0.00  0.00     0.044 A 
HETATM   13  C   UNK N   1      36.987  13.644  14.577  0.00  0.00     0.034 C 
HETATM   14  C   UNK N   1      37.349  15.640  16.170  0.00  0.00     0.043 C 
HETATM   15  C   UNK N   1      34.680   9.913  20.103  0.00  0.00    -0.053 A 
HETATM   16  C   UNK N   1      33.697  10.709  14.519  0.00  0.00     0.046 C 
HETATM   17  C   UNK N   1      35.751   9.362  14.445  0.00  0.00     0.046 C 
ENDROOT
BRANCH  15  18
HETATM   18  C   UNK N   1      34.408   9.025  21.264  0.00  0.00     0.039 C 
BRANCH  18  19
HETATM   19  C   UNK N   1      35.411   9.320  22.369  0.00  0.00     0.005 C 
BRANCH  19  20
HETATM   20  C   UNK N   1      36.593   8.381  22.265  0.00  0.00    -0.000 C 
BRANCH  20  21
HETATM   21  C   UNK N   1      37.874   9.192  22.218  0.00  0.00    -0.005 C 
HETATM   22  C   UNK N   1      38.290   9.394  20.779  0.00  0.00     0.005 C 
ENDBRANCH  20  21
ENDBRANCH  19  20
ENDBRANCH  18  19
ENDBRANCH  15  18
BRANCH   6  23
HETATM   23  O   UNK N   1      35.626  13.366  19.457  0.00  0.00    -0.360 OA
HETATM   24  H   UNK N   1      36.248  13.795  18.903  0.00  0.00     0.217 HD
ENDBRANCH   6  23
TORSDOF 5
ENDMDL
MODEL 5
REMARK VINA RESULT:      -6.3     25.005     28.336
REMARK  5 active torsions:
REMARK  status: ('A' for Active; 'I' for Inactive)
REMARK    1  A    between atoms: C_6  and  O_13 
REMARK    2  A    between atoms: C_16  and  C_17 
REMARK    3  A    between atoms: C_17  and  C_18 
REMARK    4  A    between atoms: C_18  and  C_19 
REMARK    5  A    between atoms: C_19  and  C_20 
ROOT
HETATM    1  C   UNK N   1      27.635  23.249  -5.546  0.00  0.00     0.054 C 
HETATM    2  C   UNK N   1      27.096  24.659  -5.317  0.00  0.00     0.017 A 
HETATM    3  C   UNK N   1      29.165  23.323  -5.456  0.00  0.00     0.032 C 
HETATM    4  C   UNK N   1      27.171  22.564  -6.812  0.00  0.00    -0.014 C 
HETATM    5  C   UNK N   1      27.742  25.433  -4.325  0.00  0.00     0.080 A 
HETATM    6  C   UNK N   1      25.994  25.216  -6.014  0.00  0.00     0.075 A 
HETATM    7  C   UNK N   1      29.568  23.841  -4.042  0.00  0.00     0.065 C 
HETATM    8  C   UNK N   1      29.782  21.958  -5.770  0.00  0.00     0.013 C 
HETATM    9  C   UNK N   1      27.969  21.780  -7.555  0.00  0.00    -0.087 C 
HETATM   10  O   UNK N   1      28.841  24.971  -3.677  0.00  0.00    -0.340 OA
HETATM   11  C   UNK N   1      27.262  26.705  -4.004  0.00  0.00     0.044 A 
HETATM   12  C   UNK N   1      25.532  26.493  -5.676  0.00  0.00     0.044 A 
HETATM   13  C   UNK N   1      29.401  21.489  -7.176  0.00  0.00     0.034 C 
HETATM   14  C   UNK N   1      27.421  21.170  -8.798  0.00  0.00     0.043 C 
HETATM   15  C   UNK N   1      26.155  27.227  -4.664  0.00  0.00    -0.053 A 
HETATM   16  C   UNK N   1      29.347  22.788  -2.962  0.00  0.00     0.046 C 
HETATM   17  C   UNK N   1      31.045  24.200  -4.041  0.00  0.00     0.046 C 
ENDROOT
BRANCH  15  18
HETATM   18  C   UNK N   1      25.626  28.559  -4.267  0.00  0.00     0.039 C 
BRANCH  18  19
HETATM   19  C   UNK N   1      26.708  29.610  -4.465  0.00  0.00     0.005 C 
BRANCH  19  20
HETATM   20  C   UNK N   1      26.581  30.695  -3.418  0.00  0.00    -0.000 C 
BRANCH  20  21
HETATM   21  C   UNK N   1      27.902  30.846  -2.690  0.00  0.00    -0.005 C 
HETATM   22  C   UNK N   1      28.071  29.706  -1.711  0.00  0.00     0.005 C 
ENDBRANCH  20  21
ENDBRANCH  19  20
ENDBRANCH  18  19
ENDBRANCH  15  18
BRANCH   6  23
HETATM   23  O   UNK N   1      25.352  24.539  -6.980  0.00  0.00    -0.360 OA
HETATM   24  H   UNK N   1      25.022  23.679  -6.813  0.00  0.00     0.217 HD
ENDBRANCH   6  23
TORSDOF 5
ENDMDL
MODEL 6
REMARK VINA RESULT:      -6.2     13.502     15.901
REMARK  5 active torsions:
REMARK  status: ('A' for Active; 'I' for Inactive)
REMARK    1  A    between atoms: C_6  and  O_13 
REMARK    2  A    between atoms: C_16  and  C_17 
REMARK    3  A    between atoms: C_17  and  C_18 
REMARK    4  A    between atoms: C_18  and  C_19 
REMARK    5  A    between atoms: C_19  and  C_20 
ROOT
HETATM    1  C   UNK N   1      26.489  17.635   4.631  0.00  0.00     0.054 C 
HETATM    2  C   UNK N   1      25.730  16.564   5.411  0.00  0.00     0.017 A 
HETATM    3  C   UNK N   1      27.241  18.500   5.652  0.00  0.00     0.032 C 
HETATM    4  C   UNK N   1      25.660  18.468   3.679  0.00  0.00    -0.014 C 
HETATM    5  C   UNK N   1      26.400  15.990   6.518  0.00  0.00     0.080 A 
HETATM    6  C   UNK N   1      24.429  16.108   5.083  0.00  0.00     0.075 A 
HETATM    7  C   UNK N   1      28.231  17.600   6.452  0.00  0.00     0.065 C 
HETATM    8  C   UNK N   1      27.952  19.657   4.946  0.00  0.00     0.013 C 
HETATM    9  C   UNK N   1      25.860  19.782   3.492  0.00  0.00    -0.087 C 
HETATM   10  O   UNK N   1      27.618  16.437   6.912  0.00  0.00    -0.340 OA
HETATM   11  C   UNK N   1      25.803  14.952   7.238  0.00  0.00     0.044 A 
HETATM   12  C   UNK N   1      23.851  15.069   5.820  0.00  0.00     0.044 A 
HETATM   13  C   UNK N   1      26.954  20.545   4.198  0.00  0.00     0.034 C 
HETATM   14  C   UNK N   1      24.973  20.516   2.547  0.00  0.00     0.043 C 
HETATM   15  C   UNK N   1      24.543  14.483   6.883  0.00  0.00    -0.053 A 
HETATM   16  C   UNK N   1      29.430  17.181   5.611  0.00  0.00     0.046 C 
HETATM   17  C   UNK N   1      28.755  18.373   7.651  0.00  0.00     0.046 C 
ENDROOT
BRANCH  15  18
HETATM   18  C   UNK N   1      23.951  13.339   7.626  0.00  0.00     0.039 C 
BRANCH  18  19
HETATM   19  C   UNK N   1      24.664  13.184   8.961  0.00  0.00     0.005 C 
BRANCH  19  20
HETATM   20  C   UNK N   1      24.210  11.916   9.651  0.00  0.00    -0.000 C 
BRANCH  20  21
HETATM   21  C   UNK N   1      23.501  12.274  10.943  0.00  0.00    -0.005 C 
HETATM   22  C   UNK N   1      22.006  12.258  10.718  0.00  0.00     0.005 C 
ENDBRANCH  20  21
ENDBRANCH  19  20
ENDBRANCH  18  19
ENDBRANCH  15  18
BRANCH   6  23
HETATM   23  O   UNK N   1      23.734  16.628   4.058  0.00  0.00    -0.360 OA
HETATM   24  H   UNK N   1      23.558  16.109   3.298  0.00  0.00     0.217 HD
ENDBRANCH   6  23
TORSDOF 5
ENDMDL
MODEL 7
REMARK VINA RESULT:      -6.1     24.560     27.969
REMARK  5 active torsions:
REMARK  status: ('A' for Active; 'I' for Inactive)
REMARK    1  A    between atoms: C_6  and  O_13 
REMARK    2  A    between atoms: C_16  and  C_17 
REMARK    3  A    between atoms: C_17  and  C_18 
REMARK    4  A    between atoms: C_18  and  C_19 
REMARK    5  A    between atoms: C_19  and  C_20 
ROOT
HETATM    1  C   UNK N   1      29.474  21.012  -6.322  0.00  0.00     0.054 C 
HETATM    2  C   UNK N   1      28.470  22.160  -6.394  0.00  0.00     0.017 A 
HETATM    3  C   UNK N   1      30.845  21.622  -6.000  0.00  0.00     0.032 C 
HETATM    4  C   UNK N   1      29.523  20.103  -7.529  0.00  0.00    -0.014 C 
HETATM    5  C   UNK N   1      28.615  23.193  -5.437  0.00  0.00     0.080 A 
HETATM    6  C   UNK N   1      27.410  22.237  -7.332  0.00  0.00     0.075 A 
HETATM    7  C   UNK N   1      30.765  22.367  -4.633  0.00  0.00     0.065 C 
HETATM    8  C   UNK N   1      31.924  20.536  -6.006  0.00  0.00     0.013 C 
HETATM    9  C   UNK N   1      30.664  19.586  -8.010  0.00  0.00    -0.087 C 
HETATM   10  O   UNK N   1      29.651  23.199  -4.561  0.00  0.00    -0.340 OA
HETATM   11  C   UNK N   1      27.692  24.240  -5.390  0.00  0.00     0.044 A 
HETATM   12  C   UNK N   1      26.499  23.297  -7.266  0.00  0.00     0.044 A 
HETATM   13  C   UNK N   1      32.006  19.845  -7.369  0.00  0.00     0.034 C 
HETATM   14  C   UNK N   1      30.607  18.719  -9.220  0.00  0.00     0.043 C 
HETATM   15  C   UNK N   1      26.632  24.286  -6.288  0.00  0.00    -0.053 A 
HETATM   16  C   UNK N   1      30.687  21.399  -3.459  0.00  0.00     0.046 C 
HETATM   17  C   UNK N   1      32.012  23.216  -4.451  0.00  0.00     0.046 C 
ENDROOT
BRANCH  15  18
HETATM   18  C   UNK N   1      25.629  25.379  -6.183  0.00  0.00     0.039 C 
BRANCH  18  19
HETATM   19  C   UNK N   1      26.143  26.606  -6.920  0.00  0.00     0.005 C 
BRANCH  19  20
HETATM   20  C   UNK N   1      26.395  27.734  -5.943  0.00  0.00    -0.000 C 
BRANCH  20  21
HETATM   21  C   UNK N   1      25.340  27.699  -4.854  0.00  0.00    -0.005 C 
HETATM   22  C   UNK N   1      25.971  28.067  -3.530  0.00  0.00     0.005 C 
ENDBRANCH  20  21
ENDBRANCH  19  20
ENDBRANCH  18  19
ENDBRANCH  15  18
BRANCH   6  23
HETATM   23  O   UNK N   1      27.232  21.299  -8.277  0.00  0.00    -0.360 OA
HETATM   24  H   UNK N   1      27.861  21.197  -8.963  0.00  0.00     0.217 HD
ENDBRANCH   6  23
TORSDOF 5
ENDMDL
MODEL 8
REMARK VINA RESULT:      -6.1     15.280     18.523
REMARK  5 active torsions:
REMARK  status: ('A' for Active; 'I' for Inactive)
REMARK    1  A    between atoms: C_6  and  O_13 
REMARK    2  A    between atoms: C_16  and  C_17 
REMARK    3  A    between atoms: C_17  and  C_18 
REMARK    4  A    between atoms: C_18  and  C_19 
REMARK    5  A    between atoms: C_19  and  C_20 
ROOT
HETATM    1  C   UNK N   1      22.328  14.039   8.619  0.00  0.00     0.054 C 
HETATM    2  C   UNK N   1      21.617  14.733   7.460  0.00  0.00     0.017 A 
HETATM    3  C   UNK N   1      23.106  12.851   8.035  0.00  0.00     0.032 C 
HETATM    4  C   UNK N   1      21.450  13.629   9.780  0.00  0.00    -0.014 C 
HETATM    5  C   UNK N   1      22.338  14.845   6.247  0.00  0.00     0.080 A 
HETATM    6  C   UNK N   1      20.311  15.279   7.536  0.00  0.00     0.075 A 
HETATM    7  C   UNK N   1      24.140  13.381   6.995  0.00  0.00     0.065 C 
HETATM    8  C   UNK N   1      23.771  12.049   9.156  0.00  0.00     0.013 C 
HETATM    9  C   UNK N   1      21.623  12.484  10.460  0.00  0.00    -0.087 C 
HETATM   10  O   UNK N   1      23.563  14.282   6.103  0.00  0.00    -0.340 OA
HETATM   11  C   UNK N   1      21.785  15.531   5.164  0.00  0.00     0.044 A 
HETATM   12  C   UNK N   1      19.778  15.961   6.437  0.00  0.00     0.044 A 
HETATM   13  C   UNK N   1      22.732  11.511  10.142  0.00  0.00     0.034 C 
HETATM   14  C   UNK N   1      20.689  12.163  11.574  0.00  0.00     0.043 C 
HETATM   15  C   UNK N   1      20.520  16.099   5.261  0.00  0.00    -0.053 A 
HETATM   16  C   UNK N   1      25.312  14.088   7.664  0.00  0.00     0.046 C 
HETATM   17  C   UNK N   1      24.698  12.210   6.202  0.00  0.00     0.046 C 
ENDROOT
BRANCH  15  18
HETATM   18  C   UNK N   1      19.975  16.875   4.115  0.00  0.00     0.039 C 
BRANCH  18  19
HETATM   19  C   UNK N   1      21.082  17.728   3.514  0.00  0.00     0.005 C 
BRANCH  19  20
HETATM   20  C   UNK N   1      21.156  19.063   4.224  0.00  0.00    -0.000 C 
BRANCH  20  21
HETATM   21  C   UNK N   1      20.473  20.120   3.377  0.00  0.00    -0.005 C 
HETATM   22  C   UNK N   1      21.182  20.234   2.047  0.00  0.00     0.005 C 
ENDBRANCH  20  21
ENDBRANCH  19  20
ENDBRANCH  18  19
ENDBRANCH  15  18
BRANCH   6  23
HETATM   23  O   UNK N   1      19.569  15.187   8.652  0.00  0.00    -0.360 OA
HETATM   24  H   UNK N   1      18.862  14.575   8.697  0.00  0.00     0.217 HD
ENDBRANCH   6  23
TORSDOF 5
ENDMDL
MODEL 9
REMARK VINA RESULT:      -6.1     11.359     14.394
REMARK  5 active torsions:
REMARK  status: ('A' for Active; 'I' for Inactive)
REMARK    1  A    between atoms: C_6  and  O_13 
REMARK    2  A    between atoms: C_16  and  C_17 
REMARK    3  A    between atoms: C_17  and  C_18 
REMARK    4  A    between atoms: C_18  and  C_19 
REMARK    5  A    between atoms: C_19  and  C_20 
ROOT
HETATM    1  C   UNK N   1      32.963  16.607   6.373  0.00  0.00     0.054 C 
HETATM    2  C   UNK N   1      31.534  17.084   6.622  0.00  0.00     0.017 A 
HETATM    3  C   UNK N   1      32.885  15.394   5.436  0.00  0.00     0.032 C 
HETATM    4  C   UNK N   1      33.787  16.322   7.608  0.00  0.00    -0.014 C 
HETATM    5  C   UNK N   1      30.653  17.058   5.515  0.00  0.00     0.080 A 
HETATM    6  C   UNK N   1      31.056  17.560   7.869  0.00  0.00     0.075 A 
HETATM    7  C   UNK N   1      32.209  15.824   4.099  0.00  0.00     0.065 C 
HETATM    8  C   UNK N   1      34.279  14.803   5.216  0.00  0.00     0.013 C 
HETATM    9  C   UNK N   1      34.654  15.300   7.690  0.00  0.00    -0.087 C 
HETATM   10  O   UNK N   1      31.042  16.551   4.318  0.00  0.00    -0.340 OA
HETATM   11  C   UNK N   1      29.351  17.547   5.643  0.00  0.00     0.044 A 
HETATM   12  C   UNK N   1      29.747  18.042   7.973  0.00  0.00     0.044 A 
HETATM   13  C   UNK N   1      34.905  14.356   6.540  0.00  0.00     0.034 C 
HETATM   14  C   UNK N   1      35.401  15.092   8.961  0.00  0.00     0.043 C 
HETATM   15  C   UNK N   1      28.904  18.050   6.859  0.00  0.00    -0.053 A 
HETATM   16  C   UNK N   1      33.130  16.687   3.245  0.00  0.00     0.046 C 
HETATM   17  C   UNK N   1      31.859  14.585   3.292  0.00  0.00     0.046 C 
ENDROOT
BRANCH  15  18
HETATM   18  C   UNK N   1      27.533  18.618   6.958  0.00  0.00     0.039 C 
BRANCH  18  19
HETATM   19  C   UNK N   1      27.626  20.118   7.192  0.00  0.00     0.005 C 
BRANCH  19  20
HETATM   20  C   UNK N   1      27.517  20.860   5.877  0.00  0.00    -0.000 C 
BRANCH  20  21
HETATM   21  C   UNK N   1      26.377  20.276   5.065  0.00  0.00    -0.005 C 
HETATM   22  C   UNK N   1      26.808  20.131   3.623  0.00  0.00     0.005 C 
ENDBRANCH  20  21
ENDBRANCH  19  20
ENDBRANCH  18  19
ENDBRANCH  15  18
BRANCH   6  23
HETATM   23  O   UNK N   1      31.837  17.589   8.962  0.00  0.00    -0.360 OA
HETATM   24  H   UNK N   1      32.270  18.381   9.209  0.00  0.00     0.217 HD
ENDBRANCH   6  23
TORSDOF 5
ENDMDL
