MODEL 1
REMARK VINA RESULT:      -6.8      0.000      0.000
REMARK  1 active torsions:
REMARK  status: ('A' for Active; 'I' for Inactive)
REMARK    1  A    between atoms: O_3  and  C_20 
ROOT
HETATM    1  O   UNK N   1      26.945  24.913  -4.037  0.00  0.00    -0.334 OA
HETATM    2  O   UNK N   1      25.220  24.588  -6.301  0.00  0.00    -0.295 OA
HETATM    3  N   UNK N   1      27.625  30.012  -3.765  0.00  0.00     0.089 N 
HETATM    4  C   UNK N   1      26.928  27.232  -4.369  0.00  0.00     0.031 C 
HETATM    5  C   UNK N   1      26.906  28.297  -5.461  0.00  0.00     0.036 C 
HETATM    6  C   UNK N   1      27.985  29.368  -5.049  0.00  0.00     0.232 C 
HETATM    7  C   UNK N   1      26.112  25.912  -4.558  0.00  0.00     0.212 C 
HETATM    8  C   UNK N   1      26.549  27.883  -3.025  0.00  0.00     0.048 C 
HETATM    9  C   UNK N   1      28.276  26.665  -4.242  0.00  0.00    -0.003 A 
HETATM   10  C   UNK N   1      27.210  27.643  -6.805  0.00  0.00     0.015 C 
HETATM   11  C   UNK N   1      29.428  28.776  -4.910  0.00  0.00     0.075 C 
HETATM   12  C   UNK N   1      27.470  29.054  -2.662  0.00  0.00     0.273 C 
HETATM   13  C   UNK N   1      29.467  27.356  -4.388  0.00  0.00    -0.046 A 
HETATM   14  C   UNK N   1      26.183  26.559  -7.150  0.00  0.00     0.081 C 
HETATM   15  C   UNK N   1      25.820  25.613  -6.022  0.00  0.00     0.157 C 
HETATM   16  C   UNK N   1      28.210  25.355  -3.958  0.00  0.00     0.111 A 
HETATM   17  C   UNK N   1      26.418  30.823  -3.878  0.00  0.00     0.310 C 
HETATM   18  C   UNK N   1      30.662  26.659  -4.150  0.00  0.00     0.011 A 
HETATM   19  C   UNK N   1      29.363  24.623  -3.672  0.00  0.00     0.102 A 
HETATM   20  C   UNK N   1      30.611  25.299  -3.755  0.00  0.00     0.040 A 
ENDROOT
BRANCH  19  21
HETATM   21  O   UNK N   1      29.272  23.318  -3.328  0.00  0.00    -0.353 OA
HETATM   22  C   UNK N   1      29.690  22.835  -2.108  0.00  0.00     0.210 C 
ENDBRANCH  19  21
TORSDOF 1
ENDMDL
MODEL 2
REMARK VINA RESULT:      -6.6     13.676     16.165
REMARK  1 active torsions:
REMARK  status: ('A' for Active; 'I' for Inactive)
REMARK    1  A    between atoms: O_3  and  C_20 
ROOT
HETATM    1  O   UNK N   1      34.667  17.168   6.055  0.00  0.00    -0.334 OA
HETATM    2  O   UNK N   1      34.201  18.706   8.428  0.00  0.00    -0.295 OA
HETATM    3  N   UNK N   1      29.922  16.221   4.285  0.00  0.00     0.089 N 
HETATM    4  C   UNK N   1      32.354  17.022   5.708  0.00  0.00     0.031 C 
HETATM    5  C   UNK N   1      31.026  16.887   6.447  0.00  0.00     0.036 C 
HETATM    6  C   UNK N   1      30.204  15.789   5.674  0.00  0.00     0.232 C 
HETATM    7  C   UNK N   1      33.497  17.893   6.323  0.00  0.00     0.212 C 
HETATM    8  C   UNK N   1      32.080  17.479   4.262  0.00  0.00     0.048 C 
HETATM    9  C   UNK N   1      33.040  15.725   5.660  0.00  0.00    -0.003 A 
HETATM   10  C   UNK N   1      31.297  16.506   7.899  0.00  0.00     0.015 C 
HETATM   11  C   UNK N   1      30.926  14.400   5.614  0.00  0.00     0.075 C 
HETATM   12  C   UNK N   1      31.136  16.526   3.517  0.00  0.00     0.273 C 
HETATM   13  C   UNK N   1      32.434  14.489   5.521  0.00  0.00    -0.046 A 
HETATM   14  C   UNK N   1      32.154  17.561   8.608  0.00  0.00     0.081 C 
HETATM   15  C   UNK N   1      33.347  18.074   7.827  0.00  0.00     0.157 C 
HETATM   16  C   UNK N   1      34.367  15.892   5.768  0.00  0.00     0.111 A 
HETATM   17  C   UNK N   1      29.018  17.365   4.241  0.00  0.00     0.310 C 
HETATM   18  C   UNK N   1      33.263  13.361   5.414  0.00  0.00     0.011 A 
HETATM   19  C   UNK N   1      35.240  14.812   5.629  0.00  0.00     0.102 A 
HETATM   20  C   UNK N   1      34.670  13.524   5.430  0.00  0.00     0.040 A 
ENDROOT
BRANCH  19  21
HETATM   21  O   UNK N   1      36.578  15.007   5.681  0.00  0.00    -0.353 OA
HETATM   22  C   UNK N   1      37.489  13.988   5.518  0.00  0.00     0.210 C 
ENDBRANCH  19  21
TORSDOF 1
ENDMDL
MODEL 3
REMARK VINA RESULT:      -6.6     17.290     19.637
REMARK  1 active torsions:
REMARK  status: ('A' for Active; 'I' for Inactive)
REMARK    1  A    between atoms: O_3  and  C_20 
ROOT
HETATM    1  O   UNK N   1      20.716  13.116   9.336  0.00  0.00    -0.334 OA
HETATM    2  O   UNK N   1      22.139  12.134  11.621  0.00  0.00    -0.295 OA
HETATM    3  N   UNK N   1      23.938  12.190   5.424  0.00  0.00     0.089 N 
HETATM    4  C   UNK N   1      22.512  12.498   7.964  0.00  0.00     0.031 C 
HETATM    5  C   UNK N   1      24.035  12.418   7.929  0.00  0.00     0.036 C 
HETATM    6  C   UNK N   1      24.472  13.009   6.536  0.00  0.00     0.232 C 
HETATM    7  C   UNK N   1      21.750  12.171   9.290  0.00  0.00     0.212 C 
HETATM    8  C   UNK N   1      21.937  11.644   6.817  0.00  0.00     0.048 C 
HETATM    9  C   UNK N   1      22.073  13.885   7.771  0.00  0.00    -0.003 A 
HETATM   10  C   UNK N   1      24.606  13.203   9.106  0.00  0.00     0.015 C 
HETATM   11  C   UNK N   1      24.009  14.490   6.316  0.00  0.00     0.075 C 
HETATM   12  C   UNK N   1      22.473  12.072   5.445  0.00  0.00     0.273 C 
HETATM   13  C   UNK N   1      22.673  14.821   6.946  0.00  0.00    -0.046 A 
HETATM   14  C   UNK N   1      24.112  12.646  10.446  0.00  0.00     0.081 C 
HETATM   15  C   UNK N   1      22.632  12.326  10.521  0.00  0.00     0.157 C 
HETATM   16  C   UNK N   1      20.985  14.141   8.513  0.00  0.00     0.111 A 
HETATM   17  C   UNK N   1      24.533  10.859   5.389  0.00  0.00     0.310 C 
HETATM   18  C   UNK N   1      22.062  16.079   6.829  0.00  0.00     0.011 A 
HETATM   19  C   UNK N   1      20.313  15.359   8.405  0.00  0.00     0.102 A 
HETATM   20  C   UNK N   1      20.858  16.338   7.530  0.00  0.00     0.040 A 
ENDROOT
BRANCH  19  21
HETATM   21  O   UNK N   1      19.183  15.578   9.116  0.00  0.00    -0.353 OA
HETATM   22  C   UNK N   1      18.491  16.768   9.073  0.00  0.00     0.210 C 
ENDBRANCH  19  21
TORSDOF 1
ENDMDL
MODEL 4
REMARK VINA RESULT:      -6.6     11.881     14.747
REMARK  1 active torsions:
REMARK  status: ('A' for Active; 'I' for Inactive)
REMARK    1  A    between atoms: O_3  and  C_20 
ROOT
HETATM    1  O   UNK N   1      28.059  18.849   7.886  0.00  0.00    -0.334 OA
HETATM    2  O   UNK N   1      30.604  18.233   9.051  0.00  0.00    -0.295 OA
HETATM    3  N   UNK N   1      27.333  15.034   4.500  0.00  0.00     0.089 N 
HETATM    4  C   UNK N   1      28.233  16.948   6.527  0.00  0.00     0.031 C 
HETATM    5  C   UNK N   1      29.239  16.109   5.745  0.00  0.00     0.036 C 
HETATM    6  C   UNK N   1      28.576  15.824   4.345  0.00  0.00     0.232 C 
HETATM    7  C   UNK N   1      28.649  17.577   7.897  0.00  0.00     0.212 C 
HETATM    8  C   UNK N   1      26.934  16.139   6.706  0.00  0.00     0.048 C 
HETATM    9  C   UNK N   1      27.914  18.175   5.787  0.00  0.00    -0.003 A 
HETATM   10  C   UNK N   1      30.552  16.878   5.629  0.00  0.00     0.015 C 
HETATM   11  C   UNK N   1      28.230  17.125   3.545  0.00  0.00     0.075 C 
HETATM   12  C   UNK N   1      26.340  15.685   5.366  0.00  0.00     0.273 C 
HETATM   13  C   UNK N   1      27.805  18.291   4.412  0.00  0.00    -0.046 A 
HETATM   14  C   UNK N   1      31.140  17.199   7.007  0.00  0.00     0.081 C 
HETATM   15  C   UNK N   1      30.158  17.720   8.038  0.00  0.00     0.157 C 
HETATM   16  C   UNK N   1      27.734  19.200   6.633  0.00  0.00     0.111 A 
HETATM   17  C   UNK N   1      27.598  13.686   4.992  0.00  0.00     0.310 C 
HETATM   18  C   UNK N   1      27.413  19.532   3.888  0.00  0.00     0.011 A 
HETATM   19  C   UNK N   1      27.303  20.445   6.172  0.00  0.00     0.102 A 
HETATM   20  C   UNK N   1      27.124  20.603   4.770  0.00  0.00     0.040 A 
ENDROOT
BRANCH  19  21
HETATM   21  O   UNK N   1      27.069  21.451   7.046  0.00  0.00    -0.353 OA
HETATM   22  C   UNK N   1      25.870  21.604   7.704  0.00  0.00     0.210 C 
ENDBRANCH  19  21
TORSDOF 1
ENDMDL
MODEL 5
REMARK VINA RESULT:      -6.5     13.782     15.419
REMARK  1 active torsions:
REMARK  status: ('A' for Active; 'I' for Inactive)
REMARK    1  A    between atoms: O_3  and  C_20 
ROOT
HETATM    1  O   UNK N   1      31.661  16.909   7.410  0.00  0.00    -0.334 OA
HETATM    2  O   UNK N   1      34.223  17.841   6.527  0.00  0.00    -0.295 OA
HETATM    3  N   UNK N   1      29.950  14.137   3.419  0.00  0.00     0.089 N 
HETATM    4  C   UNK N   1      31.367  15.809   5.362  0.00  0.00     0.031 C 
HETATM    5  C   UNK N   1      31.651  15.938   3.869  0.00  0.00     0.036 C 
HETATM    6  C   UNK N   1      30.314  15.544   3.134  0.00  0.00     0.232 C 
HETATM    7  C   UNK N   1      32.425  16.312   6.398  0.00  0.00     0.212 C 
HETATM    8  C   UNK N   1      30.993  14.348   5.679  0.00  0.00     0.048 C 
HETATM    9  C   UNK N   1      30.237  16.665   5.738  0.00  0.00    -0.003 A 
HETATM   10  C   UNK N   1      32.092  17.366   3.564  0.00  0.00     0.015 C 
HETATM   11  C   UNK N   1      29.099  16.451   3.527  0.00  0.00     0.075 C 
HETATM   12  C   UNK N   1      29.797  13.859   4.853  0.00  0.00     0.273 C 
HETATM   13  C   UNK N   1      29.117  16.921   4.966  0.00  0.00    -0.046 A 
HETATM   14  C   UNK N   1      33.357  17.743   4.342  0.00  0.00     0.081 C 
HETATM   15  C   UNK N   1      33.374  17.345   5.805  0.00  0.00     0.157 C 
HETATM   16  C   UNK N   1      30.428  17.186   6.961  0.00  0.00     0.111 A 
HETATM   17  C   UNK N   1      30.903  13.197   2.840  0.00  0.00     0.310 C 
HETATM   18  C   UNK N   1      28.098  17.706   5.528  0.00  0.00     0.011 A 
HETATM   19  C   UNK N   1      29.432  17.939   7.585  0.00  0.00     0.102 A 
HETATM   20  C   UNK N   1      28.237  18.186   6.854  0.00  0.00     0.040 A 
ENDROOT
BRANCH  19  21
HETATM   21  O   UNK N   1      29.618  18.405   8.841  0.00  0.00    -0.353 OA
HETATM   22  C   UNK N   1      29.199  17.723   9.961  0.00  0.00     0.210 C 
ENDBRANCH  19  21
TORSDOF 1
ENDMDL
MODEL 6
REMARK VINA RESULT:      -6.4     14.013     16.917
REMARK  1 active torsions:
REMARK  status: ('A' for Active; 'I' for Inactive)
REMARK    1  A    between atoms: O_3  and  C_20 
ROOT
HETATM    1  O   UNK N   1      32.859  17.331   9.039  0.00  0.00    -0.334 OA
HETATM    2  O   UNK N   1      30.436  18.811   9.421  0.00  0.00    -0.295 OA
HETATM    3  N   UNK N   1      32.648  15.936   4.084  0.00  0.00     0.089 N 
HETATM    4  C   UNK N   1      32.271  16.964   6.801  0.00  0.00     0.031 C 
HETATM    5  C   UNK N   1      31.073  16.700   5.893  0.00  0.00     0.036 C 
HETATM    6  C   UNK N   1      31.503  15.530   4.931  0.00  0.00     0.232 C 
HETATM    7  C   UNK N   1      32.123  17.940   8.014  0.00  0.00     0.212 C 
HETATM    8  C   UNK N   1      33.471  17.396   5.937  0.00  0.00     0.048 C 
HETATM    9  C   UNK N   1      32.639  15.740   7.522  0.00  0.00    -0.003 A 
HETATM   10  C   UNK N   1      29.863  16.343   6.751  0.00  0.00     0.015 C 
HETATM   11  C   UNK N   1      31.899  14.217   5.688  0.00  0.00     0.075 C 
HETATM   12  C   UNK N   1      33.821  16.359   4.862  0.00  0.00     0.273 C 
HETATM   13  C   UNK N   1      32.577  14.451   7.021  0.00  0.00    -0.046 A 
HETATM   14  C   UNK N   1      29.508  17.474   7.722  0.00  0.00     0.081 C 
HETATM   15  C   UNK N   1      30.676  18.101   8.458  0.00  0.00     0.157 C 
HETATM   16  C   UNK N   1      33.056  16.033   8.763  0.00  0.00     0.111 A 
HETATM   17  C   UNK N   1      32.285  16.988   3.141  0.00  0.00     0.310 C 
HETATM   18  C   UNK N   1      33.047  13.408   7.835  0.00  0.00     0.011 A 
HETATM   19  C   UNK N   1      33.573  15.042   9.600  0.00  0.00     0.102 A 
HETATM   20  C   UNK N   1      33.582  13.706   9.112  0.00  0.00     0.040 A 
ENDROOT
BRANCH  19  21
HETATM   21  O   UNK N   1      34.045  15.365  10.825  0.00  0.00    -0.353 OA
HETATM   22  C   UNK N   1      35.320  15.840  11.034  0.00  0.00     0.210 C 
ENDBRANCH  19  21
TORSDOF 1
ENDMDL
MODEL 7
REMARK VINA RESULT:      -6.4      2.676      4.828
REMARK  1 active torsions:
REMARK  status: ('A' for Active; 'I' for Inactive)
REMARK    1  A    between atoms: O_3  and  C_20 
ROOT
HETATM    1  O   UNK N   1      30.677  23.300  -4.672  0.00  0.00    -0.334 OA
HETATM    2  O   UNK N   1      30.830  22.857  -1.846  0.00  0.00    -0.295 OA
HETATM    3  N   UNK N   1      26.651  26.473  -5.177  0.00  0.00     0.089 N 
HETATM    4  C   UNK N   1      28.817  24.686  -4.345  0.00  0.00     0.031 C 
HETATM    5  C   UNK N   1      27.566  24.849  -3.486  0.00  0.00     0.036 C 
HETATM    6  C   UNK N   1      26.395  25.192  -4.481  0.00  0.00     0.232 C 
HETATM    7  C   UNK N   1      30.136  24.150  -3.698  0.00  0.00     0.212 C 
HETATM    8  C   UNK N   1      29.104  26.014  -5.072  0.00  0.00     0.048 C 
HETATM    9  C   UNK N   1      28.604  23.644  -5.356  0.00  0.00    -0.003 A 
HETATM   10  C   UNK N   1      27.321  23.560  -2.708  0.00  0.00     0.015 C 
HETATM   11  C   UNK N   1      26.157  24.087  -5.566  0.00  0.00     0.075 C 
HETATM   12  C   UNK N   1      27.917  26.483  -5.922  0.00  0.00     0.273 C 
HETATM   13  C   UNK N   1      27.419  23.386  -6.022  0.00  0.00    -0.046 A 
HETATM   14  C   UNK N   1      28.505  23.217  -1.799  0.00  0.00     0.081 C 
HETATM   15  C   UNK N   1      29.879  23.359  -2.423  0.00  0.00     0.157 C 
HETATM   16  C   UNK N   1      29.735  22.952  -5.562  0.00  0.00     0.111 A 
HETATM   17  C   UNK N   1      26.616  27.610  -4.263  0.00  0.00     0.310 C 
HETATM   18  C   UNK N   1      27.428  22.396  -7.017  0.00  0.00     0.011 A 
HETATM   19  C   UNK N   1      29.813  21.985  -6.566  0.00  0.00     0.102 A 
HETATM   20  C   UNK N   1      28.635  21.719  -7.318  0.00  0.00     0.040 A 
ENDROOT
BRANCH  19  21
HETATM   21  O   UNK N   1      30.979  21.340  -6.800  0.00  0.00    -0.353 OA
HETATM   22  C   UNK N   1      31.310  20.151  -6.190  0.00  0.00     0.210 C 
ENDBRANCH  19  21
TORSDOF 1
ENDMDL
MODEL 8
REMARK VINA RESULT:      -6.3     12.483     14.810
REMARK  1 active torsions:
REMARK  status: ('A' for Active; 'I' for Inactive)
REMARK    1  A    between atoms: O_3  and  C_20 
ROOT
HETATM    1  O   UNK N   1      28.612  17.920   4.237  0.00  0.00    -0.334 OA
HETATM    2  O   UNK N   1      27.521  15.750   2.716  0.00  0.00    -0.295 OA
HETATM    3  N   UNK N   1      33.202  16.138   5.754  0.00  0.00     0.089 N 
HETATM    4  C   UNK N   1      30.536  16.649   4.653  0.00  0.00     0.031 C 
HETATM    5  C   UNK N   1      31.008  15.223   4.923  0.00  0.00     0.036 C 
HETATM    6  C   UNK N   1      32.024  15.320   6.123  0.00  0.00     0.232 C 
HETATM    7  C   UNK N   1      29.367  16.898   3.645  0.00  0.00     0.212 C 
HETATM    8  C   UNK N   1      31.749  17.514   4.258  0.00  0.00     0.048 C 
HETATM    9  C   UNK N   1      29.936  17.221   5.863  0.00  0.00    -0.003 A 
HETATM   10  C   UNK N   1      29.801  14.347   5.243  0.00  0.00     0.015 C 
HETATM   11  C   UNK N   1      31.396  15.930   7.422  0.00  0.00     0.075 C 
HETATM   12  C   UNK N   1      32.849  17.499   5.326  0.00  0.00     0.273 C 
HETATM   13  C   UNK N   1      30.354  16.998   7.163  0.00  0.00    -0.046 A 
HETATM   14  C   UNK N   1      28.799  14.325   4.084  0.00  0.00     0.081 C 
HETATM   15  C   UNK N   1      28.491  15.669   3.453  0.00  0.00     0.157 C 
HETATM   16  C   UNK N   1      28.900  18.013   5.545  0.00  0.00     0.111 A 
HETATM   17  C   UNK N   1      34.010  15.498   4.721  0.00  0.00     0.310 C 
HETATM   18  C   UNK N   1      29.704  17.698   8.191  0.00  0.00     0.011 A 
HETATM   19  C   UNK N   1      28.244  18.765   6.520  0.00  0.00     0.102 A 
HETATM   20  C   UNK N   1      28.671  18.613   7.868  0.00  0.00     0.040 A 
ENDROOT
BRANCH  19  21
HETATM   21  O   UNK N   1      27.241  19.604   6.173  0.00  0.00    -0.353 OA
HETATM   22  C   UNK N   1      27.435  20.949   5.953  0.00  0.00     0.210 C 
ENDBRANCH  19  21
TORSDOF 1
ENDMDL
MODEL 9
REMARK VINA RESULT:      -6.2     20.707     23.780
REMARK  1 active torsions:
REMARK  status: ('A' for Active; 'I' for Inactive)
REMARK    1  A    between atoms: O_3  and  C_20 
ROOT
HETATM    1  O   UNK N   1      35.806  13.982  13.444  0.00  0.00    -0.334 OA
HETATM    2  O   UNK N   1      35.199  16.128  11.645  0.00  0.00    -0.295 OA
HETATM    3  N   UNK N   1      37.085  10.105  10.302  0.00  0.00     0.089 N 
HETATM    4  C   UNK N   1      36.271  12.594  11.615  0.00  0.00     0.031 C 
HETATM    5  C   UNK N   1      35.826  12.282  10.189  0.00  0.00     0.036 C 
HETATM    6  C   UNK N   1      35.751  10.712  10.089  0.00  0.00     0.232 C 
HETATM    7  C   UNK N   1      36.263  14.073  12.122  0.00  0.00     0.212 C 
HETATM    8  C   UNK N   1      37.663  11.976  11.854  0.00  0.00     0.048 C 
HETATM    9  C   UNK N   1      35.334  12.005  12.578  0.00  0.00    -0.003 A 
HETATM   10  C   UNK N   1      34.482  12.953   9.926  0.00  0.00     0.015 C 
HETATM   11  C   UNK N   1      34.754  10.070  11.112  0.00  0.00     0.075 C 
HETATM   12  C   UNK N   1      37.683  10.464  11.596  0.00  0.00     0.273 C 
HETATM   13  C   UNK N   1      34.678  10.794  12.439  0.00  0.00    -0.046 A 
HETATM   14  C   UNK N   1      34.569  14.474  10.095  0.00  0.00     0.081 C 
HETATM   15  C   UNK N   1      35.320  14.958  11.320  0.00  0.00     0.157 C 
HETATM   16  C   UNK N   1      35.189  12.808  13.643  0.00  0.00     0.111 A 
HETATM   17  C   UNK N   1      38.015  10.435   9.228  0.00  0.00     0.310 C 
HETATM   18  C   UNK N   1      33.878  10.356  13.506  0.00  0.00     0.011 A 
HETATM   19  C   UNK N   1      34.439  12.405  14.750  0.00  0.00     0.102 A 
HETATM   20  C   UNK N   1      33.786  11.144  14.680  0.00  0.00     0.040 A 
ENDROOT
BRANCH  19  21
HETATM   21  O   UNK N   1      34.352  13.202  15.839  0.00  0.00    -0.353 OA
HETATM   22  C   UNK N   1      35.018  12.936  17.015  0.00  0.00     0.210 C 
ENDBRANCH  19  21
TORSDOF 1
ENDMDL
