MODEL 1
REMARK VINA RESULT:      -7.0      0.000      0.000
REMARK  7 active torsions:
REMARK  status: ('A' for Active; 'I' for Inactive)
REMARK    1  A    between atoms: C_8  and  O_2 
REMARK    2  A    between atoms: C_18  and  O_3 
REMARK    3  A    between atoms: O_4  and  C_27 
REMARK    4  A    between atoms: N_5  and  C_22 
REMARK    5  A    between atoms: C_10  and  C_18 
REMARK    6  A    between atoms: C_18  and  C_23 
REMARK    7  A    between atoms: C_22  and  C_24 
ROOT
HETATM    1  O   UNK N   1      27.519  25.009  -3.263  0.00  0.00    -0.338 OA
HETATM    2  N   UNK N   1      27.225  23.992  -8.397  0.00  0.00     0.094 N 
HETATM    3  C   UNK N   1      28.742  24.858  -6.552  0.00  0.00     0.006 C 
HETATM    4  C   UNK N   1      27.678  24.445  -5.538  0.00  0.00     0.031 C 
HETATM    5  C   UNK N   1      29.783  24.336  -4.133  0.00  0.00     0.094 C 
HETATM    6  C   UNK N   1      28.225  24.141  -4.115  0.00  0.00     0.178 C 
HETATM    7  C   UNK N   1      30.327  23.369  -5.251  0.00  0.00     0.058 C 
HETATM    8  C   UNK N   1      29.754  23.712  -6.653  0.00  0.00     0.023 C 
HETATM    9  C   UNK N   1      27.940  25.180  -7.873  0.00  0.00     0.236 C 
HETATM   10  C   UNK N   1      29.552  26.072  -6.018  0.00  0.00     0.016 C 
HETATM   11  C   UNK N   1      30.145  25.774  -4.613  0.00  0.00     0.042 C 
HETATM   12  C   UNK N   1      26.851  23.245  -6.039  0.00  0.00     0.048 C 
HETATM   13  C   UNK N   1      26.858  25.624  -5.284  0.00  0.00    -0.003 C 
HETATM   14  C   UNK N   1      26.873  26.329  -7.681  0.00  0.00     0.076 C 
HETATM   15  C   UNK N   1      26.244  23.477  -7.429  0.00  0.00     0.274 C 
HETATM   16  C   UNK N   1      26.373  26.487  -6.254  0.00  0.00    -0.046 C 
HETATM   17  C   UNK N   1      26.764  25.864  -3.968  0.00  0.00     0.110 C 
HETATM   18  C   UNK N   1      25.618  27.593  -5.830  0.00  0.00     0.011 C 
HETATM   19  C   UNK N   1      26.015  26.947  -3.498  0.00  0.00     0.099 C 
HETATM   20  C   UNK N   1      25.402  27.799  -4.443  0.00  0.00     0.040 C 
ENDROOT
BRANCH   7  21
HETATM   21  C   UNK N   1      31.830  22.927  -5.306  0.00  0.00     0.067 C 
HETATM   22  C   UNK N   1      32.729  23.895  -4.539  0.00  0.00     0.047 C 
BRANCH  21  23
HETATM   23  O   UNK N   1      32.278  22.937  -6.635  0.00  0.00    -0.389 OA
HETATM   24  H   UNK N   1      32.166  23.667  -7.263  0.00  0.00     0.210 HD
ENDBRANCH  21  23
BRANCH  21  25
HETATM   25  C   UNK N   1      31.976  21.474  -4.764  0.00  0.00    -0.020 C 
HETATM   26  C   UNK N   1      32.660  21.465  -3.403  0.00  0.00     0.017 C 
HETATM   27  C   UNK N   1      30.630  20.782  -4.613  0.00  0.00     0.017 C 
HETATM   28  C   UNK N   1      32.830  20.633  -5.704  0.00  0.00     0.017 C 
ENDBRANCH  21  25
ENDBRANCH   7  21
BRANCH   5  29
HETATM   29  O   UNK N   1      30.357  23.988  -2.885  0.00  0.00    -0.382 OA
HETATM   30  C   UNK N   1      29.559  23.041  -2.223  0.00  0.00     0.202 C 
ENDBRANCH   5  29
BRANCH   2  31
HETATM   31  C   UNK N   1      28.093  22.894  -8.839  0.00  0.00     0.277 C 
BRANCH  31  32
HETATM   32  C   UNK N   1      27.365  21.558  -8.874  0.00  0.00     0.014 A 
HETATM   33  C   UNK N   1      28.205  20.493  -8.210  0.00  0.00     0.007 A 
HETATM   34  C   UNK N   1      28.160  20.590  -9.723  0.00  0.00     0.007 A 
ENDBRANCH  31  32
ENDBRANCH   2  31
BRANCH  19  35
HETATM   35  O   UNK N   1      25.899  27.188  -2.181  0.00  0.00    -0.358 OA
HETATM   36  H   UNK N   1      25.904  26.479  -1.569  0.00  0.00     0.217 HD
ENDBRANCH  19  35
TORSDOF 7
ENDMDL
MODEL 2
REMARK VINA RESULT:      -6.8     20.062     24.259
REMARK  7 active torsions:
REMARK  status: ('A' for Active; 'I' for Inactive)
REMARK    1  A    between atoms: C_8  and  O_2 
REMARK    2  A    between atoms: C_18  and  O_3 
REMARK    3  A    between atoms: O_4  and  C_27 
REMARK    4  A    between atoms: N_5  and  C_22 
REMARK    5  A    between atoms: C_10  and  C_18 
REMARK    6  A    between atoms: C_18  and  C_23 
REMARK    7  A    between atoms: C_22  and  C_24 
ROOT
HETATM    1  O   UNK N   1      34.501   9.484  11.190  0.00  0.00    -0.338 OA
HETATM    2  N   UNK N   1      35.511  11.504  15.920  0.00  0.00     0.094 N 
HETATM    3  C   UNK N   1      36.340  11.357  13.523  0.00  0.00     0.006 C 
HETATM    4  C   UNK N   1      35.038  10.648  13.159  0.00  0.00     0.031 C 
HETATM    5  C   UNK N   1      35.679  11.694  10.943  0.00  0.00     0.094 C 
HETATM    6  C   UNK N   1      34.613  10.800  11.672  0.00  0.00     0.178 C 
HETATM    7  C   UNK N   1      35.724  13.051  11.741  0.00  0.00     0.058 C 
HETATM    8  C   UNK N   1      36.154  12.847  13.220  0.00  0.00     0.023 C 
HETATM    9  C   UNK N   1      36.588  10.994  15.039  0.00  0.00     0.236 C 
HETATM   10  C   UNK N   1      37.488  10.889  12.587  0.00  0.00     0.016 C 
HETATM   11  C   UNK N   1      37.101  11.074  11.093  0.00  0.00     0.042 C 
HETATM   12  C   UNK N   1      33.877  11.083  14.073  0.00  0.00     0.048 C 
HETATM   13  C   UNK N   1      35.304   9.215  13.235  0.00  0.00    -0.003 C 
HETATM   14  C   UNK N   1      36.710   9.439  15.288  0.00  0.00     0.076 C 
HETATM   15  C   UNK N   1      34.203  10.932  15.565  0.00  0.00     0.274 C 
HETATM   16  C   UNK N   1      35.997   8.582  14.254  0.00  0.00    -0.046 C 
HETATM   17  C   UNK N   1      34.930   8.601  12.103  0.00  0.00     0.110 C 
HETATM   18  C   UNK N   1      36.184   7.193  14.156  0.00  0.00     0.011 C 
HETATM   19  C   UNK N   1      35.088   7.218  11.963  0.00  0.00     0.099 C 
HETATM   20  C   UNK N   1      35.688   6.502  13.022  0.00  0.00     0.040 C 
ENDROOT
BRANCH   7  21
HETATM   21  C   UNK N   1      36.315  14.361  11.117  0.00  0.00     0.067 C 
HETATM   22  C   UNK N   1      37.492  14.061  10.190  0.00  0.00     0.047 C 
BRANCH  21  23
HETATM   23  O   UNK N   1      36.812  15.189  12.134  0.00  0.00    -0.389 OA
HETATM   24  H   UNK N   1      36.275  15.714  12.747  0.00  0.00     0.210 HD
ENDBRANCH  21  23
BRANCH  21  25
HETATM   25  C   UNK N   1      35.195  15.144  10.369  0.00  0.00    -0.020 C 
HETATM   26  C   UNK N   1      35.307  14.951   8.862  0.00  0.00     0.017 C 
HETATM   27  C   UNK N   1      33.805  14.700  10.794  0.00  0.00     0.017 C 
HETATM   28  C   UNK N   1      35.311  16.639  10.641  0.00  0.00     0.017 C 
ENDBRANCH  21  25
ENDBRANCH   7  21
BRANCH   5  29
HETATM   29  O   UNK N   1      35.304  11.946   9.599  0.00  0.00    -0.382 OA
HETATM   30  C   UNK N   1      36.043  11.137   8.722  0.00  0.00     0.202 C 
ENDBRANCH   5  29
BRANCH   2  31
HETATM   31  C   UNK N   1      35.402  12.966  15.981  0.00  0.00     0.277 C 
BRANCH  31  32
HETATM   32  C   UNK N   1      34.622  13.438  17.200  0.00  0.00     0.014 A 
HETATM   33  C   UNK N   1      35.469  14.379  18.024  0.00  0.00     0.007 A 
HETATM   34  C   UNK N   1      35.312  12.932  18.448  0.00  0.00     0.007 A 
ENDBRANCH  31  32
ENDBRANCH   2  31
BRANCH  19  35
HETATM   35  O   UNK N   1      34.701   6.588  10.841  0.00  0.00    -0.358 OA
HETATM   36  H   UNK N   1      34.282   5.752  10.890  0.00  0.00     0.217 HD
ENDBRANCH  19  35
TORSDOF 7
ENDMDL
MODEL 3
REMARK VINA RESULT:      -6.7      2.124      5.941
REMARK  7 active torsions:
REMARK  status: ('A' for Active; 'I' for Inactive)
REMARK    1  A    between atoms: C_8  and  O_2 
REMARK    2  A    between atoms: C_18  and  O_3 
REMARK    3  A    between atoms: O_4  and  C_27 
REMARK    4  A    between atoms: N_5  and  C_22 
REMARK    5  A    between atoms: C_10  and  C_18 
REMARK    6  A    between atoms: C_18  and  C_23 
REMARK    7  A    between atoms: C_22  and  C_24 
ROOT
HETATM    1  O   UNK N   1      29.521  23.323  -6.188  0.00  0.00    -0.338 OA
HETATM    2  N   UNK N   1      25.982  24.682  -9.807  0.00  0.00     0.094 N 
HETATM    3  C   UNK N   1      26.356  24.343  -7.317  0.00  0.00     0.006 C 
HETATM    4  C   UNK N   1      27.842  24.150  -7.608  0.00  0.00     0.031 C 
HETATM    5  C   UNK N   1      27.900  24.985  -5.218  0.00  0.00     0.094 C 
HETATM    6  C   UNK N   1      28.783  24.497  -6.421  0.00  0.00     0.178 C 
HETATM    7  C   UNK N   1      27.069  26.210  -5.759  0.00  0.00     0.058 C 
HETATM    8  C   UNK N   1      26.145  25.813  -6.943  0.00  0.00     0.023 C 
HETATM    9  C   UNK N   1      25.621  23.860  -8.628  0.00  0.00     0.236 C 
HETATM   10  C   UNK N   1      25.945  23.536  -6.054  0.00  0.00     0.016 C 
HETATM   11  C   UNK N   1      26.846  23.900  -4.841  0.00  0.00     0.042 C 
HETATM   12  C   UNK N   1      28.283  24.932  -8.860  0.00  0.00     0.048 C 
HETATM   13  C   UNK N   1      28.063  22.713  -7.738  0.00  0.00    -0.003 C 
HETATM   14  C   UNK N   1      25.930  22.353  -8.988  0.00  0.00     0.076 C 
HETATM   15  C   UNK N   1      27.423  24.620 -10.092  0.00  0.00     0.274 C 
HETATM   16  C   UNK N   1      27.256  21.840  -8.449  0.00  0.00    -0.046 C 
HETATM   17  C   UNK N   1      29.065  22.312  -6.942  0.00  0.00     0.110 C 
HETATM   18  C   UNK N   1      27.603  20.479  -8.448  0.00  0.00     0.011 C 
HETATM   19  C   UNK N   1      29.452  20.969  -6.914  0.00  0.00     0.099 C 
HETATM   20  C   UNK N   1      28.734  20.048  -7.709  0.00  0.00     0.040 C 
ENDROOT
BRANCH   7  21
HETATM   21  C   UNK N   1      26.403  27.251  -4.796  0.00  0.00     0.067 C 
HETATM   22  C   UNK N   1      26.256  26.694  -3.380  0.00  0.00     0.047 C 
BRANCH  21  23
HETATM   23  O   UNK N   1      25.106  27.546  -5.242  0.00  0.00    -0.389 OA
HETATM   24  H   UNK N   1      24.875  27.878  -6.123  0.00  0.00     0.210 HD
ENDBRANCH  21  23
BRANCH  21  25
HETATM   25  C   UNK N   1      27.222  28.575  -4.798  0.00  0.00    -0.020 C 
HETATM   26  C   UNK N   1      28.438  28.467  -3.886  0.00  0.00     0.017 C 
HETATM   27  C   UNK N   1      27.714  28.942  -6.189  0.00  0.00     0.017 C 
HETATM   28  C   UNK N   1      26.375  29.732  -4.283  0.00  0.00     0.017 C 
ENDBRANCH  21  25
ENDBRANCH   7  21
BRANCH   5  29
HETATM   29  O   UNK N   1      28.704  25.403  -4.128  0.00  0.00    -0.382 OA
HETATM   30  C   UNK N   1      29.028  24.310  -3.307  0.00  0.00     0.202 C 
ENDBRANCH   5  29
BRANCH   2  31
HETATM   31  C   UNK N   1      25.560  26.086  -9.733  0.00  0.00     0.277 C 
BRANCH  31  32
HETATM   32  C   UNK N   1      24.463  26.415 -10.736  0.00  0.00     0.014 A 
HETATM   33  C   UNK N   1      24.549  25.482 -11.921  0.00  0.00     0.007 A 
HETATM   34  C   UNK N   1      25.103  26.890 -12.022  0.00  0.00     0.007 A 
ENDBRANCH  31  32
ENDBRANCH   2  31
BRANCH  19  35
HETATM   35  O   UNK N   1      30.465  20.557  -6.134  0.00  0.00    -0.358 OA
HETATM   36  H   UNK N   1      30.561  19.649  -5.925  0.00  0.00     0.217 HD
ENDBRANCH  19  35
TORSDOF 7
ENDMDL
MODEL 4
REMARK VINA RESULT:      -6.6     12.788     16.497
REMARK  7 active torsions:
REMARK  status: ('A' for Active; 'I' for Inactive)
REMARK    1  A    between atoms: C_8  and  O_2 
REMARK    2  A    between atoms: C_18  and  O_3 
REMARK    3  A    between atoms: O_4  and  C_27 
REMARK    4  A    between atoms: N_5  and  C_22 
REMARK    5  A    between atoms: C_10  and  C_18 
REMARK    6  A    between atoms: C_18  and  C_23 
REMARK    7  A    between atoms: C_22  and  C_24 
ROOT
HETATM    1  O   UNK N   1      32.631  16.201   4.019  0.00  0.00    -0.338 OA
HETATM    2  N   UNK N   1      33.671  17.150   9.068  0.00  0.00     0.094 N 
HETATM    3  C   UNK N   1      33.200  15.319   7.371  0.00  0.00     0.006 C 
HETATM    4  C   UNK N   1      33.280  16.375   6.270  0.00  0.00     0.031 C 
HETATM    5  C   UNK N   1      33.919  14.276   5.004  0.00  0.00     0.094 C 
HETATM    6  C   UNK N   1      33.682  15.823   4.874  0.00  0.00     0.178 C 
HETATM    7  C   UNK N   1      35.028  14.099   6.108  0.00  0.00     0.058 C 
HETATM    8  C   UNK N   1      34.580  14.665   7.484  0.00  0.00     0.023 C 
HETATM    9  C   UNK N   1      32.709  16.104   8.649  0.00  0.00     0.236 C 
HETATM   10  C   UNK N   1      32.238  14.174   6.949  0.00  0.00     0.016 C 
HETATM   11  C   UNK N   1      32.647  13.578   5.574  0.00  0.00     0.042 C 
HETATM   12  C   UNK N   1      34.222  17.530   6.658  0.00  0.00     0.048 C 
HETATM   13  C   UNK N   1      31.915  16.825   6.018  0.00  0.00    -0.003 C 
HETATM   14  C   UNK N   1      31.308  16.804   8.442  0.00  0.00     0.076 C 
HETATM   15  C   UNK N   1      33.872  18.156   8.014  0.00  0.00     0.274 C 
HETATM   16  C   UNK N   1      30.980  17.132   6.993  0.00  0.00    -0.046 C 
HETATM   17  C   UNK N   1      31.623  16.750   4.712  0.00  0.00     0.110 C 
HETATM   18  C   UNK N   1      29.699  17.527   6.573  0.00  0.00     0.011 C 
HETATM   19  C   UNK N   1      30.365  17.141   4.244  0.00  0.00     0.099 C 
HETATM   20  C   UNK N   1      29.404  17.572   5.186  0.00  0.00     0.040 C 
ENDROOT
BRANCH   7  21
HETATM   21  C   UNK N   1      35.863  12.780   6.242  0.00  0.00     0.067 C 
HETATM   22  C   UNK N   1      35.150  11.595   5.594  0.00  0.00     0.047 C 
BRANCH  21  23
HETATM   23  O   UNK N   1      36.023  12.455   7.597  0.00  0.00    -0.389 OA
HETATM   24  H   UNK N   1      36.385  13.041   8.279  0.00  0.00     0.210 HD
ENDBRANCH  21  23
BRANCH  21  25
HETATM   25  C   UNK N   1      37.281  12.986   5.630  0.00  0.00    -0.020 C 
HETATM   26  C   UNK N   1      37.557  14.462   5.375  0.00  0.00     0.017 C 
HETATM   27  C   UNK N   1      38.379  12.458   6.540  0.00  0.00     0.017 C 
HETATM   28  C   UNK N   1      37.399  12.268   4.292  0.00  0.00     0.017 C 
ENDBRANCH  21  25
ENDBRANCH   7  21
BRANCH   5  29
HETATM   29  O   UNK N   1      34.375  13.723   3.781  0.00  0.00    -0.382 OA
HETATM   30  C   UNK N   1      33.304  13.169   3.061  0.00  0.00     0.202 C 
ENDBRANCH   5  29
BRANCH   2  31
HETATM   31  C   UNK N   1      34.975  16.646   9.515  0.00  0.00     0.277 C 
BRANCH  31  32
HETATM   32  C   UNK N   1      35.022  16.412  11.018  0.00  0.00     0.014 A 
HETATM   33  C   UNK N   1      36.141  15.456  11.358  0.00  0.00     0.007 A 
HETATM   34  C   UNK N   1      34.710  14.959  11.297  0.00  0.00     0.007 A 
ENDBRANCH  31  32
ENDBRANCH   2  31
BRANCH  19  35
HETATM   35  O   UNK N   1      30.065  17.087   2.935  0.00  0.00    -0.358 OA
HETATM   36  H   UNK N   1      30.659  16.686   2.332  0.00  0.00     0.217 HD
ENDBRANCH  19  35
TORSDOF 7
ENDMDL
MODEL 5
REMARK VINA RESULT:      -6.6      1.815      2.259
REMARK  7 active torsions:
REMARK  status: ('A' for Active; 'I' for Inactive)
REMARK    1  A    between atoms: C_8  and  O_2 
REMARK    2  A    between atoms: C_18  and  O_3 
REMARK    3  A    between atoms: O_4  and  C_27 
REMARK    4  A    between atoms: N_5  and  C_22 
REMARK    5  A    between atoms: C_10  and  C_18 
REMARK    6  A    between atoms: C_18  and  C_23 
REMARK    7  A    between atoms: C_22  and  C_24 
ROOT
HETATM    1  O   UNK N   1      29.559  26.550  -3.632  0.00  0.00    -0.338 OA
HETATM    2  N   UNK N   1      25.627  24.267  -6.240  0.00  0.00     0.094 N 
HETATM    3  C   UNK N   1      28.087  24.891  -6.355  0.00  0.00     0.006 C 
HETATM    4  C   UNK N   1      28.007  25.315  -4.891  0.00  0.00     0.031 C 
HETATM    5  C   UNK N   1      30.459  24.723  -5.111  0.00  0.00     0.094 C 
HETATM    6  C   UNK N   1      29.356  25.248  -4.123  0.00  0.00     0.178 C 
HETATM    7  C   UNK N   1      29.946  23.328  -5.631  0.00  0.00     0.058 C 
HETATM    8  C   UNK N   1      28.596  23.447  -6.390  0.00  0.00     0.023 C 
HETATM    9  C   UNK N   1      26.631  25.116  -6.922  0.00  0.00     0.236 C 
HETATM   10  C   UNK N   1      29.168  25.724  -7.098  0.00  0.00     0.016 C 
HETATM   11  C   UNK N   1      30.539  25.636  -6.372  0.00  0.00     0.042 C 
HETATM   12  C   UNK N   1      26.938  24.513  -4.124  0.00  0.00     0.048 C 
HETATM   13  C   UNK N   1      27.743  26.750  -4.882  0.00  0.00    -0.003 C 
HETATM   14  C   UNK N   1      26.147  26.615  -6.800  0.00  0.00     0.076 C 
HETATM   15  C   UNK N   1      25.561  24.555  -4.799  0.00  0.00     0.274 C 
HETATM   16  C   UNK N   1      26.819  27.400  -5.683  0.00  0.00    -0.046 C 
HETATM   17  C   UNK N   1      28.630  27.392  -4.107  0.00  0.00     0.110 C 
HETATM   18  C   UNK N   1      26.711  28.795  -5.563  0.00  0.00     0.011 C 
HETATM   19  C   UNK N   1      28.558  28.779  -3.949  0.00  0.00     0.099 C 
HETATM   20  C   UNK N   1      27.559  29.483  -4.657  0.00  0.00     0.040 C 
ENDROOT
BRANCH   7  21
HETATM   21  C   UNK N   1      30.912  22.277  -6.279  0.00  0.00     0.067 C 
HETATM   22  C   UNK N   1      32.134  22.948  -6.905  0.00  0.00     0.047 C 
BRANCH  21  23
HETATM   23  O   UNK N   1      30.252  21.605  -7.319  0.00  0.00    -0.389 OA
HETATM   24  H   UNK N   1      30.581  21.507  -8.225  0.00  0.00     0.210 HD
ENDBRANCH  21  23
BRANCH  21  25
HETATM   25  C   UNK N   1      31.333  21.219  -5.217  0.00  0.00    -0.020 C 
HETATM   26  C   UNK N   1      32.773  21.435  -4.772  0.00  0.00     0.017 C 
HETATM   27  C   UNK N   1      30.450  21.267  -3.980  0.00  0.00     0.017 C 
HETATM   28  C   UNK N   1      31.247  19.812  -5.797  0.00  0.00     0.017 C 
ENDBRANCH  21  25
ENDBRANCH   7  21
BRANCH   5  29
HETATM   29  O   UNK N   1      31.701  24.554  -4.448  0.00  0.00    -0.382 OA
HETATM   30  C   UNK N   1      32.596  25.573  -4.813  0.00  0.00     0.202 C 
ENDBRANCH   5  29
BRANCH   2  31
HETATM   31  C   UNK N   1      25.801  22.823  -6.439  0.00  0.00     0.277 C 
BRANCH  31  32
HETATM   32  C   UNK N   1      25.254  22.354  -7.780  0.00  0.00     0.014 A 
HETATM   33  C   UNK N   1      25.188  20.845  -7.813  0.00  0.00     0.007 A 
HETATM   34  C   UNK N   1      26.329  21.570  -8.500  0.00  0.00     0.007 A 
ENDBRANCH  31  32
ENDBRANCH   2  31
BRANCH  19  35
HETATM   35  O   UNK N   1      29.430  29.432  -3.162  0.00  0.00    -0.358 OA
HETATM   36  H   UNK N   1      29.752  29.030  -2.380  0.00  0.00     0.217 HD
ENDBRANCH  19  35
TORSDOF 7
ENDMDL
MODEL 6
REMARK VINA RESULT:      -6.5     14.661     16.968
REMARK  7 active torsions:
REMARK  status: ('A' for Active; 'I' for Inactive)
REMARK    1  A    between atoms: C_8  and  O_2 
REMARK    2  A    between atoms: C_18  and  O_3 
REMARK    3  A    between atoms: O_4  and  C_27 
REMARK    4  A    between atoms: N_5  and  C_22 
REMARK    5  A    between atoms: C_10  and  C_18 
REMARK    6  A    between atoms: C_18  and  C_23 
REMARK    7  A    between atoms: C_22  and  C_24 
ROOT
HETATM    1  O   UNK N   1      22.217  16.576   5.551  0.00  0.00    -0.338 OA
HETATM    2  N   UNK N   1      23.197  11.968   7.848  0.00  0.00     0.094 N 
HETATM    3  C   UNK N   1      21.915  13.103   5.970  0.00  0.00     0.006 C 
HETATM    4  C   UNK N   1      22.666  14.393   6.293  0.00  0.00     0.031 C 
HETATM    5  C   UNK N   1      22.111  14.730   3.845  0.00  0.00     0.094 C 
HETATM    6  C   UNK N   1      22.799  15.379   5.099  0.00  0.00     0.178 C 
HETATM    7  C   UNK N   1      22.834  13.348   3.621  0.00  0.00     0.058 C 
HETATM    8  C   UNK N   1      22.672  12.399   4.840  0.00  0.00     0.023 C 
HETATM    9  C   UNK N   1      21.850  12.320   7.339  0.00  0.00     0.236 C 
HETATM   10  C   UNK N   1      20.514  13.427   5.384  0.00  0.00     0.016 C 
HETATM   11  C   UNK N   1      20.626  14.378   4.161  0.00  0.00     0.042 C 
HETATM   12  C   UNK N   1      24.060  14.108   6.883  0.00  0.00     0.048 C 
HETATM   13  C   UNK N   1      21.818  15.157   7.202  0.00  0.00    -0.003 C 
HETATM   14  C   UNK N   1      21.109  13.128   8.477  0.00  0.00     0.076 C 
HETATM   15  C   UNK N   1      24.015  13.165   8.093  0.00  0.00     0.274 C 
HETATM   16  C   UNK N   1      21.143  14.638   8.294  0.00  0.00    -0.046 C 
HETATM   17  C   UNK N   1      21.641  16.407   6.750  0.00  0.00     0.110 C 
HETATM   18  C   UNK N   1      20.347  15.514   9.051  0.00  0.00     0.011 C 
HETATM   19  C   UNK N   1      20.865  17.318   7.474  0.00  0.00     0.099 C 
HETATM   20  C   UNK N   1      20.242  16.873   8.661  0.00  0.00     0.040 C 
ENDROOT
BRANCH   7  21
HETATM   21  C   UNK N   1      22.767  12.589   2.252  0.00  0.00     0.067 C 
HETATM   22  C   UNK N   1      21.520  12.974   1.456  0.00  0.00     0.047 C 
BRANCH  21  23
HETATM   23  O   UNK N   1      22.681  11.208   2.480  0.00  0.00    -0.389 OA
HETATM   24  H   UNK N   1      22.734  10.774   3.346  0.00  0.00     0.210 HD
ENDBRANCH  21  23
BRANCH  21  25
HETATM   25  C   UNK N   1      24.063  12.859   1.432  0.00  0.00    -0.020 C 
HETATM   26  C   UNK N   1      25.118  13.546   2.288  0.00  0.00     0.017 C 
HETATM   27  C   UNK N   1      24.670  11.576   0.884  0.00  0.00     0.017 C 
HETATM   28  C   UNK N   1      23.771  13.778   0.252  0.00  0.00     0.017 C 
ENDBRANCH  21  25
ENDBRANCH   7  21
BRANCH   5  29
HETATM   29  O   UNK N   1      22.274  15.542   2.694  0.00  0.00    -0.382 OA
HETATM   30  C   UNK N   1      21.116  16.301   2.460  0.00  0.00     0.202 C 
ENDBRANCH   5  29
BRANCH   2  31
HETATM   31  C   UNK N   1      23.949  11.029   7.007  0.00  0.00     0.277 C 
BRANCH  31  32
HETATM   32  C   UNK N   1      23.687   9.577   7.383  0.00  0.00     0.014 A 
HETATM   33  C   UNK N   1      24.438   8.657   6.450  0.00  0.00     0.007 A 
HETATM   34  C   UNK N   1      22.956   8.901   6.244  0.00  0.00     0.007 A 
ENDBRANCH  31  32
ENDBRANCH   2  31
BRANCH  19  35
HETATM   35  O   UNK N   1      20.695  18.579   7.041  0.00  0.00    -0.358 OA
HETATM   36  H   UNK N   1      20.731  19.294   7.645  0.00  0.00     0.217 HD
ENDBRANCH  19  35
TORSDOF 7
ENDMDL
MODEL 7
REMARK VINA RESULT:      -6.4      2.476      5.789
REMARK  7 active torsions:
REMARK  status: ('A' for Active; 'I' for Inactive)
REMARK    1  A    between atoms: C_8  and  O_2 
REMARK    2  A    between atoms: C_18  and  O_3 
REMARK    3  A    between atoms: O_4  and  C_27 
REMARK    4  A    between atoms: N_5  and  C_22 
REMARK    5  A    between atoms: C_10  and  C_18 
REMARK    6  A    between atoms: C_18  and  C_23 
REMARK    7  A    between atoms: C_22  and  C_24 
ROOT
HETATM    1  O   UNK N   1      25.527  24.004  -6.542  0.00  0.00    -0.338 OA
HETATM    2  N   UNK N   1      30.540  22.725  -5.700  0.00  0.00     0.094 N 
HETATM    3  C   UNK N   1      29.000  24.291  -6.978  0.00  0.00     0.006 C 
HETATM    4  C   UNK N   1      27.830  23.737  -6.167  0.00  0.00     0.031 C 
HETATM    5  C   UNK N   1      26.980  26.046  -6.765  0.00  0.00     0.094 C 
HETATM    6  C   UNK N   1      26.627  24.709  -6.022  0.00  0.00     0.178 C 
HETATM    7  C   UNK N   1      28.312  26.570  -6.107  0.00  0.00     0.058 C 
HETATM    8  C   UNK N   1      29.484  25.565  -6.278  0.00  0.00     0.023 C 
HETATM    9  C   UNK N   1      30.043  23.109  -7.043  0.00  0.00     0.236 C 
HETATM   10  C   UNK N   1      28.512  24.754  -8.379  0.00  0.00     0.016 C 
HETATM   11  C   UNK N   1      27.335  25.761  -8.256  0.00  0.00     0.042 C 
HETATM   12  C   UNK N   1      28.280  23.262  -4.772  0.00  0.00     0.048 C 
HETATM   13  C   UNK N   1      27.239  22.665  -6.960  0.00  0.00    -0.003 C 
HETATM   14  C   UNK N   1      29.458  21.807  -7.722  0.00  0.00     0.076 C 
HETATM   15  C   UNK N   1      29.448  22.268  -4.827  0.00  0.00     0.274 C 
HETATM   16  C   UNK N   1      27.946  21.680  -7.630  0.00  0.00    -0.046 C 
HETATM   17  C   UNK N   1      25.917  22.847  -7.095  0.00  0.00     0.110 C 
HETATM   18  C   UNK N   1      27.215  20.736  -8.371  0.00  0.00     0.011 C 
HETATM   19  C   UNK N   1      25.146  21.929  -7.815  0.00  0.00     0.099 C 
HETATM   20  C   UNK N   1      25.801  20.838  -8.428  0.00  0.00     0.040 C 
ENDROOT
BRANCH   7  21
HETATM   21  C   UNK N   1      28.772  28.061  -6.238  0.00  0.00     0.067 C 
HETATM   22  C   UNK N   1      28.073  28.765  -7.401  0.00  0.00     0.047 C 
BRANCH  21  23
HETATM   23  O   UNK N   1      30.147  28.111  -6.513  0.00  0.00    -0.389 OA
HETATM   24  H   UNK N   1      30.755  27.356  -6.485  0.00  0.00     0.210 HD
ENDBRANCH  21  23
BRANCH  21  25
HETATM   25  C   UNK N   1      28.526  28.813  -4.896  0.00  0.00    -0.020 C 
HETATM   26  C   UNK N   1      29.751  29.622  -4.491  0.00  0.00     0.017 C 
HETATM   27  C   UNK N   1      27.346  29.767  -4.983  0.00  0.00     0.017 C 
HETATM   28  C   UNK N   1      28.245  27.825  -3.771  0.00  0.00     0.017 C 
ENDBRANCH  21  25
ENDBRANCH   7  21
BRANCH   5  29
HETATM   29  O   UNK N   1      25.956  27.013  -6.596  0.00  0.00    -0.382 OA
HETATM   30  C   UNK N   1      25.208  26.740  -5.439  0.00  0.00     0.202 C 
ENDBRANCH   5  29
BRANCH   2  31
HETATM   31  C   UNK N   1      31.313  23.763  -5.008  0.00  0.00     0.277 C 
BRANCH  31  32
HETATM   32  C   UNK N   1      32.666  23.255  -4.531  0.00  0.00     0.014 A 
HETATM   33  C   UNK N   1      33.710  23.480  -5.599  0.00  0.00     0.007 A 
HETATM   34  C   UNK N   1      33.097  22.105  -5.415  0.00  0.00     0.007 A 
ENDBRANCH  31  32
ENDBRANCH   2  31
BRANCH  19  35
HETATM   35  O   UNK N   1      23.818  22.091  -7.944  0.00  0.00    -0.358 OA
HETATM   36  H   UNK N   1      23.394  21.884  -8.753  0.00  0.00     0.217 HD
ENDBRANCH  19  35
TORSDOF 7
ENDMDL
MODEL 8
REMARK VINA RESULT:      -6.4      1.729      5.815
REMARK  7 active torsions:
REMARK  status: ('A' for Active; 'I' for Inactive)
REMARK    1  A    between atoms: C_8  and  O_2 
REMARK    2  A    between atoms: C_18  and  O_3 
REMARK    3  A    between atoms: O_4  and  C_27 
REMARK    4  A    between atoms: N_5  and  C_22 
REMARK    5  A    between atoms: C_10  and  C_18 
REMARK    6  A    between atoms: C_18  and  C_23 
REMARK    7  A    between atoms: C_22  and  C_24 
ROOT
HETATM    1  O   UNK N   1      31.715  25.534  -5.643  0.00  0.00    -0.338 OA
HETATM    2  N   UNK N   1      28.895  21.671  -7.787  0.00  0.00     0.094 N 
HETATM    3  C   UNK N   1      29.142  23.145  -5.732  0.00  0.00     0.006 C 
HETATM    4  C   UNK N   1      30.202  23.947  -6.485  0.00  0.00     0.031 C 
HETATM    5  C   UNK N   1      29.331  25.673  -4.849  0.00  0.00     0.094 C 
HETATM    6  C   UNK N   1      30.362  25.416  -6.006  0.00  0.00     0.178 C 
HETATM    7  C   UNK N   1      27.913  25.344  -5.451  0.00  0.00     0.058 C 
HETATM    8  C   UNK N   1      27.803  23.865  -5.915  0.00  0.00     0.023 C 
HETATM    9  C   UNK N   1      29.226  21.692  -6.342  0.00  0.00     0.236 C 
HETATM   10  C   UNK N   1      29.423  23.184  -4.205  0.00  0.00     0.016 C 
HETATM   11  C   UNK N   1      29.543  24.647  -3.695  0.00  0.00     0.042 C 
HETATM   12  C   UNK N   1      29.958  23.925  -8.006  0.00  0.00     0.048 C 
HETATM   13  C   UNK N   1      31.497  23.383  -6.117  0.00  0.00    -0.003 C 
HETATM   14  C   UNK N   1      30.651  21.033  -6.173  0.00  0.00     0.076 C 
HETATM   15  C   UNK N   1      29.822  22.503  -8.568  0.00  0.00     0.274 C 
HETATM   16  C   UNK N   1      31.791  22.031  -6.047  0.00  0.00    -0.046 C 
HETATM   17  C   UNK N   1      32.330  24.344  -5.693  0.00  0.00     0.110 C 
HETATM   18  C   UNK N   1      33.087  21.662  -5.649  0.00  0.00     0.011 C 
HETATM   19  C   UNK N   1      33.633  24.026  -5.296  0.00  0.00     0.099 C 
HETATM   20  C   UNK N   1      34.026  22.669  -5.312  0.00  0.00     0.040 C 
ENDROOT
BRANCH   7  21
HETATM   21  C   UNK N   1      26.591  25.871  -4.796  0.00  0.00     0.067 C 
HETATM   22  C   UNK N   1      26.769  26.130  -3.301  0.00  0.00     0.047 C 
BRANCH  21  23
HETATM   23  O   UNK N   1      25.585  24.901  -4.914  0.00  0.00    -0.389 OA
HETATM   24  H   UNK N   1      24.633  25.061  -4.824  0.00  0.00     0.210 HD
ENDBRANCH  21  23
BRANCH  21  25
HETATM   25  C   UNK N   1      26.107  27.153  -5.536  0.00  0.00    -0.020 C 
HETATM   26  C   UNK N   1      26.326  28.393  -4.679  0.00  0.00     0.017 C 
HETATM   27  C   UNK N   1      26.836  27.362  -6.854  0.00  0.00     0.017 C 
HETATM   28  C   UNK N   1      24.615  27.070  -5.836  0.00  0.00     0.017 C 
ENDBRANCH  21  25
ENDBRANCH   7  21
BRANCH   5  29
HETATM   29  O   UNK N   1      29.363  27.025  -4.425  0.00  0.00    -0.382 OA
HETATM   30  C   UNK N   1      30.280  27.189  -3.374  0.00  0.00     0.202 C 
ENDBRANCH   5  29
BRANCH   2  31
HETATM   31  C   UNK N   1      27.513  22.048  -8.110  0.00  0.00     0.277 C 
BRANCH  31  32
HETATM   32  C   UNK N   1      26.587  20.843  -8.183  0.00  0.00     0.014 A 
HETATM   33  C   UNK N   1      25.547  21.054  -9.258  0.00  0.00     0.007 A 
HETATM   34  C   UNK N   1      25.189  21.277  -7.801  0.00  0.00     0.007 A 
ENDBRANCH  31  32
ENDBRANCH   2  31
BRANCH  19  35
HETATM   35  O   UNK N   1      34.484  24.982  -4.886  0.00  0.00    -0.358 OA
HETATM   36  H   UNK N   1      35.400  24.800  -4.818  0.00  0.00     0.217 HD
ENDBRANCH  19  35
TORSDOF 7
ENDMDL
MODEL 9
REMARK VINA RESULT:      -6.4     13.162     17.303
REMARK  7 active torsions:
REMARK  status: ('A' for Active; 'I' for Inactive)
REMARK    1  A    between atoms: C_8  and  O_2 
REMARK    2  A    between atoms: C_18  and  O_3 
REMARK    3  A    between atoms: O_4  and  C_27 
REMARK    4  A    between atoms: N_5  and  C_22 
REMARK    5  A    between atoms: C_10  and  C_18 
REMARK    6  A    between atoms: C_18  and  C_23 
REMARK    7  A    between atoms: C_22  and  C_24 
ROOT
HETATM    1  O   UNK N   1      35.166  16.258   9.019  0.00  0.00    -0.338 OA
HETATM    2  N   UNK N   1      35.169  12.499   5.367  0.00  0.00     0.094 N 
HETATM    3  C   UNK N   1      33.740  13.685   7.100  0.00  0.00     0.006 C 
HETATM    4  C   UNK N   1      34.884  14.676   7.305  0.00  0.00     0.031 C 
HETATM    5  C   UNK N   1      32.880  16.070   7.983  0.00  0.00     0.094 C 
HETATM    6  C   UNK N   1      34.443  16.072   7.827  0.00  0.00     0.178 C 
HETATM    7  C   UNK N   1      32.304  15.703   6.563  0.00  0.00     0.058 C 
HETATM    8  C   UNK N   1      32.772  14.301   6.086  0.00  0.00     0.023 C 
HETATM    9  C   UNK N   1      34.442  12.345   6.649  0.00  0.00     0.236 C 
HETATM   10  C   UNK N   1      32.919  13.533   8.410  0.00  0.00     0.016 C 
HETATM   11  C   UNK N   1      32.430  14.914   8.927  0.00  0.00     0.042 C 
HETATM   12  C   UNK N   1      35.725  14.847   6.026  0.00  0.00     0.048 C 
HETATM   13  C   UNK N   1      35.670  14.184   8.432  0.00  0.00    -0.003 C 
HETATM   14  C   UNK N   1      35.472  11.799   7.715  0.00  0.00     0.076 C 
HETATM   15  C   UNK N   1      36.231  13.513   5.462  0.00  0.00     0.274 C 
HETATM   16  C   UNK N   1      36.056  12.868   8.626  0.00  0.00    -0.046 C 
HETATM   17  C   UNK N   1      35.839  15.147   9.350  0.00  0.00     0.110 C 
HETATM   18  C   UNK N   1      36.792  12.564   9.783  0.00  0.00     0.011 C 
HETATM   19  C   UNK N   1      36.572  14.894  10.514  0.00  0.00     0.099 C 
HETATM   20  C   UNK N   1      37.088  13.594  10.712  0.00  0.00     0.040 C 
ENDROOT
BRANCH   7  21
HETATM   21  C   UNK N   1      30.821  16.012   6.164  0.00  0.00     0.067 C 
HETATM   22  C   UNK N   1      30.086  16.767   7.272  0.00  0.00     0.047 C 
BRANCH  21  23
HETATM   23  O   UNK N   1      30.122  14.811   5.973  0.00  0.00    -0.389 OA
HETATM   24  H   UNK N   1      29.160  14.725   5.889  0.00  0.00     0.210 HD
ENDBRANCH  21  23
BRANCH  21  25
HETATM   25  C   UNK N   1      30.785  16.804   4.824  0.00  0.00    -0.020 C 
HETATM   26  C   UNK N   1      32.106  17.523   4.579  0.00  0.00     0.017 C 
HETATM   27  C   UNK N   1      30.520  15.898   3.631  0.00  0.00     0.017 C 
HETATM   28  C   UNK N   1      29.693  17.866   4.855  0.00  0.00     0.017 C 
ENDBRANCH  21  25
ENDBRANCH   7  21
BRANCH   5  29
HETATM   29  O   UNK N   1      32.402  17.346   8.373  0.00  0.00    -0.382 OA
HETATM   30  C   UNK N   1      33.299  18.350   7.973  0.00  0.00     0.202 C 
ENDBRANCH   5  29
BRANCH   2  31
HETATM   31  C   UNK N   1      34.320  12.792   4.206  0.00  0.00     0.277 C 
BRANCH  31  32
HETATM   32  C   UNK N   1      35.041  13.625   3.156  0.00  0.00     0.014 A 
HETATM   33  C   UNK N   1      34.113  14.684   2.609  0.00  0.00     0.007 A 
HETATM   34  C   UNK N   1      34.367  13.416   1.818  0.00  0.00     0.007 A 
ENDBRANCH  31  32
ENDBRANCH   2  31
BRANCH  19  35
HETATM   35  O   UNK N   1      36.763  15.855  11.434  0.00  0.00    -0.358 OA
HETATM   36  H   UNK N   1      36.148  16.557  11.517  0.00  0.00     0.217 HD
ENDBRANCH  19  35
TORSDOF 7
ENDMDL
