MODEL 1
REMARK VINA RESULT:      -7.0      0.000      0.000
REMARK  1 active torsions:
REMARK  status: ('A' for Active; 'I' for Inactive)
REMARK    1  A    between atoms: O_3  and  C_20 
ROOT
HETATM    1  O   UNK N   1      31.976  16.795   7.734  0.00  0.00    -0.334 OA
HETATM    2  O   UNK N   1      34.497  17.489   6.561  0.00  0.00    -0.295 OA
HETATM    3  N   UNK N   1      29.313  14.886   3.738  0.00  0.00     0.089 N 
HETATM    4  C   UNK N   1      31.218  16.045   5.641  0.00  0.00     0.031 C 
HETATM    5  C   UNK N   1      31.292  16.382   4.154  0.00  0.00     0.036 C 
HETATM    6  C   UNK N   1      29.819  16.270   3.606  0.00  0.00     0.232 C 
HETATM    7  C   UNK N   1      32.483  16.254   6.543  0.00  0.00     0.212 C 
HETATM    8  C   UNK N   1      30.696  14.604   5.803  0.00  0.00     0.048 C 
HETATM    9  C   UNK N   1      30.286  16.958   6.318  0.00  0.00    -0.003 A 
HETATM   10  C   UNK N   1      31.890  17.774   3.983  0.00  0.00     0.015 C 
HETATM   11  C   UNK N   1      28.807  17.226   4.326  0.00  0.00     0.075 C 
HETATM   12  C   UNK N   1      29.338  14.392   5.122  0.00  0.00     0.273 C 
HETATM   13  C   UNK N   1      29.109  17.457   5.790  0.00  0.00    -0.046 A 
HETATM   14  C   UNK N   1      33.307  17.844   4.561  0.00  0.00     0.081 C 
HETATM   15  C   UNK N   1      33.482  17.227   5.936  0.00  0.00     0.157 C 
HETATM   16  C   UNK N   1      30.742  17.273   7.541  0.00  0.00     0.110 A 
HETATM   17  C   UNK N   1      30.033  13.956   2.873  0.00  0.00     0.310 C 
HETATM   18  C   UNK N   1      28.311  18.270   6.615  0.00  0.00     0.011 A 
HETATM   19  C   UNK N   1      29.973  18.058   8.405  0.00  0.00     0.099 A 
HETATM   20  C   UNK N   1      28.731  18.542   7.941  0.00  0.00     0.040 A 
ENDROOT
BRANCH  19  21
HETATM   21  O   UNK N   1      30.411  18.359   9.638  0.00  0.00    -0.358 OA
HETATM   22  H   UNK N   1      30.980  19.088   9.790  0.00  0.00     0.217 HD
ENDBRANCH  19  21
TORSDOF 1
ENDMDL
MODEL 2
REMARK VINA RESULT:      -6.8     13.343     14.606
REMARK  1 active torsions:
REMARK  status: ('A' for Active; 'I' for Inactive)
REMARK    1  A    between atoms: O_3  and  C_20 
ROOT
HETATM    1  O   UNK N   1      26.117  25.168  -3.327  0.00  0.00    -0.334 OA
HETATM    2  O   UNK N   1      27.932  23.508  -1.855  0.00  0.00    -0.295 OA
HETATM    3  N   UNK N   1      27.192  24.002  -8.245  0.00  0.00     0.089 N 
HETATM    4  C   UNK N   1      26.975  24.308  -5.337  0.00  0.00     0.031 C 
HETATM    5  C   UNK N   1      28.284  23.864  -5.983  0.00  0.00     0.036 C 
HETATM    6  C   UNK N   1      28.307  24.513  -7.418  0.00  0.00     0.232 C 
HETATM    7  C   UNK N   1      26.719  24.001  -3.822  0.00  0.00     0.212 C 
HETATM    8  C   UNK N   1      25.796  23.783  -6.180  0.00  0.00     0.048 C 
HETATM    9  C   UNK N   1      26.905  25.776  -5.301  0.00  0.00    -0.003 A 
HETATM   10  C   UNK N   1      29.452  24.305  -5.107  0.00  0.00     0.015 C 
HETATM   11  C   UNK N   1      28.219  26.078  -7.400  0.00  0.00     0.075 C 
HETATM   12  C   UNK N   1      25.872  24.239  -7.643  0.00  0.00     0.273 C 
HETATM   13  C   UNK N   1      27.379  26.638  -6.274  0.00  0.00    -0.046 A 
HETATM   14  C   UNK N   1      29.367  23.676  -3.713  0.00  0.00     0.081 C 
HETATM   15  C   UNK N   1      28.003  23.734  -3.052  0.00  0.00     0.157 C 
HETATM   16  C   UNK N   1      26.325  26.191  -4.163  0.00  0.00     0.110 A 
HETATM   17  C   UNK N   1      27.343  22.583  -8.549  0.00  0.00     0.310 C 
HETATM   18  C   UNK N   1      27.163  28.015  -6.094  0.00  0.00     0.011 A 
HETATM   19  C   UNK N   1      26.069  27.549  -3.951  0.00  0.00     0.099 A 
HETATM   20  C   UNK N   1      26.474  28.469  -4.942  0.00  0.00     0.040 A 
ENDROOT
BRANCH  19  21
HETATM   21  O   UNK N   1      25.468  27.970  -2.826  0.00  0.00    -0.358 OA
HETATM   22  H   UNK N   1      25.928  28.003  -2.010  0.00  0.00     0.217 HD
ENDBRANCH  19  21
TORSDOF 1
ENDMDL
MODEL 3
REMARK VINA RESULT:      -6.7      1.852      4.369
REMARK  1 active torsions:
REMARK  status: ('A' for Active; 'I' for Inactive)
REMARK    1  A    between atoms: O_3  and  C_20 
ROOT
HETATM    1  O   UNK N   1      34.679  17.141   6.055  0.00  0.00    -0.334 OA
HETATM    2  O   UNK N   1      34.221  18.707   8.412  0.00  0.00    -0.295 OA
HETATM    3  N   UNK N   1      29.902  16.252   4.295  0.00  0.00     0.089 N 
HETATM    4  C   UNK N   1      32.361  17.023   5.693  0.00  0.00     0.031 C 
HETATM    5  C   UNK N   1      31.041  16.885   6.447  0.00  0.00     0.036 C 
HETATM    6  C   UNK N   1      30.205  15.798   5.670  0.00  0.00     0.232 C 
HETATM    7  C   UNK N   1      33.516  17.883   6.312  0.00  0.00     0.212 C 
HETATM    8  C   UNK N   1      32.071  17.499   4.257  0.00  0.00     0.048 C 
HETATM    9  C   UNK N   1      33.040  15.721   5.625  0.00  0.00    -0.003 A 
HETATM   10  C   UNK N   1      31.327  16.498   7.894  0.00  0.00     0.015 C 
HETATM   11  C   UNK N   1      30.919  14.407   5.574  0.00  0.00     0.075 C 
HETATM   12  C   UNK N   1      31.106  16.566   3.513  0.00  0.00     0.273 C 
HETATM   13  C   UNK N   1      32.426  14.490   5.474  0.00  0.00    -0.046 A 
HETATM   14  C   UNK N   1      32.170  17.567   8.597  0.00  0.00     0.081 C 
HETATM   15  C   UNK N   1      33.366  18.074   7.814  0.00  0.00     0.157 C 
HETATM   16  C   UNK N   1      34.368  15.876   5.752  0.00  0.00     0.110 A 
HETATM   17  C   UNK N   1      28.999  17.399   4.284  0.00  0.00     0.310 C 
HETATM   18  C   UNK N   1      33.249  13.355   5.363  0.00  0.00     0.011 A 
HETATM   19  C   UNK N   1      35.226  14.780   5.625  0.00  0.00     0.099 A 
HETATM   20  C   UNK N   1      34.657  13.507   5.405  0.00  0.00     0.040 A 
ENDROOT
BRANCH  19  21
HETATM   21  O   UNK N   1      36.557  14.930   5.727  0.00  0.00    -0.358 OA
HETATM   22  H   UNK N   1      37.072  15.223   5.001  0.00  0.00     0.217 HD
ENDBRANCH  19  21
TORSDOF 1
ENDMDL
MODEL 4
REMARK VINA RESULT:      -6.6     13.901     15.514
REMARK  1 active torsions:
REMARK  status: ('A' for Active; 'I' for Inactive)
REMARK    1  A    between atoms: O_3  and  C_20 
ROOT
HETATM    1  O   UNK N   1      26.862  24.830  -4.186  0.00  0.00    -0.334 OA
HETATM    2  O   UNK N   1      25.285  24.629  -6.571  0.00  0.00    -0.295 OA
HETATM    3  N   UNK N   1      27.630  29.918  -3.717  0.00  0.00     0.089 N 
HETATM    4  C   UNK N   1      26.921  27.165  -4.432  0.00  0.00     0.031 C 
HETATM    5  C   UNK N   1      27.026  28.250  -5.500  0.00  0.00     0.036 C 
HETATM    6  C   UNK N   1      28.091  29.283  -4.971  0.00  0.00     0.232 C 
HETATM    7  C   UNK N   1      26.091  25.869  -4.728  0.00  0.00     0.212 C 
HETATM    8  C   UNK N   1      26.438  27.803  -3.115  0.00  0.00     0.048 C 
HETATM    9  C   UNK N   1      28.240  26.558  -4.200  0.00  0.00    -0.003 A 
HETATM   10  C   UNK N   1      27.419  27.612  -6.828  0.00  0.00     0.015 C 
HETATM   11  C   UNK N   1      29.500  28.652  -4.704  0.00  0.00     0.075 C 
HETATM   12  C   UNK N   1      27.347  28.948  -2.649  0.00  0.00     0.273 C 
HETATM   13  C   UNK N   1      29.455  27.220  -4.220  0.00  0.00    -0.046 A 
HETATM   14  C   UNK N   1      26.372  26.591  -7.284  0.00  0.00     0.081 C 
HETATM   15  C   UNK N   1      25.896  25.625  -6.217  0.00  0.00     0.157 C 
HETATM   16  C   UNK N   1      28.118  25.239  -3.981  0.00  0.00     0.110 A 
HETATM   17  C   UNK N   1      26.461  30.765  -3.930  0.00  0.00     0.310 C 
HETATM   18  C   UNK N   1      30.610  26.481  -3.910  0.00  0.00     0.011 A 
HETATM   19  C   UNK N   1      29.236  24.469  -3.646  0.00  0.00     0.099 A 
HETATM   20  C   UNK N   1      30.494  25.106  -3.588  0.00  0.00     0.040 A 
ENDROOT
BRANCH  19  21
HETATM   21  O   UNK N   1      29.120  23.153  -3.402  0.00  0.00    -0.358 OA
HETATM   22  H   UNK N   1      28.681  22.582  -4.003  0.00  0.00     0.217 HD
ENDBRANCH  19  21
TORSDOF 1
ENDMDL
MODEL 5
REMARK VINA RESULT:      -6.6      2.094      4.202
REMARK  1 active torsions:
REMARK  status: ('A' for Active; 'I' for Inactive)
REMARK    1  A    between atoms: O_3  and  C_20 
ROOT
HETATM    1  O   UNK N   1      32.554  17.175   9.221  0.00  0.00    -0.334 OA
HETATM    2  O   UNK N   1      30.134  18.698   9.429  0.00  0.00    -0.295 OA
HETATM    3  N   UNK N   1      32.822  16.092   4.175  0.00  0.00     0.089 N 
HETATM    4  C   UNK N   1      32.208  16.958   6.908  0.00  0.00     0.031 C 
HETATM    5  C   UNK N   1      31.097  16.755   5.881  0.00  0.00     0.036 C 
HETATM    6  C   UNK N   1      31.611  15.640   4.894  0.00  0.00     0.232 C 
HETATM    7  C   UNK N   1      31.944  17.863   8.160  0.00  0.00     0.212 C 
HETATM    8  C   UNK N   1      33.481  17.434   6.181  0.00  0.00     0.048 C 
HETATM    9  C   UNK N   1      32.504  15.688   7.586  0.00  0.00    -0.003 A 
HETATM   10  C   UNK N   1      29.810  16.369   6.602  0.00  0.00     0.015 C 
HETATM   11  C   UNK N   1      31.946  14.282   5.601  0.00  0.00     0.075 C 
HETATM   12  C   UNK N   1      33.922  16.466   5.076  0.00  0.00     0.273 C 
HETATM   13  C   UNK N   1      32.491  14.433   7.004  0.00  0.00    -0.046 A 
HETATM   14  C   UNK N   1      29.369  17.468   7.575  0.00  0.00     0.081 C 
HETATM   15  C   UNK N   1      30.463  18.034   8.459  0.00  0.00     0.157 C 
HETATM   16  C   UNK N   1      32.777  15.901   8.883  0.00  0.00     0.110 A 
HETATM   17  C   UNK N   1      32.538  17.198   3.266  0.00  0.00     0.310 C 
HETATM   18  C   UNK N   1      32.867  13.336   7.800  0.00  0.00     0.011 A 
HETATM   19  C   UNK N   1      33.178  14.845   9.707  0.00  0.00     0.099 A 
HETATM   20  C   UNK N   1      33.245  13.550   9.148  0.00  0.00     0.040 A 
ENDROOT
BRANCH  19  21
HETATM   21  O   UNK N   1      33.476  15.052  11.000  0.00  0.00    -0.358 OA
HETATM   22  H   UNK N   1      34.214  14.639  11.403  0.00  0.00     0.217 HD
ENDBRANCH  19  21
TORSDOF 1
ENDMDL
MODEL 6
REMARK VINA RESULT:      -6.6      1.727      2.249
REMARK  1 active torsions:
REMARK  status: ('A' for Active; 'I' for Inactive)
REMARK    1  A    between atoms: O_3  and  C_20 
ROOT
HETATM    1  O   UNK N   1      31.927  16.176   9.436  0.00  0.00    -0.334 OA
HETATM    2  O   UNK N   1      34.589  17.148   9.866  0.00  0.00    -0.295 OA
HETATM    3  N   UNK N   1      31.899  15.034   4.397  0.00  0.00     0.089 N 
HETATM    4  C   UNK N   1      32.426  15.838   7.166  0.00  0.00     0.031 C 
HETATM    5  C   UNK N   1      33.197  16.464   6.008  0.00  0.00     0.036 C 
HETATM    6  C   UNK N   1      32.228  16.428   4.766  0.00  0.00     0.232 C 
HETATM    7  C   UNK N   1      33.027  15.894   8.612  0.00  0.00     0.212 C 
HETATM    8  C   UNK N   1      32.074  14.381   6.805  0.00  0.00     0.048 C 
HETATM    9  C   UNK N   1      31.176  16.577   7.396  0.00  0.00    -0.003 A 
HETATM   10  C   UNK N   1      33.624  17.876   6.393  0.00  0.00     0.015 C 
HETATM   11  C   UNK N   1      30.883  17.199   4.997  0.00  0.00     0.075 C 
HETATM   12  C   UNK N   1      31.283  14.276   5.495  0.00  0.00     0.273 C 
HETATM   13  C   UNK N   1      30.374  17.143   6.420  0.00  0.00    -0.046 A 
HETATM   14  C   UNK N   1      34.536  17.863   7.625  0.00  0.00     0.081 C 
HETATM   15  C   UNK N   1      34.068  16.991   8.774  0.00  0.00     0.157 C 
HETATM   16  C   UNK N   1      30.910  16.654   8.710  0.00  0.00     0.110 A 
HETATM   17  C   UNK N   1      33.063  14.311   3.897  0.00  0.00     0.310 C 
HETATM   18  C   UNK N   1      29.177  17.757   6.829  0.00  0.00     0.011 A 
HETATM   19  C   UNK N   1      29.721  17.234   9.161  0.00  0.00     0.099 A 
HETATM   20  C   UNK N   1      28.834  17.771   8.203  0.00  0.00     0.040 A 
ENDROOT
BRANCH  19  21
HETATM   21  O   UNK N   1      29.437  17.295  10.472  0.00  0.00    -0.358 OA
HETATM   22  H   UNK N   1      28.702  17.782  10.790  0.00  0.00     0.217 HD
ENDBRANCH  19  21
TORSDOF 1
ENDMDL
MODEL 7
REMARK VINA RESULT:      -6.5      8.567     10.612
REMARK  1 active torsions:
REMARK  status: ('A' for Active; 'I' for Inactive)
REMARK    1  A    between atoms: O_3  and  C_20 
ROOT
HETATM    1  O   UNK N   1      19.011  16.722   3.895  0.00  0.00    -0.334 OA
HETATM    2  O   UNK N   1      18.025  16.005   6.489  0.00  0.00    -0.295 OA
HETATM    3  N   UNK N   1      24.101  15.942   4.324  0.00  0.00     0.089 N 
HETATM    4  C   UNK N   1      21.197  16.226   4.599  0.00  0.00     0.031 C 
HETATM    5  C   UNK N   1      22.114  16.339   5.814  0.00  0.00     0.036 C 
HETATM    6  C   UNK N   1      23.487  16.894   5.275  0.00  0.00     0.232 C 
HETATM    7  C   UNK N   1      19.680  15.891   4.807  0.00  0.00     0.212 C 
HETATM    8  C   UNK N   1      21.816  15.236   3.594  0.00  0.00     0.048 C 
HETATM    9  C   UNK N   1      21.067  17.536   3.944  0.00  0.00    -0.003 A 
HETATM   10  C   UNK N   1      21.466  17.250   6.850  0.00  0.00     0.015 C 
HETATM   11  C   UNK N   1      23.366  18.283   4.560  0.00  0.00     0.075 C 
HETATM   12  C   UNK N   1      23.237  15.635   3.176  0.00  0.00     0.273 C 
HETATM   13  C   UNK N   1      22.066  18.484   3.814  0.00  0.00    -0.046 A 
HETATM   14  C   UNK N   1      20.119  16.688   7.317  0.00  0.00     0.081 C 
HETATM   15  C   UNK N   1      19.198  16.201   6.216  0.00  0.00     0.157 C 
HETATM   16  C   UNK N   1      19.815  17.712   3.491  0.00  0.00     0.110 A 
HETATM   17  C   UNK N   1      24.507  14.701   4.976  0.00  0.00     0.310 C 
HETATM   18  C   UNK N   1      21.771  19.655   3.095  0.00  0.00     0.011 A 
HETATM   19  C   UNK N   1      19.481  18.850   2.751  0.00  0.00     0.099 A 
HETATM   20  C   UNK N   1      20.481  19.822   2.532  0.00  0.00     0.040 A 
ENDROOT
BRANCH  19  21
HETATM   21  O   UNK N   1      18.238  19.023   2.274  0.00  0.00    -0.358 OA
HETATM   22  H   UNK N   1      17.603  19.533   2.739  0.00  0.00     0.217 HD
ENDBRANCH  19  21
TORSDOF 1
ENDMDL
MODEL 8
REMARK VINA RESULT:      -6.4      8.042      9.522
REMARK  1 active torsions:
REMARK  status: ('A' for Active; 'I' for Inactive)
REMARK    1  A    between atoms: O_3  and  C_20 
ROOT
HETATM    1  O   UNK N   1      21.113  12.618   9.599  0.00  0.00    -0.334 OA
HETATM    2  O   UNK N   1      22.822  11.737  11.725  0.00  0.00    -0.295 OA
HETATM    3  N   UNK N   1      24.191  12.394   5.455  0.00  0.00     0.089 N 
HETATM    4  C   UNK N   1      22.882  12.350   8.078  0.00  0.00     0.031 C 
HETATM    5  C   UNK N   1      24.392  12.536   7.958  0.00  0.00     0.036 C 
HETATM    6  C   UNK N   1      24.638  13.250   6.576  0.00  0.00     0.232 C 
HETATM    7  C   UNK N   1      22.271  11.845   9.429  0.00  0.00     0.212 C 
HETATM    8  C   UNK N   1      22.393  11.457   6.920  0.00  0.00     0.048 C 
HETATM    9  C   UNK N   1      22.206  13.652   7.979  0.00  0.00    -0.003 A 
HETATM   10  C   UNK N   1      24.895  13.346   9.148  0.00  0.00     0.015 C 
HETATM   11  C   UNK N   1      23.913  14.634   6.447  0.00  0.00     0.075 C 
HETATM   12  C   UNK N   1      22.773  12.020   5.544  0.00  0.00     0.273 C 
HETATM   13  C   UNK N   1      22.586  14.707   7.169  0.00  0.00    -0.046 A 
HETATM   14  C   UNK N   1      24.603  12.628  10.470  0.00  0.00     0.081 C 
HETATM   15  C   UNK N   1      23.201  12.068  10.613  0.00  0.00     0.157 C 
HETATM   16  C   UNK N   1      21.154  13.699   8.813  0.00  0.00     0.110 A 
HETATM   17  C   UNK N   1      25.008  11.192   5.327  0.00  0.00     0.310 C 
HETATM   18  C   UNK N   1      21.775  15.855   7.162  0.00  0.00     0.011 A 
HETATM   19  C   UNK N   1      20.306  14.810   8.823  0.00  0.00     0.099 A 
HETATM   20  C   UNK N   1      20.610  15.892   7.968  0.00  0.00     0.040 A 
ENDROOT
BRANCH  19  21
HETATM   21  O   UNK N   1      19.239  14.856   9.637  0.00  0.00    -0.358 OA
HETATM   22  H   UNK N   1      18.372  14.976   9.300  0.00  0.00     0.217 HD
ENDBRANCH  19  21
TORSDOF 1
ENDMDL
MODEL 9
REMARK VINA RESULT:      -6.4      2.996      4.804
REMARK  1 active torsions:
REMARK  status: ('A' for Active; 'I' for Inactive)
REMARK    1  A    between atoms: O_3  and  C_20 
ROOT
HETATM    1  O   UNK N   1      34.176  17.632   5.970  0.00  0.00    -0.334 OA
HETATM    2  O   UNK N   1      31.833  17.984   4.356  0.00  0.00    -0.295 OA
HETATM    3  N   UNK N   1      34.499  12.498   6.457  0.00  0.00     0.089 N 
HETATM    4  C   UNK N   1      33.869  15.305   5.892  0.00  0.00     0.031 C 
HETATM    5  C   UNK N   1      32.772  14.244   5.912  0.00  0.00     0.036 C 
HETATM    6  C   UNK N   1      33.251  13.139   6.927  0.00  0.00     0.232 C 
HETATM    7  C   UNK N   1      33.625  16.652   5.130  0.00  0.00     0.212 C 
HETATM    8  C   UNK N   1      35.181  14.661   5.401  0.00  0.00     0.048 C 
HETATM    9  C   UNK N   1      34.086  15.830   7.247  0.00  0.00    -0.003 A 
HETATM   10  C   UNK N   1      31.452  14.893   6.312  0.00  0.00     0.015 C 
HETATM   11  C   UNK N   1      33.501  13.682   8.375  0.00  0.00     0.075 C 
HETATM   12  C   UNK N   1      35.596  13.454   6.253  0.00  0.00     0.273 C 
HETATM   13  C   UNK N   1      34.022  15.102   8.422  0.00  0.00    -0.046 A 
HETATM   14  C   UNK N   1      31.046  15.984   5.315  0.00  0.00     0.081 C 
HETATM   15  C   UNK N   1      32.148  16.947   4.917  0.00  0.00     0.157 C 
HETATM   16  C   UNK N   1      34.341  17.148   7.206  0.00  0.00     0.110 A 
HETATM   17  C   UNK N   1      34.291  11.724   5.238  0.00  0.00     0.310 C 
HETATM   18  C   UNK N   1      34.324  15.766   9.624  0.00  0.00     0.011 A 
HETATM   19  C   UNK N   1      34.670  17.844   8.372  0.00  0.00     0.099 A 
HETATM   20  C   UNK N   1      34.683  17.136   9.593  0.00  0.00     0.040 A 
ENDROOT
BRANCH  19  21
HETATM   21  O   UNK N   1      34.949  19.158   8.336  0.00  0.00    -0.358 OA
HETATM   22  H   UNK N   1      34.296  19.801   8.530  0.00  0.00     0.217 HD
ENDBRANCH  19  21
TORSDOF 1
ENDMDL
