MODEL 1
REMARK VINA RESULT:      -7.1      0.000      0.000
REMARK  5 active torsions:
REMARK  status: ('A' for Active; 'I' for Inactive)
REMARK    1  A    between atoms: C_9  and  O_1 
REMARK    2  A    between atoms: O_1  and  C_22 
REMARK    3  A    between atoms: C_22  and  C_23 
REMARK    4  A    between atoms: C_23  and  C_24 
REMARK    5  A    between atoms: C_24  and  C_25 
ROOT
HETATM    1  O   UNK N   1      26.572  30.608  -3.411  0.00  0.00    -0.293 OA
HETATM    2  C   UNK N   1      27.875  24.407  -7.533  0.00  0.00     0.001 C 
HETATM    3  C   UNK N   1      26.662  23.478  -7.490  0.00  0.00    -0.013 C 
HETATM    4  C   UNK N   1      27.446  25.861  -7.305  0.00  0.00    -0.005 C 
HETATM    5  C   UNK N   1      26.696  26.013  -5.940  0.00  0.00    -0.002 C 
HETATM    6  C   UNK N   1      26.070  23.511  -6.079  0.00  0.00     0.012 C 
HETATM    7  C   UNK N   1      27.248  22.169  -8.006  0.00  0.00     0.140 C 
HETATM    8  C   UNK N   1      28.491  24.113  -8.891  0.00  0.00     0.008 C 
HETATM    9  C   UNK N   1      25.582  24.948  -5.783  0.00  0.00     0.006 C 
HETATM   10  C   UNK N   1      26.094  27.440  -5.922  0.00  0.00     0.019 C 
HETATM   11  C   UNK N   1      28.142  22.644  -9.169  0.00  0.00     0.034 C 
HETATM   12  C   UNK N   1      28.631  26.839  -7.361  0.00  0.00     0.010 C 
HETATM   13  C   UNK N   1      25.552  23.866  -8.486  0.00  0.00     0.018 C 
HETATM   14  C   UNK N   1      28.122  28.285  -7.300  0.00  0.00     0.035 C 
HETATM   15  C   UNK N   1      27.226  28.449  -6.110  0.00  0.00    -0.072 C 
HETATM   16  C   UNK N   1      25.179  27.736  -4.712  0.00  0.00     0.017 C 
HETATM   17  C   UNK N   1      25.925  28.338  -3.535  0.00  0.00     0.084 C 
HETATM   18  C   UNK N   1      27.449  29.450  -5.245  0.00  0.00     0.053 C 
HETATM   19  C   UNK N   1      26.644  29.554  -4.021  0.00  0.00     0.149 C 
ENDROOT
BRANCH   7  20
HETATM   20  O   UNK N   1      28.034  21.531  -7.065  0.00  0.00    -0.315 OA
BRANCH  20  21
HETATM   21  C   UNK N   1      29.112  20.773  -7.404  0.00  0.00     0.259 C 
HETATM   22  O   UNK N   1      28.945  19.768  -8.079  0.00  0.00    -0.265 OA
BRANCH  21  23
HETATM   23  C   UNK N   1      30.513  21.125  -6.965  0.00  0.00     0.116 C 
BRANCH  23  24
HETATM   24  C   UNK N   1      30.611  21.320  -5.453  0.00  0.00     0.048 C 
BRANCH  24  25
HETATM   25  C   UNK N   1      30.368  22.742  -5.071  0.00  0.00    -0.058 A 
HETATM   26  C   UNK N   1      31.182  23.747  -5.603  0.00  0.00     0.007 A 
HETATM   27  C   UNK N   1      30.981  25.079  -5.231  0.00  0.00     0.001 A 
HETATM   28  C   UNK N   1      29.966  25.405  -4.327  0.00  0.00     0.000 A 
HETATM   29  C   UNK N   1      29.149  24.402  -3.798  0.00  0.00     0.001 A 
HETATM   30  C   UNK N   1      29.349  23.070  -4.169  0.00  0.00     0.007 A 
ENDBRANCH  24  25
ENDBRANCH  23  24
ENDBRANCH  21  23
ENDBRANCH  20  21
ENDBRANCH   7  20
TORSDOF 5
ENDMDL
MODEL 2
REMARK VINA RESULT:      -6.9     19.279     22.138
REMARK  5 active torsions:
REMARK  status: ('A' for Active; 'I' for Inactive)
REMARK    1  A    between atoms: C_9  and  O_1 
REMARK    2  A    between atoms: O_1  and  C_22 
REMARK    3  A    between atoms: C_22  and  C_23 
REMARK    4  A    between atoms: C_23  and  C_24 
REMARK    5  A    between atoms: C_24  and  C_25 
ROOT
HETATM    1  O   UNK N   1      32.676  16.574   3.316  0.00  0.00    -0.293 OA
HETATM    2  C   UNK N   1      35.003  15.170  10.370  0.00  0.00     0.001 C 
HETATM    3  C   UNK N   1      35.983  13.997  10.381  0.00  0.00    -0.013 C 
HETATM    4  C   UNK N   1      35.030  15.879   9.011  0.00  0.00    -0.005 C 
HETATM    5  C   UNK N   1      34.693  14.882   7.854  0.00  0.00    -0.002 C 
HETATM    6  C   UNK N   1      35.508  12.954   9.367  0.00  0.00     0.012 C 
HETATM    7  C   UNK N   1      36.010  13.621  11.857  0.00  0.00     0.140 C 
HETATM    8  C   UNK N   1      35.452  16.010  11.554  0.00  0.00     0.008 C 
HETATM    9  C   UNK N   1      35.538  13.588   7.957  0.00  0.00     0.006 C 
HETATM   10  C   UNK N   1      34.989  15.625   6.528  0.00  0.00     0.019 C 
HETATM   11  C   UNK N   1      36.044  15.000  12.547  0.00  0.00     0.034 C 
HETATM   12  C   UNK N   1      34.075  17.083   8.957  0.00  0.00     0.010 C 
HETATM   13  C   UNK N   1      37.427  14.396  10.019  0.00  0.00     0.018 C 
HETATM   14  C   UNK N   1      34.272  17.853   7.645  0.00  0.00     0.035 C 
HETATM   15  C   UNK N   1      34.157  16.905   6.489  0.00  0.00    -0.072 C 
HETATM   16  C   UNK N   1      34.862  14.750   5.259  0.00  0.00     0.017 C 
HETATM   17  C   UNK N   1      33.474  14.791   4.646  0.00  0.00     0.084 C 
HETATM   18  C   UNK N   1      33.325  17.193   5.477  0.00  0.00     0.053 C 
HETATM   19  C   UNK N   1      33.125  16.221   4.394  0.00  0.00     0.149 C 
ENDROOT
BRANCH   7  20
HETATM   20  O   UNK N   1      34.871  12.947  12.255  0.00  0.00    -0.315 OA
BRANCH  20  21
HETATM   21  C   UNK N   1      34.909  11.873  13.091  0.00  0.00     0.259 C 
HETATM   22  O   UNK N   1      35.315  10.802  12.666  0.00  0.00    -0.265 OA
BRANCH  21  23
HETATM   23  C   UNK N   1      34.458  11.957  14.529  0.00  0.00     0.116 C 
BRANCH  23  24
HETATM   24  C   UNK N   1      35.346  12.883  15.359  0.00  0.00     0.048 C 
BRANCH  24  25
HETATM   25  C   UNK N   1      35.333  12.501  16.800  0.00  0.00    -0.058 A 
HETATM   26  C   UNK N   1      35.125  13.485  17.773  0.00  0.00     0.007 A 
HETATM   27  C   UNK N   1      35.138  13.142  19.127  0.00  0.00     0.001 A 
HETATM   28  C   UNK N   1      35.359  11.816  19.510  0.00  0.00     0.000 A 
HETATM   29  C   UNK N   1      35.563  10.831  18.539  0.00  0.00     0.001 A 
HETATM   30  C   UNK N   1      35.550  11.173  17.184  0.00  0.00     0.007 A 
ENDBRANCH  24  25
ENDBRANCH  23  24
ENDBRANCH  21  23
ENDBRANCH  20  21
ENDBRANCH   7  20
TORSDOF 5
ENDMDL
MODEL 3
REMARK VINA RESULT:      -6.9     13.969     16.410
REMARK  5 active torsions:
REMARK  status: ('A' for Active; 'I' for Inactive)
REMARK    1  A    between atoms: C_9  and  O_1 
REMARK    2  A    between atoms: O_1  and  C_22 
REMARK    3  A    between atoms: C_22  and  C_23 
REMARK    4  A    between atoms: C_23  and  C_24 
REMARK    5  A    between atoms: C_24  and  C_25 
ROOT
HETATM    1  O   UNK N   1      23.571  12.012  11.124  0.00  0.00    -0.293 OA
HETATM    2  C   UNK N   1      22.310  17.127   5.704  0.00  0.00     0.001 C 
HETATM    3  C   UNK N   1      23.216  16.860   4.502  0.00  0.00    -0.013 C 
HETATM    4  C   UNK N   1      22.053  15.831   6.480  0.00  0.00    -0.005 C 
HETATM    5  C   UNK N   1      23.398  15.186   6.950  0.00  0.00    -0.002 C 
HETATM    6  C   UNK N   1      24.587  16.413   5.014  0.00  0.00     0.012 C 
HETATM    7  C   UNK N   1      23.117  18.172   3.734  0.00  0.00     0.140 C 
HETATM    8  C   UNK N   1      21.082  17.769   5.078  0.00  0.00     0.008 C 
HETATM    9  C   UNK N   1      24.415  15.084   5.787  0.00  0.00     0.006 C 
HETATM   10  C   UNK N   1      23.048  13.778   7.494  0.00  0.00     0.019 C 
HETATM   11  C   UNK N   1      21.614  18.501   3.838  0.00  0.00     0.034 C 
HETATM   12  C   UNK N   1      21.126  16.043   7.689  0.00  0.00     0.010 C 
HETATM   13  C   UNK N   1      22.679  15.771   3.553  0.00  0.00     0.018 C 
HETATM   14  C   UNK N   1      20.766  14.693   8.319  0.00  0.00     0.035 C 
HETATM   15  C   UNK N   1      22.022  13.930   8.616  0.00  0.00    -0.072 C 
HETATM   16  C   UNK N   1      24.273  12.913   7.872  0.00  0.00     0.017 C 
HETATM   17  C   UNK N   1      24.684  13.066   9.325  0.00  0.00     0.084 C 
HETATM   18  C   UNK N   1      22.217  13.426   9.844  0.00  0.00     0.053 C 
HETATM   19  C   UNK N   1      23.490  12.771  10.173  0.00  0.00     0.149 C 
ENDROOT
BRANCH   7  20
HETATM   20  O   UNK N   1      23.843  19.190   4.321  0.00  0.00    -0.315 OA
BRANCH  20  21
HETATM   21  C   UNK N   1      24.489  20.143   3.596  0.00  0.00     0.259 C 
HETATM   22  O   UNK N   1      23.840  21.040   3.079  0.00  0.00    -0.265 OA
BRANCH  21  23
HETATM   23  C   UNK N   1      25.986  20.127   3.400  0.00  0.00     0.116 C 
BRANCH  23  24
HETATM   24  C   UNK N   1      26.729  20.736   4.588  0.00  0.00     0.048 C 
BRANCH  24  25
HETATM   25  C   UNK N   1      27.418  19.687   5.394  0.00  0.00    -0.058 A 
HETATM   26  C   UNK N   1      27.842  18.508   4.774  0.00  0.00     0.007 A 
HETATM   27  C   UNK N   1      28.464  17.507   5.526  0.00  0.00     0.001 A 
HETATM   28  C   UNK N   1      28.661  17.686   6.898  0.00  0.00     0.000 A 
HETATM   29  C   UNK N   1      28.241  18.867   7.519  0.00  0.00     0.001 A 
HETATM   30  C   UNK N   1      27.620  19.868   6.768  0.00  0.00     0.007 A 
ENDBRANCH  24  25
ENDBRANCH  23  24
ENDBRANCH  21  23
ENDBRANCH  20  21
ENDBRANCH   7  20
TORSDOF 5
ENDMDL
MODEL 4
REMARK VINA RESULT:      -6.9     19.079     22.421
REMARK  5 active torsions:
REMARK  status: ('A' for Active; 'I' for Inactive)
REMARK    1  A    between atoms: C_9  and  O_1 
REMARK    2  A    between atoms: O_1  and  C_22 
REMARK    3  A    between atoms: C_22  and  C_23 
REMARK    4  A    between atoms: C_23  and  C_24 
REMARK    5  A    between atoms: C_24  and  C_25 
ROOT
HETATM    1  O   UNK N   1      34.677  10.024  17.802  0.00  0.00    -0.293 OA
HETATM    2  C   UNK N   1      34.998  13.006  10.864  0.00  0.00     0.001 C 
HETATM    3  C   UNK N   1      36.104  14.058  10.790  0.00  0.00    -0.013 C 
HETATM    4  C   UNK N   1      35.314  11.971  11.949  0.00  0.00    -0.005 C 
HETATM    5  C   UNK N   1      35.499  12.660  13.341  0.00  0.00    -0.002 C 
HETATM    6  C   UNK N   1      36.125  14.839  12.106  0.00  0.00     0.012 C 
HETATM    7  C   UNK N   1      35.751  14.799   9.507  0.00  0.00     0.140 C 
HETATM    8  C   UNK N   1      34.934  12.467   9.444  0.00  0.00     0.008 C 
HETATM    9  C   UNK N   1      36.470  13.862  13.254  0.00  0.00     0.006 C 
HETATM   10  C   UNK N   1      36.053  11.578  14.301  0.00  0.00     0.019 C 
HETATM   11  C   UNK N   1      35.358  13.648   8.559  0.00  0.00     0.034 C 
HETATM   12  C   UNK N   1      34.238  10.876  12.047  0.00  0.00     0.010 C 
HETATM   13  C   UNK N   1      37.508  13.463  10.563  0.00  0.00     0.018 C 
HETATM   14  C   UNK N   1      34.690   9.780  13.020  0.00  0.00     0.035 C 
HETATM   15  C   UNK N   1      35.076  10.403  14.328  0.00  0.00    -0.072 C 
HETATM   16  C   UNK N   1      36.449  12.102  15.700  0.00  0.00     0.017 C 
HETATM   17  C   UNK N   1      35.319  12.018  16.709  0.00  0.00     0.084 C 
HETATM   18  C   UNK N   1      34.548   9.933  15.468  0.00  0.00     0.053 C 
HETATM   19  C   UNK N   1      34.837  10.605  16.741  0.00  0.00     0.149 C 
ENDROOT
BRANCH   7  20
HETATM   20  O   UNK N   1      34.669  15.645   9.660  0.00  0.00    -0.315 OA
BRANCH  20  21
HETATM   21  C   UNK N   1      34.752  16.988   9.458  0.00  0.00     0.259 C 
HETATM   22  O   UNK N   1      35.539  17.643  10.126  0.00  0.00    -0.265 OA
BRANCH  21  23
HETATM   23  C   UNK N   1      33.897  17.703   8.440  0.00  0.00     0.116 C 
BRANCH  23  24
HETATM   24  C   UNK N   1      34.233  17.283   7.010  0.00  0.00     0.048 C 
BRANCH  24  25
HETATM   25  C   UNK N   1      33.025  17.315   6.136  0.00  0.00    -0.058 A 
HETATM   26  C   UNK N   1      31.759  17.125   6.701  0.00  0.00     0.007 A 
HETATM   27  C   UNK N   1      30.623  17.126   5.887  0.00  0.00     0.001 A 
HETATM   28  C   UNK N   1      30.753  17.317   4.508  0.00  0.00     0.000 A 
HETATM   29  C   UNK N   1      32.017  17.511   3.942  0.00  0.00     0.001 A 
HETATM   30  C   UNK N   1      33.153  17.511   4.756  0.00  0.00     0.007 A 
ENDBRANCH  24  25
ENDBRANCH  23  24
ENDBRANCH  21  23
ENDBRANCH  20  21
ENDBRANCH   7  20
TORSDOF 5
ENDMDL
MODEL 5
REMARK VINA RESULT:      -6.7      2.058      6.075
REMARK  5 active torsions:
REMARK  status: ('A' for Active; 'I' for Inactive)
REMARK    1  A    between atoms: C_9  and  O_1 
REMARK    2  A    between atoms: O_1  and  C_22 
REMARK    3  A    between atoms: C_22  and  C_23 
REMARK    4  A    between atoms: C_23  and  C_24 
REMARK    5  A    between atoms: C_24  and  C_25 
ROOT
HETATM    1  O   UNK N   1      25.806  21.342 -11.531  0.00  0.00    -0.293 OA
HETATM    2  C   UNK N   1      26.970  25.596  -5.392  0.00  0.00     0.001 C 
HETATM    3  C   UNK N   1      26.572  27.045  -5.669  0.00  0.00    -0.013 C 
HETATM    4  C   UNK N   1      26.179  24.641  -6.294  0.00  0.00    -0.005 C 
HETATM    5  C   UNK N   1      26.403  24.985  -7.803  0.00  0.00    -0.002 C 
HETATM    6  C   UNK N   1      26.983  27.401  -7.100  0.00  0.00     0.012 C 
HETATM    7  C   UNK N   1      27.238  27.782  -4.514  0.00  0.00     0.140 C 
HETATM    8  C   UNK N   1      26.720  25.444  -3.901  0.00  0.00     0.008 C 
HETATM    9  C   UNK N   1      26.198  26.495  -8.077  0.00  0.00     0.006 C 
HETATM   10  C   UNK N   1      25.382  24.140  -8.606  0.00  0.00     0.019 C 
HETATM   11  C   UNK N   1      26.958  26.846  -3.321  0.00  0.00     0.034 C 
HETATM   12  C   UNK N   1      26.529  23.165  -6.037  0.00  0.00     0.010 C 
HETATM   13  C   UNK N   1      25.060  27.309  -5.524  0.00  0.00     0.018 C 
HETATM   14  C   UNK N   1      25.589  22.255  -6.836  0.00  0.00     0.035 C 
HETATM   15  C   UNK N   1      25.605  22.665  -8.279  0.00  0.00    -0.072 C 
HETATM   16  C   UNK N   1      25.340  24.452 -10.120  0.00  0.00     0.017 C 
HETATM   17  C   UNK N   1      26.279  23.579 -10.933  0.00  0.00     0.084 C 
HETATM   18  C   UNK N   1      25.831  21.743  -9.227  0.00  0.00     0.053 C 
HETATM   19  C   UNK N   1      25.955  22.152 -10.631  0.00  0.00     0.149 C 
ENDROOT
BRANCH   7  20
HETATM   20  O   UNK N   1      28.605  27.906  -4.678  0.00  0.00    -0.315 OA
BRANCH  20  21
HETATM   21  C   UNK N   1      29.474  27.889  -3.631  0.00  0.00     0.259 C 
HETATM   22  O   UNK N   1      29.386  28.754  -2.771  0.00  0.00    -0.265 OA
BRANCH  21  23
HETATM   23  C   UNK N   1      30.553  26.842  -3.497  0.00  0.00     0.116 C 
BRANCH  23  24
HETATM   24  C   UNK N   1      30.601  25.907  -4.704  0.00  0.00     0.048 C 
BRANCH  24  25
HETATM   25  C   UNK N   1      30.394  24.486  -4.299  0.00  0.00    -0.058 A 
HETATM   26  C   UNK N   1      30.421  24.144  -2.943  0.00  0.00     0.007 A 
HETATM   27  C   UNK N   1      30.255  22.812  -2.555  0.00  0.00     0.001 A 
HETATM   28  C   UNK N   1      30.064  21.821  -3.524  0.00  0.00     0.000 A 
HETATM   29  C   UNK N   1      30.034  22.163  -4.879  0.00  0.00     0.001 A 
HETATM   30  C   UNK N   1      30.199  23.495  -5.268  0.00  0.00     0.007 A 
ENDBRANCH  24  25
ENDBRANCH  23  24
ENDBRANCH  21  23
ENDBRANCH  20  21
ENDBRANCH   7  20
TORSDOF 5
ENDMDL
MODEL 6
REMARK VINA RESULT:      -6.5      2.639      7.271
REMARK  5 active torsions:
REMARK  status: ('A' for Active; 'I' for Inactive)
REMARK    1  A    between atoms: C_9  and  O_1 
REMARK    2  A    between atoms: O_1  and  C_22 
REMARK    3  A    between atoms: C_22  and  C_23 
REMARK    4  A    between atoms: C_23  and  C_24 
REMARK    5  A    between atoms: C_24  and  C_25 
ROOT
HETATM    1  O   UNK N   1      34.430  19.114  -6.892  0.00  0.00    -0.293 OA
HETATM    2  C   UNK N   1      27.675  22.433  -7.596  0.00  0.00     0.001 C 
HETATM    3  C   UNK N   1      26.865  21.756  -8.701  0.00  0.00    -0.013 C 
HETATM    4  C   UNK N   1      28.687  21.451  -6.994  0.00  0.00    -0.005 C 
HETATM    5  C   UNK N   1      29.642  20.888  -8.098  0.00  0.00    -0.002 C 
HETATM    6  C   UNK N   1      27.811  21.391  -9.847  0.00  0.00     0.012 C 
HETATM    7  C   UNK N   1      25.766  22.778  -8.959  0.00  0.00     0.140 C 
HETATM    8  C   UNK N   1      26.607  22.939  -6.641  0.00  0.00     0.008 C 
HETATM    9  C   UNK N   1      28.849  20.372  -9.324  0.00  0.00     0.006 C 
HETATM   10  C   UNK N   1      30.445  19.737  -7.442  0.00  0.00     0.019 C 
HETATM   11  C   UNK N   1      25.390  23.226  -7.532  0.00  0.00     0.034 C 
HETATM   12  C   UNK N   1      29.513  22.081  -5.860  0.00  0.00     0.010 C 
HETATM   13  C   UNK N   1      26.149  20.471  -8.242  0.00  0.00     0.018 C 
HETATM   14  C   UNK N   1      30.379  21.011  -5.184  0.00  0.00     0.035 C 
HETATM   15  C   UNK N   1      31.183  20.289  -6.224  0.00  0.00    -0.072 C 
HETATM   16  C   UNK N   1      31.345  18.944  -8.419  0.00  0.00     0.017 C 
HETATM   17  C   UNK N   1      32.754  19.499  -8.513  0.00  0.00     0.084 C 
HETATM   18  C   UNK N   1      32.509  20.166  -6.068  0.00  0.00     0.053 C 
HETATM   19  C   UNK N   1      33.318  19.556  -7.131  0.00  0.00     0.149 C 
ENDROOT
BRANCH   7  20
HETATM   20  O   UNK N   1      26.214  23.875  -9.671  0.00  0.00    -0.315 OA
BRANCH  20  21
HETATM   21  C   UNK N   1      25.423  24.948  -9.941  0.00  0.00     0.259 C 
HETATM   22  O   UNK N   1      24.507  24.826 -10.741  0.00  0.00    -0.265 OA
BRANCH  21  23
HETATM   23  C   UNK N   1      25.642  26.293  -9.291  0.00  0.00     0.116 C 
BRANCH  23  24
HETATM   24  C   UNK N   1      26.857  26.294  -8.365  0.00  0.00     0.048 C 
BRANCH  24  25
HETATM   25  C   UNK N   1      26.571  27.023  -7.095  0.00  0.00    -0.058 A 
HETATM   26  C   UNK N   1      25.443  26.683  -6.342  0.00  0.00     0.007 A 
HETATM   27  C   UNK N   1      25.152  27.378  -5.166  0.00  0.00     0.001 A 
HETATM   28  C   UNK N   1      25.989  28.414  -4.742  0.00  0.00     0.000 A 
HETATM   29  C   UNK N   1      27.120  28.753  -5.492  0.00  0.00     0.001 A 
HETATM   30  C   UNK N   1      27.412  28.058  -6.668  0.00  0.00     0.007 A 
ENDBRANCH  24  25
ENDBRANCH  23  24
ENDBRANCH  21  23
ENDBRANCH  20  21
ENDBRANCH   7  20
TORSDOF 5
ENDMDL
MODEL 7
REMARK VINA RESULT:      -6.4      2.518      6.207
REMARK  5 active torsions:
REMARK  status: ('A' for Active; 'I' for Inactive)
REMARK    1  A    between atoms: C_9  and  O_1 
REMARK    2  A    between atoms: O_1  and  C_22 
REMARK    3  A    between atoms: C_22  and  C_23 
REMARK    4  A    between atoms: C_23  and  C_24 
REMARK    5  A    between atoms: C_24  and  C_25 
ROOT
HETATM    1  O   UNK N   1      33.731  20.688  -3.508  0.00  0.00    -0.293 OA
HETATM    2  C   UNK N   1      27.484  24.689  -4.959  0.00  0.00     0.001 C 
HETATM    3  C   UNK N   1      26.822  24.191  -6.244  0.00  0.00    -0.013 C 
HETATM    4  C   UNK N   1      28.296  23.566  -4.303  0.00  0.00    -0.005 C 
HETATM    5  C   UNK N   1      29.377  23.011  -5.289  0.00  0.00    -0.002 C 
HETATM    6  C   UNK N   1      27.917  23.837  -7.252  0.00  0.00     0.012 C 
HETATM    7  C   UNK N   1      25.869  25.333  -6.572  0.00  0.00     0.140 C 
HETATM    8  C   UNK N   1      26.313  25.211  -4.143  0.00  0.00     0.008 C 
HETATM    9  C   UNK N   1      28.766  22.681  -6.673  0.00  0.00     0.006 C 
HETATM   10  C   UNK N   1      29.961  21.736  -4.632  0.00  0.00     0.019 C 
HETATM   11  C   UNK N   1      25.293  25.690  -5.186  0.00  0.00     0.034 C 
HETATM   12  C   UNK N   1      28.965  24.013  -2.993  0.00  0.00     0.010 C 
HETATM   13  C   UNK N   1      25.937  22.946  -6.039  0.00  0.00     0.018 C 
HETATM   14  C   UNK N   1      29.614  22.811  -2.297  0.00  0.00     0.035 C 
HETATM   15  C   UNK N   1      30.522  22.107  -3.260  0.00  0.00    -0.072 C 
HETATM   16  C   UNK N   1      30.947  20.948  -5.524  0.00  0.00     0.017 C 
HETATM   17  C   UNK N   1      32.392  21.370  -5.332  0.00  0.00     0.084 C 
HETATM   18  C   UNK N   1      31.789  21.844  -2.905  0.00  0.00     0.053 C 
HETATM   19  C   UNK N   1      32.715  21.253  -3.879  0.00  0.00     0.149 C 
ENDROOT
BRANCH   7  20
HETATM   20  O   UNK N   1      26.519  26.438  -7.087  0.00  0.00    -0.315 OA
BRANCH  20  21
HETATM   21  C   UNK N   1      26.821  26.562  -8.408  0.00  0.00     0.259 C 
HETATM   22  O   UNK N   1      26.016  26.174  -9.241  0.00  0.00    -0.265 OA
BRANCH  21  23
HETATM   23  C   UNK N   1      28.125  27.158  -8.883  0.00  0.00     0.116 C 
BRANCH  23  24
HETATM   24  C   UNK N   1      28.707  28.147  -7.875  0.00  0.00     0.048 C 
BRANCH  24  25
HETATM   25  C   UNK N   1      29.536  27.452  -6.848  0.00  0.00    -0.058 A 
HETATM   26  C   UNK N   1      29.382  27.782  -5.498  0.00  0.00     0.007 A 
HETATM   27  C   UNK N   1      30.174  27.156  -4.531  0.00  0.00     0.001 A 
HETATM   28  C   UNK N   1      31.119  26.200  -4.914  0.00  0.00     0.000 A 
HETATM   29  C   UNK N   1      31.271  25.867  -6.264  0.00  0.00     0.001 A 
HETATM   30  C   UNK N   1      30.481  26.492  -7.231  0.00  0.00     0.007 A 
ENDBRANCH  24  25
ENDBRANCH  23  24
ENDBRANCH  21  23
ENDBRANCH  20  21
ENDBRANCH   7  20
TORSDOF 5
ENDMDL
MODEL 8
REMARK VINA RESULT:      -6.3     26.565     29.426
REMARK  5 active torsions:
REMARK  status: ('A' for Active; 'I' for Inactive)
REMARK    1  A    between atoms: C_9  and  O_1 
REMARK    2  A    between atoms: O_1  and  C_22 
REMARK    3  A    between atoms: C_22  and  C_23 
REMARK    4  A    between atoms: C_23  and  C_24 
REMARK    5  A    between atoms: C_24  and  C_25 
ROOT
HETATM    1  O   UNK N   1      36.481  13.782  10.748  0.00  0.00    -0.293 OA
HETATM    2  C   UNK N   1      35.151  11.102  17.690  0.00  0.00     0.001 C 
HETATM    3  C   UNK N   1      35.544   9.628  17.773  0.00  0.00    -0.013 C 
HETATM    4  C   UNK N   1      35.968  11.816  16.607  0.00  0.00    -0.005 C 
HETATM    5  C   UNK N   1      35.775  11.125  15.217  0.00  0.00    -0.002 C 
HETATM    6  C   UNK N   1      35.163   8.945  16.458  0.00  0.00     0.012 C 
HETATM    7  C   UNK N   1      34.848   9.186  19.054  0.00  0.00     0.140 C 
HETATM    8  C   UNK N   1      35.368  11.602  19.109  0.00  0.00     0.008 C 
HETATM    9  C   UNK N   1      35.975   9.593  15.313  0.00  0.00     0.006 C 
HETATM   10  C   UNK N   1      36.820  11.754  14.261  0.00  0.00     0.019 C 
HETATM   11  C   UNK N   1      35.107  10.377  19.998  0.00  0.00     0.034 C 
HETATM   12  C   UNK N   1      35.623  13.311  16.500  0.00  0.00     0.010 C 
HETATM   13  C   UNK N   1      37.050   9.404  18.011  0.00  0.00     0.018 C 
HETATM   14  C   UNK N   1      36.587  14.004  15.530  0.00  0.00     0.035 C 
HETATM   15  C   UNK N   1      36.600  13.266  14.225  0.00  0.00    -0.072 C 
HETATM   16  C   UNK N   1      36.893  11.093  12.866  0.00  0.00     0.017 C 
HETATM   17  C   UNK N   1      35.979  11.751  11.847  0.00  0.00     0.084 C 
HETATM   18  C   UNK N   1      36.402  13.938  13.081  0.00  0.00     0.053 C 
HETATM   19  C   UNK N   1      36.307  13.208  11.811  0.00  0.00     0.149 C 
ENDROOT
BRANCH   7  20
HETATM   20  O   UNK N   1      33.484   9.030  18.892  0.00  0.00    -0.315 OA
BRANCH  20  21
HETATM   21  C   UNK N   1      32.778   8.051  19.520  0.00  0.00     0.259 C 
HETATM   22  O   UNK N   1      33.195   6.902  19.488  0.00  0.00    -0.265 OA
BRANCH  21  23
HETATM   23  C   UNK N   1      31.488   8.332  20.252  0.00  0.00     0.116 C 
BRANCH  23  24
HETATM   24  C   UNK N   1      31.455   7.682  21.634  0.00  0.00     0.048 C 
BRANCH  24  25
HETATM   25  C   UNK N   1      31.968   8.610  22.683  0.00  0.00    -0.058 A 
HETATM   26  C   UNK N   1      32.015   8.187  24.015  0.00  0.00     0.007 A 
HETATM   27  C   UNK N   1      32.468   9.058  25.009  0.00  0.00     0.001 A 
HETATM   28  C   UNK N   1      32.874  10.353  24.671  0.00  0.00     0.000 A 
HETATM   29  C   UNK N   1      32.832  10.775  23.339  0.00  0.00     0.001 A 
HETATM   30  C   UNK N   1      32.379   9.905  22.344  0.00  0.00     0.007 A 
ENDBRANCH  24  25
ENDBRANCH  23  24
ENDBRANCH  21  23
ENDBRANCH  20  21
ENDBRANCH   7  20
TORSDOF 5
ENDMDL
MODEL 9
REMARK VINA RESULT:      -6.2      2.039      6.208
REMARK  5 active torsions:
REMARK  status: ('A' for Active; 'I' for Inactive)
REMARK    1  A    between atoms: C_9  and  O_1 
REMARK    2  A    between atoms: O_1  and  C_22 
REMARK    3  A    between atoms: C_22  and  C_23 
REMARK    4  A    between atoms: C_23  and  C_24 
REMARK    5  A    between atoms: C_24  and  C_25 
ROOT
HETATM    1  O   UNK N   1      25.468  22.805  -9.287  0.00  0.00    -0.293 OA
HETATM    2  C   UNK N   1      27.893  27.738  -4.098  0.00  0.00     0.001 C 
HETATM    3  C   UNK N   1      27.965  29.143  -4.695  0.00  0.00    -0.013 C 
HETATM    4  C   UNK N   1      26.845  26.894  -4.833  0.00  0.00    -0.005 C 
HETATM    5  C   UNK N   1      27.165  26.817  -6.363  0.00  0.00    -0.002 C 
HETATM    6  C   UNK N   1      28.465  29.036  -6.138  0.00  0.00     0.012 C 
HETATM    7  C   UNK N   1      28.826  29.876  -3.676  0.00  0.00     0.140 C 
HETATM    8  C   UNK N   1      27.609  27.998  -2.628  0.00  0.00     0.008 C 
HETATM    9  C   UNK N   1      27.439  28.220  -6.957  0.00  0.00     0.006 C 
HETATM   10  C   UNK N   1      25.933  26.167  -7.040  0.00  0.00     0.019 C 
HETATM   11  C   UNK N   1      28.270  29.353  -2.336  0.00  0.00     0.034 C 
HETATM   12  C   UNK N   1      26.720  25.475  -4.253  0.00  0.00     0.010 C 
HETATM   13  C   UNK N   1      26.609  29.876  -4.711  0.00  0.00     0.018 C 
HETATM   14  C   UNK N   1      25.544  24.741  -4.908  0.00  0.00     0.035 C 
HETATM   15  C   UNK N   1      25.687  24.802  -6.400  0.00  0.00    -0.072 C 
HETATM   16  C   UNK N   1      25.989  26.138  -8.585  0.00  0.00     0.017 C 
HETATM   17  C   UNK N   1      26.611  24.867  -9.134  0.00  0.00     0.084 C 
HETATM   18  C   UNK N   1      25.615  23.671  -7.119  0.00  0.00     0.053 C 
HETATM   19  C   UNK N   1      25.860  23.707  -8.566  0.00  0.00     0.149 C 
ENDROOT
BRANCH   7  20
HETATM   20  O   UNK N   1      30.164  29.542  -3.769  0.00  0.00    -0.315 OA
BRANCH  20  21
HETATM   21  C   UNK N   1      30.823  28.874  -2.784  0.00  0.00     0.259 C 
HETATM   22  O   UNK N   1      31.080  29.456  -1.740  0.00  0.00    -0.265 OA
BRANCH  21  23
HETATM   23  C   UNK N   1      31.259  27.437  -2.938  0.00  0.00     0.116 C 
BRANCH  23  24
HETATM   24  C   UNK N   1      31.289  26.998  -4.401  0.00  0.00     0.048 C 
BRANCH  24  25
HETATM   25  C   UNK N   1      30.613  25.681  -4.587  0.00  0.00    -0.058 A 
HETATM   26  C   UNK N   1      30.382  24.861  -3.478  0.00  0.00     0.007 A 
HETATM   27  C   UNK N   1      29.775  23.614  -3.645  0.00  0.00     0.001 A 
HETATM   28  C   UNK N   1      29.399  23.187  -4.923  0.00  0.00     0.000 A 
HETATM   29  C   UNK N   1      29.625  24.007  -6.031  0.00  0.00     0.001 A 
HETATM   30  C   UNK N   1      30.233  25.255  -5.865  0.00  0.00     0.007 A 
ENDBRANCH  24  25
ENDBRANCH  23  24
ENDBRANCH  21  23
ENDBRANCH  20  21
ENDBRANCH   7  20
TORSDOF 5
ENDMDL
