MODEL 1
REMARK VINA RESULT:      -6.8      0.000      0.000
REMARK  1 active torsions:
REMARK  status: ('A' for Active; 'I' for Inactive)
REMARK    1  A    between atoms: N_4  and  C_11 
ROOT
HETATM    1 Cl   UNK N   1      28.966  18.323   9.780  0.00  0.00    -0.084 Cl
HETATM    2  O   UNK N   1      34.888  16.459   5.777  0.00  0.00    -0.272 OA
HETATM    3  O   UNK N   1      32.520  16.487   2.717  0.00  0.00    -0.273 OA
HETATM    4  N   UNK N   1      32.926  16.708   6.884  0.00  0.00    -0.280 N 
HETATM    5  N   UNK N   1      31.029  16.668   4.380  0.00  0.00    -0.320 N 
HETATM    6  C   UNK N   1      31.523  17.127   6.863  0.00  0.00     0.071 A 
HETATM    7  C   UNK N   1      30.649  17.098   5.702  0.00  0.00     0.064 A 
HETATM    8  C   UNK N   1      33.295  17.608   4.586  0.00  0.00     0.206 C 
HETATM    9  C   UNK N   1      33.737  16.870   5.781  0.00  0.00     0.237 C 
HETATM   10  C   UNK N   1      32.266  16.858   3.855  0.00  0.00     0.232 C 
HETATM   11  C   UNK N   1      30.945  17.525   8.089  0.00  0.00     0.056 A 
HETATM   12  C   UNK N   1      29.290  17.438   5.883  0.00  0.00     0.034 A 
HETATM   13  C   UNK N   1      30.005  16.114   3.514  0.00  0.00     0.159 C 
HETATM   14  C   UNK N   1      29.607  17.870   8.216  0.00  0.00     0.036 A 
HETATM   15  C   UNK N   1      28.776  17.823   7.114  0.00  0.00     0.026 A 
ENDROOT
BRANCH   4  16
HETATM   16  C   UNK N   1      33.503  16.191   8.128  0.00  0.00     0.042 A 
HETATM   17  C   UNK N   1      33.299  14.854   8.535  0.00  0.00     0.030 A 
HETATM   18  C   UNK N   1      33.888  14.346   9.696  0.00  0.00     0.002 A 
HETATM   19  C   UNK N   1      34.695  15.163  10.483  0.00  0.00     0.000 A 
HETATM   20  C   UNK N   1      34.905  16.491  10.115  0.00  0.00     0.002 A 
HETATM   21  C   UNK N   1      34.316  16.998   8.953  0.00  0.00     0.030 A 
ENDBRANCH   4  16
TORSDOF 1
ENDMDL
MODEL 2
REMARK VINA RESULT:      -6.7      3.237      4.288
REMARK  1 active torsions:
REMARK  status: ('A' for Active; 'I' for Inactive)
REMARK    1  A    between atoms: N_4  and  C_11 
ROOT
HETATM    1 Cl   UNK N   1      31.294  14.200   3.912  0.00  0.00    -0.084 Cl
HETATM    2  O   UNK N   1      29.968  18.676   9.638  0.00  0.00    -0.272 OA
HETATM    3  O   UNK N   1      27.280  20.332   7.402  0.00  0.00    -0.273 OA
HETATM    4  N   UNK N   1      30.460  17.616   7.697  0.00  0.00    -0.280 N 
HETATM    5  N   UNK N   1      28.303  19.025   5.898  0.00  0.00    -0.320 N 
HETATM    6  C   UNK N   1      30.028  17.174   6.369  0.00  0.00     0.071 A 
HETATM    7  C   UNK N   1      29.035  17.836   5.539  0.00  0.00     0.064 A 
HETATM    8  C   UNK N   1      28.151  18.372   8.266  0.00  0.00     0.206 C 
HETATM    9  C   UNK N   1      29.589  18.248   8.559  0.00  0.00     0.237 C 
HETATM   10  C   UNK N   1      27.917  19.315   7.166  0.00  0.00     0.232 C 
HETATM   11  C   UNK N   1      30.680  16.051   5.813  0.00  0.00     0.056 A 
HETATM   12  C   UNK N   1      28.814  17.334   4.237  0.00  0.00     0.034 A 
HETATM   13  C   UNK N   1      27.845  19.899   4.834  0.00  0.00     0.159 C 
HETATM   14  C   UNK N   1      30.416  15.581   4.534  0.00  0.00     0.036 A 
HETATM   15  C   UNK N   1      29.485  16.224   3.743  0.00  0.00     0.026 A 
ENDROOT
BRANCH   4  16
HETATM   16  C   UNK N   1      31.817  17.301   8.152  0.00  0.00     0.042 A 
HETATM   17  C   UNK N   1      32.113  16.075   8.791  0.00  0.00     0.030 A 
HETATM   18  C   UNK N   1      33.415  15.752   9.182  0.00  0.00     0.002 A 
HETATM   19  C   UNK N   1      34.456  16.648   8.948  0.00  0.00     0.000 A 
HETATM   20  C   UNK N   1      34.193  17.870   8.331  0.00  0.00     0.002 A 
HETATM   21  C   UNK N   1      32.890  18.192   7.939  0.00  0.00     0.030 A 
ENDBRANCH   4  16
TORSDOF 1
ENDMDL
MODEL 3
REMARK VINA RESULT:      -6.6     11.871     13.847
REMARK  1 active torsions:
REMARK  status: ('A' for Active; 'I' for Inactive)
REMARK    1  A    between atoms: N_4  and  C_11 
ROOT
HETATM    1 Cl   UNK N   1      30.013  19.012  -7.880  0.00  0.00    -0.084 Cl
HETATM    2  O   UNK N   1      30.791  23.749  -2.265  0.00  0.00    -0.272 OA
HETATM    3  O   UNK N   1      27.741  25.616  -3.742  0.00  0.00    -0.273 OA
HETATM    4  N   UNK N   1      30.610  22.594  -4.206  0.00  0.00    -0.280 N 
HETATM    5  N   UNK N   1      28.168  24.170  -5.400  0.00  0.00    -0.320 N 
HETATM    6  C   UNK N   1      29.778  22.164  -5.333  0.00  0.00     0.071 A 
HETATM    7  C   UNK N   1      28.655  22.903  -5.885  0.00  0.00     0.064 A 
HETATM    8  C   UNK N   1      28.639  23.599  -3.052  0.00  0.00     0.206 C 
HETATM    9  C   UNK N   1      30.083  23.334  -3.169  0.00  0.00     0.237 C 
HETATM   10  C   UNK N   1      28.188  24.532  -4.093  0.00  0.00     0.232 C 
HETATM   11  C   UNK N   1      30.139  20.965  -5.988  0.00  0.00     0.056 A 
HETATM   12  C   UNK N   1      28.027  22.393  -7.043  0.00  0.00     0.034 A 
HETATM   13  C   UNK N   1      27.509  25.060  -6.338  0.00  0.00     0.159 C 
HETATM   14  C   UNK N   1      29.480  20.492  -7.113  0.00  0.00     0.036 A 
HETATM   15  C   UNK N   1      28.425  21.207  -7.645  0.00  0.00     0.026 A 
ENDROOT
BRANCH   4  16
HETATM   16  C   UNK N   1      32.005  22.152  -4.134  0.00  0.00     0.042 A 
HETATM   17  C   UNK N   1      32.414  21.149  -3.225  0.00  0.00     0.030 A 
HETATM   18  C   UNK N   1      33.734  20.692  -3.188  0.00  0.00     0.002 A 
HETATM   19  C   UNK N   1      34.682  21.228  -4.057  0.00  0.00     0.000 A 
HETATM   20  C   UNK N   1      34.312  22.226  -4.956  0.00  0.00     0.002 A 
HETATM   21  C   UNK N   1      32.991  22.683  -4.993  0.00  0.00     0.030 A 
ENDBRANCH   4  16
TORSDOF 1
ENDMDL
MODEL 4
REMARK VINA RESULT:      -6.6      2.186      5.732
REMARK  1 active torsions:
REMARK  status: ('A' for Active; 'I' for Inactive)
REMARK    1  A    between atoms: N_4  and  C_11 
ROOT
HETATM    1 Cl   UNK N   1      28.117  17.934   9.498  0.00  0.00    -0.084 Cl
HETATM    2  O   UNK N   1      29.618  16.471   2.414  0.00  0.00    -0.272 OA
HETATM    3  O   UNK N   1      33.298  16.059   3.538  0.00  0.00    -0.273 OA
HETATM    4  N   UNK N   1      29.393  17.206   4.546  0.00  0.00    -0.280 N 
HETATM    5  N   UNK N   1      32.402  16.914   5.405  0.00  0.00    -0.320 N 
HETATM    6  C   UNK N   1      29.901  17.233   5.920  0.00  0.00     0.071 A 
HETATM    7  C   UNK N   1      31.296  17.105   6.309  0.00  0.00     0.064 A 
HETATM    8  C   UNK N   1      31.083  15.492   3.888  0.00  0.00     0.206 C 
HETATM    9  C   UNK N   1      30.001  16.440   3.574  0.00  0.00     0.237 C 
HETATM   10  C   UNK N   1      32.315  16.202   4.253  0.00  0.00     0.232 C 
HETATM   11  C   UNK N   1      28.969  17.476   6.953  0.00  0.00     0.056 A 
HETATM   12  C   UNK N   1      31.623  17.260   7.674  0.00  0.00     0.034 A 
HETATM   13  C   UNK N   1      33.710  17.401   5.803  0.00  0.00     0.159 C 
HETATM   14  C   UNK N   1      29.334  17.602   8.286  0.00  0.00     0.036 A 
HETATM   15  C   UNK N   1      30.663  17.498   8.648  0.00  0.00     0.026 A 
ENDROOT
BRANCH   4  16
HETATM   16  C   UNK N   1      28.164  17.935   4.220  0.00  0.00     0.042 A 
HETATM   17  C   UNK N   1      26.953  17.257   3.957  0.00  0.00     0.030 A 
HETATM   18  C   UNK N   1      25.770  17.951   3.694  0.00  0.00     0.002 A 
HETATM   19  C   UNK N   1      25.766  19.344   3.684  0.00  0.00     0.000 A 
HETATM   20  C   UNK N   1      26.948  20.041   3.927  0.00  0.00     0.002 A 
HETATM   21  C   UNK N   1      28.131  19.346   4.191  0.00  0.00     0.030 A 
ENDBRANCH   4  16
TORSDOF 1
ENDMDL
MODEL 5
REMARK VINA RESULT:      -6.4     16.432     18.100
REMARK  1 active torsions:
REMARK  status: ('A' for Active; 'I' for Inactive)
REMARK    1  A    between atoms: N_4  and  C_11 
ROOT
HETATM    1 Cl   UNK N   1      29.459  27.769 -10.241  0.00  0.00    -0.084 Cl
HETATM    2  O   UNK N   1      24.842  24.799  -5.297  0.00  0.00    -0.272 OA
HETATM    3  O   UNK N   1      25.364  28.032  -3.237  0.00  0.00    -0.273 OA
HETATM    4  N   UNK N   1      26.508  25.710  -6.535  0.00  0.00    -0.280 N 
HETATM    5  N   UNK N   1      26.943  28.296  -4.805  0.00  0.00    -0.320 N 
HETATM    6  C   UNK N   1      27.251  26.903  -6.946  0.00  0.00     0.071 A 
HETATM    7  C   UNK N   1      27.455  28.093  -6.136  0.00  0.00     0.064 A 
HETATM    8  C   UNK N   1      24.849  27.096  -5.288  0.00  0.00     0.206 C 
HETATM    9  C   UNK N   1      25.420  25.800  -5.693  0.00  0.00     0.237 C 
HETATM   10  C   UNK N   1      25.752  27.807  -4.376  0.00  0.00     0.232 C 
HETATM   11  C   UNK N   1      27.887  26.871  -8.207  0.00  0.00     0.056 A 
HETATM   12  C   UNK N   1      28.289  29.112  -6.648  0.00  0.00     0.034 A 
HETATM   13  C   UNK N   1      27.676  29.173  -3.910  0.00  0.00     0.159 C 
HETATM   14  C   UNK N   1      28.683  27.906  -8.678  0.00  0.00     0.036 A 
HETATM   15  C   UNK N   1      28.889  29.026  -7.897  0.00  0.00     0.026 A 
ENDROOT
BRANCH   4  16
HETATM   16  C   UNK N   1      26.870  24.408  -7.101  0.00  0.00     0.042 A 
HETATM   17  C   UNK N   1      27.883  23.609  -6.523  0.00  0.00     0.030 A 
HETATM   18  C   UNK N   1      28.196  22.347  -7.032  0.00  0.00     0.002 A 
HETATM   19  C   UNK N   1      27.508  21.849  -8.135  0.00  0.00     0.000 A 
HETATM   20  C   UNK N   1      26.512  22.618  -8.736  0.00  0.00     0.002 A 
HETATM   21  C   UNK N   1      26.199  23.881  -8.225  0.00  0.00     0.030 A 
ENDBRANCH   4  16
TORSDOF 1
ENDMDL
MODEL 6
REMARK VINA RESULT:      -6.4     12.952     15.295
REMARK  1 active torsions:
REMARK  status: ('A' for Active; 'I' for Inactive)
REMARK    1  A    between atoms: N_4  and  C_11 
ROOT
HETATM    1 Cl   UNK N   1      32.282  26.695  -7.021  0.00  0.00    -0.084 Cl
HETATM    2  O   UNK N   1      26.566  23.980  -3.209  0.00  0.00    -0.272 OA
HETATM    3  O   UNK N   1      25.508  27.661  -2.654  0.00  0.00    -0.273 OA
HETATM    4  N   UNK N   1      28.412  24.982  -4.059  0.00  0.00    -0.280 N 
HETATM    5  N   UNK N   1      27.545  27.958  -3.539  0.00  0.00    -0.320 N 
HETATM    6  C   UNK N   1      29.029  26.173  -4.649  0.00  0.00     0.071 A 
HETATM    7  C   UNK N   1      28.628  27.547  -4.397  0.00  0.00     0.064 A 
HETATM    8  C   UNK N   1      26.149  26.028  -4.162  0.00  0.00     0.206 C 
HETATM    9  C   UNK N   1      27.066  24.948  -3.762  0.00  0.00     0.237 C 
HETATM   10  C   UNK N   1      26.400  27.247  -3.383  0.00  0.00     0.232 C 
HETATM   11  C   UNK N   1      30.157  25.978  -5.476  0.00  0.00     0.056 A 
HETATM   12  C   UNK N   1      29.402  28.582  -4.967  0.00  0.00     0.034 A 
HETATM   13  C   UNK N   1      27.625  29.259  -2.903  0.00  0.00     0.159 C 
HETATM   14  C   UNK N   1      30.877  27.026  -6.032  0.00  0.00     0.036 A 
HETATM   15  C   UNK N   1      30.502  28.330  -5.775  0.00  0.00     0.026 A 
ENDROOT
BRANCH   4  16
HETATM   16  C   UNK N   1      29.221  23.776  -3.864  0.00  0.00     0.042 A 
HETATM   17  C   UNK N   1      29.287  22.766  -4.851  0.00  0.00     0.030 A 
HETATM   18  C   UNK N   1      30.095  21.639  -4.688  0.00  0.00     0.002 A 
HETATM   19  C   UNK N   1      30.856  21.487  -3.531  0.00  0.00     0.000 A 
HETATM   20  C   UNK N   1      30.802  22.460  -2.534  0.00  0.00     0.002 A 
HETATM   21  C   UNK N   1      29.994  23.588  -2.699  0.00  0.00     0.030 A 
ENDBRANCH   4  16
TORSDOF 1
ENDMDL
MODEL 7
REMARK VINA RESULT:      -6.2      3.667      7.005
REMARK  1 active torsions:
REMARK  status: ('A' for Active; 'I' for Inactive)
REMARK    1  A    between atoms: N_4  and  C_11 
ROOT
HETATM    1 Cl   UNK N   1      33.963  11.212   6.455  0.00  0.00    -0.084 Cl
HETATM    2  O   UNK N   1      35.365  17.402  10.237  0.00  0.00    -0.272 OA
HETATM    3  O   UNK N   1      36.171  15.092  13.234  0.00  0.00    -0.273 OA
HETATM    4  N   UNK N   1      34.672  15.442   9.334  0.00  0.00    -0.280 N 
HETATM    5  N   UNK N   1      35.285  13.606  11.810  0.00  0.00    -0.320 N 
HETATM    6  C   UNK N   1      34.734  13.978   9.324  0.00  0.00     0.071 A 
HETATM    7  C   UNK N   1      35.011  13.135  10.476  0.00  0.00     0.064 A 
HETATM    8  C   UNK N   1      36.525  15.572  11.000  0.00  0.00     0.206 C 
HETATM    9  C   UNK N   1      35.466  16.185  10.181  0.00  0.00     0.237 C 
HETATM   10  C   UNK N   1      35.952  14.757  12.078  0.00  0.00     0.232 C 
HETATM   11  C   UNK N   1      34.430  13.322   8.111  0.00  0.00     0.056 A 
HETATM   12  C   UNK N   1      34.928  11.735  10.311  0.00  0.00     0.034 A 
HETATM   13  C   UNK N   1      34.942  12.748  12.928  0.00  0.00     0.159 C 
HETATM   14  C   UNK N   1      34.379  11.941   7.990  0.00  0.00     0.036 A 
HETATM   15  C   UNK N   1      34.625  11.145   9.092  0.00  0.00     0.026 A 
ENDROOT
BRANCH   4  16
HETATM   16  C   UNK N   1      33.815  16.131   8.365  0.00  0.00     0.042 A 
HETATM   17  C   UNK N   1      34.347  16.696   7.184  0.00  0.00     0.030 A 
HETATM   18  C   UNK N   1      33.526  17.310   6.235  0.00  0.00     0.002 A 
HETATM   19  C   UNK N   1      32.151  17.379   6.443  0.00  0.00     0.000 A 
HETATM   20  C   UNK N   1      31.598  16.842   7.605  0.00  0.00     0.002 A 
HETATM   21  C   UNK N   1      32.420  16.227   8.553  0.00  0.00     0.030 A 
ENDBRANCH   4  16
TORSDOF 1
ENDMDL
MODEL 8
REMARK VINA RESULT:      -6.2     12.613     15.505
REMARK  1 active torsions:
REMARK  status: ('A' for Active; 'I' for Inactive)
REMARK    1  A    between atoms: N_4  and  C_11 
ROOT
HETATM    1 Cl   UNK N   1      31.219  28.711  -6.013  0.00  0.00    -0.084 Cl
HETATM    2  O   UNK N   1      27.027  23.637  -2.657  0.00  0.00    -0.272 OA
HETATM    3  O   UNK N   1      30.010  21.219  -3.133  0.00  0.00    -0.273 OA
HETATM    4  N   UNK N   1      28.312  24.958  -3.977  0.00  0.00    -0.280 N 
HETATM    5  N   UNK N   1      30.690  22.946  -4.389  0.00  0.00    -0.320 N 
HETATM    6  C   UNK N   1      29.639  25.292  -4.498  0.00  0.00     0.071 A 
HETATM    7  C   UNK N   1      30.732  24.354  -4.693  0.00  0.00     0.064 A 
HETATM    8  C   UNK N   1      29.282  23.288  -2.398  0.00  0.00     0.206 C 
HETATM    9  C   UNK N   1      28.141  23.960  -3.041  0.00  0.00     0.237 C 
HETATM   10  C   UNK N   1      29.989  22.423  -3.351  0.00  0.00     0.232 C 
HETATM   11  C   UNK N   1      29.858  26.624  -4.915  0.00  0.00     0.056 A 
HETATM   12  C   UNK N   1      31.914  24.826  -5.307  0.00  0.00     0.034 A 
HETATM   13  C   UNK N   1      31.537  22.049  -5.153  0.00  0.00     0.159 C 
HETATM   14  C   UNK N   1      31.044  27.048  -5.497  0.00  0.00     0.036 A 
HETATM   15  C   UNK N   1      32.073  26.148  -5.697  0.00  0.00     0.026 A 
ENDROOT
BRANCH   4  16
HETATM   16  C   UNK N   1      27.156  25.759  -4.390  0.00  0.00     0.042 A 
HETATM   17  C   UNK N   1      26.704  26.853  -3.617  0.00  0.00     0.030 A 
HETATM   18  C   UNK N   1      25.633  27.647  -4.033  0.00  0.00     0.002 A 
HETATM   19  C   UNK N   1      24.981  27.367  -5.232  0.00  0.00     0.000 A 
HETATM   20  C   UNK N   1      25.396  26.287  -6.010  0.00  0.00     0.002 A 
HETATM   21  C   UNK N   1      26.468  25.493  -5.593  0.00  0.00     0.030 A 
ENDBRANCH   4  16
TORSDOF 1
ENDMDL
MODEL 9
REMARK VINA RESULT:      -6.0     15.001     16.729
REMARK  1 active torsions:
REMARK  status: ('A' for Active; 'I' for Inactive)
REMARK    1  A    between atoms: N_4  and  C_11 
ROOT
HETATM    1 Cl   UNK N   1      32.111  24.936  -4.567  0.00  0.00    -0.084 Cl
HETATM    2  O   UNK N   1      24.876  25.871  -5.732  0.00  0.00    -0.272 OA
HETATM    3  O   UNK N   1      24.888  22.264  -7.133  0.00  0.00    -0.273 OA
HETATM    4  N   UNK N   1      27.117  25.533  -5.744  0.00  0.00    -0.280 N 
HETATM    5  N   UNK N   1      27.091  22.627  -6.938  0.00  0.00    -0.320 N 
HETATM    6  C   UNK N   1      28.240  24.592  -5.739  0.00  0.00     0.071 A 
HETATM    7  C   UNK N   1      28.222  23.251  -6.301  0.00  0.00     0.064 A 
HETATM    8  C   UNK N   1      25.481  23.680  -5.403  0.00  0.00     0.206 C 
HETATM    9  C   UNK N   1      25.814  25.091  -5.660  0.00  0.00     0.237 C 
HETATM   10  C   UNK N   1      25.805  22.842  -6.564  0.00  0.00     0.232 C 
HETATM   11  C   UNK N   1      29.467  25.047  -5.209  0.00  0.00     0.056 A 
HETATM   12  C   UNK N   1      29.428  22.516  -6.305  0.00  0.00     0.034 A 
HETATM   13  C   UNK N   1      27.340  21.619  -7.953  0.00  0.00     0.159 C 
HETATM   14  C   UNK N   1      30.624  24.281  -5.217  0.00  0.00     0.036 A 
HETATM   15  C   UNK N   1      30.607  23.015  -5.769  0.00  0.00     0.026 A 
ENDROOT
BRANCH   4  16
HETATM   16  C   UNK N   1      27.387  26.973  -5.746  0.00  0.00     0.042 A 
HETATM   17  C   UNK N   1      27.329  27.735  -4.558  0.00  0.00     0.030 A 
HETATM   18  C   UNK N   1      27.633  29.099  -4.550  0.00  0.00     0.002 A 
HETATM   19  C   UNK N   1      28.000  29.738  -5.731  0.00  0.00     0.000 A 
HETATM   20  C   UNK N   1      28.055  29.016  -6.922  0.00  0.00     0.002 A 
HETATM   21  C   UNK N   1      27.751  27.652  -6.929  0.00  0.00     0.030 A 
ENDBRANCH   4  16
TORSDOF 1
ENDMDL
