MODEL 1
REMARK VINA RESULT:      -6.5      0.000      0.000
REMARK  2 active torsions:
REMARK  status: ('A' for Active; 'I' for Inactive)
REMARK    1  A    between atoms: C_7  and  O_2 
REMARK    2  A    between atoms: O_4  and  C_21 
ROOT
HETATM    1  O   UNK N   1      29.782  16.124   6.104  0.00  0.00    -0.334 OA
HETATM    2  O   UNK N   1      28.534  17.520   8.275  0.00  0.00    -0.295 OA
HETATM    3  N   UNK N   1      34.545  15.174   7.776  0.00  0.00     0.092 N 
HETATM    4  C   UNK N   1      31.758  15.975   7.351  0.00  0.00     0.058 C 
HETATM    5  C   UNK N   1      32.623  16.724   8.365  0.00  0.00     0.104 C 
HETATM    6  C   UNK N   1      34.109  16.590   7.846  0.00  0.00     0.262 C 
HETATM    7  C   UNK N   1      30.201  16.066   7.442  0.00  0.00     0.214 C 
HETATM    8  C   UNK N   1      32.185  14.494   7.307  0.00  0.00     0.051 C 
HETATM    9  C   UNK N   1      31.951  16.540   6.007  0.00  0.00    -0.001 A 
HETATM   10  C   UNK N   1      32.162  18.179   8.428  0.00  0.00     0.049 C 
HETATM   11  C   UNK N   1      34.315  17.216   6.425  0.00  0.00     0.078 C 
HETATM   12  C   UNK N   1      33.669  14.326   6.957  0.00  0.00     0.273 C 
HETATM   13  C   UNK N   1      33.133  17.042   5.496  0.00  0.00    -0.046 A 
HETATM   14  C   UNK N   1      30.683  18.306   8.820  0.00  0.00     0.084 C 
HETATM   15  C   UNK N   1      29.733  17.319   8.168  0.00  0.00     0.157 C 
HETATM   16  C   UNK N   1      30.798  16.502   5.318  0.00  0.00     0.111 A 
HETATM   17  C   UNK N   1      34.726  14.570   9.091  0.00  0.00     0.310 C 
HETATM   18  C   UNK N   1      33.141  17.467   4.157  0.00  0.00     0.011 A 
HETATM   19  C   UNK N   1      30.759  16.873   3.970  0.00  0.00     0.102 A 
HETATM   20  C   UNK N   1      31.960  17.348   3.382  0.00  0.00     0.040 A 
ENDROOT
BRANCH   5  21
HETATM   21  O   UNK N   1      32.484  16.160   9.639  0.00  0.00    -0.386 OA
HETATM   22  H   UNK N   1      33.226  15.843  10.175  0.00  0.00     0.210 HD
ENDBRANCH   5  21
BRANCH  19  23
HETATM   23  O   UNK N   1      29.603  16.771   3.273  0.00  0.00    -0.353 OA
HETATM   24  C   UNK N   1      29.226  15.620   2.620  0.00  0.00     0.210 C 
ENDBRANCH  19  23
TORSDOF 2
ENDMDL
MODEL 2
REMARK VINA RESULT:      -6.5      2.359      4.994
REMARK  2 active torsions:
REMARK  status: ('A' for Active; 'I' for Inactive)
REMARK    1  A    between atoms: C_7  and  O_2 
REMARK    2  A    between atoms: O_4  and  C_21 
ROOT
HETATM    1  O   UNK N   1      31.688  16.839   7.379  0.00  0.00    -0.334 OA
HETATM    2  O   UNK N   1      34.259  17.731   6.479  0.00  0.00    -0.295 OA
HETATM    3  N   UNK N   1      29.767  14.256   3.376  0.00  0.00     0.092 N 
HETATM    4  C   UNK N   1      31.330  15.814   5.304  0.00  0.00     0.058 C 
HETATM    5  C   UNK N   1      31.597  15.962   3.806  0.00  0.00     0.104 C 
HETATM    6  C   UNK N   1      30.227  15.637   3.090  0.00  0.00     0.262 C 
HETATM    7  C   UNK N   1      32.419  16.254   6.334  0.00  0.00     0.214 C 
HETATM    8  C   UNK N   1      30.889  14.368   5.607  0.00  0.00     0.051 C 
HETATM    9  C   UNK N   1      30.240  16.713   5.714  0.00  0.00    -0.001 A 
HETATM   10  C   UNK N   1      32.072  17.386   3.527  0.00  0.00     0.049 C 
HETATM   11  C   UNK N   1      29.075  16.612   3.510  0.00  0.00     0.078 C 
HETATM   12  C   UNK N   1      29.645  13.959   4.809  0.00  0.00     0.273 C 
HETATM   13  C   UNK N   1      29.129  17.042   4.960  0.00  0.00    -0.046 A 
HETATM   14  C   UNK N   1      33.341  17.743   4.313  0.00  0.00     0.084 C 
HETATM   15  C   UNK N   1      33.381  17.284   5.758  0.00  0.00     0.157 C 
HETATM   16  C   UNK N   1      30.467  17.184   6.951  0.00  0.00     0.111 A 
HETATM   17  C   UNK N   1      30.588  13.238   2.730  0.00  0.00     0.310 C 
HETATM   18  C   UNK N   1      28.152  17.857   5.555  0.00  0.00     0.011 A 
HETATM   19  C   UNK N   1      29.509  17.964   7.606  0.00  0.00     0.102 A 
HETATM   20  C   UNK N   1      28.324  18.289   6.894  0.00  0.00     0.040 A 
ENDROOT
BRANCH   5  21
HETATM   21  O   UNK N   1      32.599  15.073   3.398  0.00  0.00    -0.386 OA
HETATM   22  H   UNK N   1      33.134  15.189   2.598  0.00  0.00     0.210 HD
ENDBRANCH   5  21
BRANCH  19  23
HETATM   23  O   UNK N   1      29.726  18.379   8.876  0.00  0.00    -0.353 OA
HETATM   24  C   UNK N   1      29.228  17.715   9.973  0.00  0.00     0.210 C 
ENDBRANCH  19  23
TORSDOF 2
ENDMDL
MODEL 3
REMARK VINA RESULT:      -6.5     12.899     15.827
REMARK  2 active torsions:
REMARK  status: ('A' for Active; 'I' for Inactive)
REMARK    1  A    between atoms: C_7  and  O_2 
REMARK    2  A    between atoms: O_4  and  C_21 
ROOT
HETATM    1  O   UNK N   1      27.018  24.122  -3.704  0.00  0.00    -0.334 OA
HETATM    2  O   UNK N   1      25.347  23.467  -5.939  0.00  0.00    -0.295 OA
HETATM    3  N   UNK N   1      27.509  29.229  -3.941  0.00  0.00     0.092 N 
HETATM    4  C   UNK N   1      26.895  26.385  -4.291  0.00  0.00     0.058 C 
HETATM    5  C   UNK N   1      26.825  27.335  -5.487  0.00  0.00     0.104 C 
HETATM    6  C   UNK N   1      27.857  28.491  -5.180  0.00  0.00     0.262 C 
HETATM    7  C   UNK N   1      26.145  25.016  -4.343  0.00  0.00     0.214 C 
HETATM    8  C   UNK N   1      26.496  27.143  -3.009  0.00  0.00     0.051 C 
HETATM    9  C   UNK N   1      28.271  25.895  -4.116  0.00  0.00    -0.001 A 
HETATM   10  C   UNK N   1      27.182  26.562  -6.755  0.00  0.00     0.049 C 
HETATM   11  C   UNK N   1      29.325  27.968  -5.019  0.00  0.00     0.078 C 
HETATM   12  C   UNK N   1      27.382  28.369  -2.757  0.00  0.00     0.273 C 
HETATM   13  C   UNK N   1      29.428  26.616  -4.349  0.00  0.00    -0.046 A 
HETATM   14  C   UNK N   1      26.248  25.367  -6.991  0.00  0.00     0.084 C 
HETATM   15  C   UNK N   1      25.897  24.542  -5.768  0.00  0.00     0.157 C 
HETATM   16  C   UNK N   1      28.259  24.623  -3.685  0.00  0.00     0.111 A 
HETATM   17  C   UNK N   1      26.312  30.050  -4.086  0.00  0.00     0.310 C 
HETATM   18  C   UNK N   1      30.654  26.001  -4.047  0.00  0.00     0.011 A 
HETATM   19  C   UNK N   1      29.448  23.978  -3.329  0.00  0.00     0.102 A 
HETATM   20  C   UNK N   1      30.663  24.693  -3.501  0.00  0.00     0.040 A 
ENDROOT
BRANCH   5  21
HETATM   21  O   UNK N   1      25.528  27.846  -5.630  0.00  0.00    -0.386 OA
HETATM   22  H   UNK N   1      24.788  27.347  -6.006  0.00  0.00     0.210 HD
ENDBRANCH   5  21
BRANCH  19  23
HETATM   23  O   UNK N   1      29.414  22.717  -2.839  0.00  0.00    -0.353 OA
HETATM   24  C   UNK N   1      30.216  21.708  -3.321  0.00  0.00     0.210 C 
ENDBRANCH  19  23
TORSDOF 2
ENDMDL
MODEL 4
REMARK VINA RESULT:      -6.4      8.934     10.839
REMARK  2 active torsions:
REMARK  status: ('A' for Active; 'I' for Inactive)
REMARK    1  A    between atoms: C_7  and  O_2 
REMARK    2  A    between atoms: O_4  and  C_21 
ROOT
HETATM    1  O   UNK N   1      20.461  13.303   9.364  0.00  0.00    -0.334 OA
HETATM    2  O   UNK N   1      22.000  12.261  11.547  0.00  0.00    -0.295 OA
HETATM    3  N   UNK N   1      23.383  12.447   5.228  0.00  0.00     0.092 N 
HETATM    4  C   UNK N   1      22.163  12.680   7.882  0.00  0.00     0.058 C 
HETATM    5  C   UNK N   1      23.680  12.558   7.747  0.00  0.00     0.104 C 
HETATM    6  C   UNK N   1      24.039  13.179   6.339  0.00  0.00     0.262 C 
HETATM    7  C   UNK N   1      21.476  12.342   9.244  0.00  0.00     0.214 C 
HETATM    8  C   UNK N   1      21.480  11.887   6.750  0.00  0.00     0.051 C 
HETATM    9  C   UNK N   1      21.756  14.088   7.755  0.00  0.00    -0.001 A 
HETATM   10  C   UNK N   1      24.343  13.313   8.897  0.00  0.00     0.049 C 
HETATM   11  C   UNK N   1      23.627  14.686   6.217  0.00  0.00     0.078 C 
HETATM   12  C   UNK N   1      21.922  12.359   5.359  0.00  0.00     0.273 C 
HETATM   13  C   UNK N   1      22.339  15.033   6.931  0.00  0.00    -0.046 A 
HETATM   14  C   UNK N   1      23.905  12.785  10.270  0.00  0.00     0.084 C 
HETATM   15  C   UNK N   1      22.429  12.469  10.424  0.00  0.00     0.157 C 
HETATM   16  C   UNK N   1      20.714  14.344   8.562  0.00  0.00     0.111 A 
HETATM   17  C   UNK N   1      23.940  11.116   5.018  0.00  0.00     0.310 C 
HETATM   18  C   UNK N   1      21.759  16.311   6.888  0.00  0.00     0.011 A 
HETATM   19  C   UNK N   1      20.071  15.586   8.527  0.00  0.00     0.102 A 
HETATM   20  C   UNK N   1      20.600  16.578   7.659  0.00  0.00     0.040 A 
ENDROOT
BRANCH   5  21
HETATM   21  O   UNK N   1      24.071  11.215   7.816  0.00  0.00    -0.386 OA
HETATM   22  H   UNK N   1      24.492  10.735   7.087  0.00  0.00     0.210 HD
ENDBRANCH   5  21
BRANCH  19  23
HETATM   23  O   UNK N   1      18.985  15.809   9.302  0.00  0.00    -0.353 OA
HETATM   24  C   UNK N   1      18.177  16.913   9.155  0.00  0.00     0.210 C 
ENDBRANCH  19  23
TORSDOF 2
ENDMDL
MODEL 5
REMARK VINA RESULT:      -6.4      2.092      4.016
REMARK  2 active torsions:
REMARK  status: ('A' for Active; 'I' for Inactive)
REMARK    1  A    between atoms: C_7  and  O_2 
REMARK    2  A    between atoms: O_4  and  C_21 
ROOT
HETATM    1  O   UNK N   1      31.133  16.038   8.132  0.00  0.00    -0.334 OA
HETATM    2  O   UNK N   1      33.631  16.852   9.279  0.00  0.00    -0.295 OA
HETATM    3  N   UNK N   1      32.302  14.812   3.282  0.00  0.00     0.092 N 
HETATM    4  C   UNK N   1      32.213  15.636   6.094  0.00  0.00     0.058 C 
HETATM    5  C   UNK N   1      33.334  16.140   5.185  0.00  0.00     0.104 C 
HETATM    6  C   UNK N   1      32.728  16.162   3.726  0.00  0.00     0.262 C 
HETATM    7  C   UNK N   1      32.397  15.671   7.645  0.00  0.00     0.214 C 
HETATM    8  C   UNK N   1      31.797  14.217   5.657  0.00  0.00     0.051 C 
HETATM    9  C   UNK N   1      31.035  16.508   5.975  0.00  0.00    -0.001 A 
HETATM   10  C   UNK N   1      33.765  17.528   5.653  0.00  0.00     0.049 C 
HETATM   11  C   UNK N   1      31.489  17.113   3.598  0.00  0.00     0.078 C 
HETATM   12  C   UNK N   1      31.346  14.166   4.192  0.00  0.00     0.273 C 
HETATM   13  C   UNK N   1      30.603  17.141   4.823  0.00  0.00    -0.046 A 
HETATM   14  C   UNK N   1      34.246  17.528   7.111  0.00  0.00     0.084 C 
HETATM   15  C   UNK N   1      33.423  16.706   8.085  0.00  0.00     0.157 C 
HETATM   16  C   UNK N   1      30.413  16.612   7.160  0.00  0.00     0.111 A 
HETATM   17  C   UNK N   1      33.424  13.917   3.029  0.00  0.00     0.310 C 
HETATM   18  C   UNK N   1      29.406  17.873   4.888  0.00  0.00     0.011 A 
HETATM   19  C   UNK N   1      29.196  17.293   7.272  0.00  0.00     0.102 A 
HETATM   20  C   UNK N   1      28.681  17.918   6.105  0.00  0.00     0.040 A 
ENDROOT
BRANCH   5  21
HETATM   21  O   UNK N   1      34.441  15.285   5.254  0.00  0.00    -0.386 OA
HETATM   22  H   UNK N   1      35.344  15.582   5.442  0.00  0.00     0.210 HD
ENDBRANCH   5  21
BRANCH  19  23
HETATM   23  O   UNK N   1      28.551  17.337   8.460  0.00  0.00    -0.353 OA
HETATM   24  C   UNK N   1      28.759  18.335   9.385  0.00  0.00     0.210 C 
ENDBRANCH  19  23
TORSDOF 2
ENDMDL
MODEL 6
REMARK VINA RESULT:      -6.3      9.261     11.083
REMARK  2 active torsions:
REMARK  status: ('A' for Active; 'I' for Inactive)
REMARK    1  A    between atoms: C_7  and  O_2 
REMARK    2  A    between atoms: O_4  and  C_21 
ROOT
HETATM    1  O   UNK N   1      20.326  18.019   2.515  0.00  0.00    -0.334 OA
HETATM    2  O   UNK N   1      21.800  20.437   2.963  0.00  0.00    -0.295 OA
HETATM    3  N   UNK N   1      21.454  15.075   6.570  0.00  0.00     0.092 N 
HETATM    4  C   UNK N   1      21.171  17.147   4.517  0.00  0.00     0.058 C 
HETATM    5  C   UNK N   1      22.409  17.123   5.412  0.00  0.00     0.104 C 
HETATM    6  C   UNK N   1      22.616  15.611   5.820  0.00  0.00     0.262 C 
HETATM    7  C   UNK N   1      20.782  18.461   3.766  0.00  0.00     0.214 C 
HETATM    8  C   UNK N   1      19.954  16.628   5.309  0.00  0.00     0.051 C 
HETATM    9  C   UNK N   1      21.367  16.262   3.359  0.00  0.00    -0.001 A 
HETATM   10  C   UNK N   1      23.597  17.678   4.629  0.00  0.00     0.049 C 
HETATM   11  C   UNK N   1      22.850  14.675   4.585  0.00  0.00     0.078 C 
HETATM   12  C   UNK N   1      20.177  15.213   5.857  0.00  0.00     0.273 C 
HETATM   13  C   UNK N   1      22.055  15.063   3.358  0.00  0.00    -0.046 A 
HETATM   14  C   UNK N   1      23.350  19.109   4.133  0.00  0.00     0.084 C 
HETATM   15  C   UNK N   1      21.971  19.390   3.567  0.00  0.00     0.157 C 
HETATM   16  C   UNK N   1      20.772  16.781   2.272  0.00  0.00     0.111 A 
HETATM   17  C   UNK N   1      21.334  15.639   7.909  0.00  0.00     0.310 C 
HETATM   18  C   UNK N   1      22.067  14.316   2.168  0.00  0.00     0.011 A 
HETATM   19  C   UNK N   1      20.717  16.060   1.075  0.00  0.00     0.102 A 
HETATM   20  C   UNK N   1      21.365  14.797   1.035  0.00  0.00     0.040 A 
ENDROOT
BRANCH   5  21
HETATM   21  O   UNK N   1      22.211  17.924   6.544  0.00  0.00    -0.386 OA
HETATM   22  H   UNK N   1      22.886  18.083   7.220  0.00  0.00     0.210 HD
ENDBRANCH   5  21
BRANCH  19  23
HETATM   23  O   UNK N   1      20.061  16.570   0.007  0.00  0.00    -0.353 OA
HETATM   24  C   UNK N   1      18.785  16.187  -0.337  0.00  0.00     0.210 C 
ENDBRANCH  19  23
TORSDOF 2
ENDMDL
MODEL 7
REMARK VINA RESULT:      -6.2     13.813     15.712
REMARK  2 active torsions:
REMARK  status: ('A' for Active; 'I' for Inactive)
REMARK    1  A    between atoms: C_7  and  O_2 
REMARK    2  A    between atoms: O_4  and  C_21 
ROOT
HETATM    1  O   UNK N   1      25.257  24.382  -5.427  0.00  0.00    -0.334 OA
HETATM    2  O   UNK N   1      24.409  27.112  -5.644  0.00  0.00    -0.295 OA
HETATM    3  N   UNK N   1      30.298  24.689  -4.492  0.00  0.00     0.092 N 
HETATM    4  C   UNK N   1      27.448  25.106  -5.035  0.00  0.00     0.058 C 
HETATM    5  C   UNK N   1      28.464  26.186  -5.409  0.00  0.00     0.104 C 
HETATM    6  C   UNK N   1      29.819  25.424  -5.689  0.00  0.00     0.262 C 
HETATM    7  C   UNK N   1      25.939  25.480  -4.882  0.00  0.00     0.214 C 
HETATM    8  C   UNK N   1      27.926  24.368  -3.768  0.00  0.00     0.051 C 
HETATM    9  C   UNK N   1      27.339  24.118  -6.119  0.00  0.00    -0.001 A 
HETATM   10  C   UNK N   1      27.958  26.936  -6.640  0.00  0.00     0.049 C 
HETATM   11  C   UNK N   1      29.704  24.391  -6.861  0.00  0.00     0.078 C 
HETATM   12  C   UNK N   1      29.315  23.743  -3.948  0.00  0.00     0.273 C 
HETATM   13  C   UNK N   1      28.369  23.683  -6.931  0.00  0.00    -0.046 A 
HETATM   14  C   UNK N   1      26.585  27.581  -6.406  0.00  0.00     0.084 C 
HETATM   15  C   UNK N   1      25.570  26.736  -5.659  0.00  0.00     0.157 C 
HETATM   16  C   UNK N   1      26.074  23.678  -6.218  0.00  0.00     0.111 A 
HETATM   17  C   UNK N   1      30.769  25.574  -3.433  0.00  0.00     0.310 C 
HETATM   18  C   UNK N   1      28.086  22.671  -7.863  0.00  0.00     0.011 A 
HETATM   19  C   UNK N   1      25.746  22.642  -7.099  0.00  0.00     0.102 A 
HETATM   20  C   UNK N   1      26.780  22.123  -7.922  0.00  0.00     0.040 A 
ENDROOT
BRANCH   5  21
HETATM   21  O   UNK N   1      28.611  27.103  -4.361  0.00  0.00    -0.386 OA
HETATM   22  H   UNK N   1      27.884  27.626  -3.992  0.00  0.00     0.210 HD
ENDBRANCH   5  21
BRANCH  19  23
HETATM   23  O   UNK N   1      24.479  22.167  -7.144  0.00  0.00    -0.353 OA
HETATM   24  C   UNK N   1      24.112  20.968  -6.577  0.00  0.00     0.210 C 
ENDBRANCH  19  23
TORSDOF 2
ENDMDL
MODEL 8
REMARK VINA RESULT:      -6.2      9.313     11.579
REMARK  2 active torsions:
REMARK  status: ('A' for Active; 'I' for Inactive)
REMARK    1  A    between atoms: C_7  and  O_2 
REMARK    2  A    between atoms: O_4  and  C_21 
ROOT
HETATM    1  O   UNK N   1      21.245  14.751   0.765  0.00  0.00    -0.334 OA
HETATM    2  O   UNK N   1      19.774  16.880  -0.469  0.00  0.00    -0.295 OA
HETATM    3  N   UNK N   1      20.706  15.589   5.804  0.00  0.00     0.092 N 
HETATM    4  C   UNK N   1      20.680  15.598   2.873  0.00  0.00     0.058 C 
HETATM    5  C   UNK N   1      20.439  16.896   3.644  0.00  0.00     0.104 C 
HETATM    6  C   UNK N   1      21.213  16.736   5.011  0.00  0.00     0.262 C 
HETATM    7  C   UNK N   1      20.220  15.483   1.384  0.00  0.00     0.214 C 
HETATM    8  C   UNK N   1      20.117  14.410   3.679  0.00  0.00     0.051 C 
HETATM    9  C   UNK N   1      22.123  15.378   2.693  0.00  0.00    -0.001 A 
HETATM   10  C   UNK N   1      20.963  18.068   2.816  0.00  0.00     0.049 C 
HETATM   11  C   UNK N   1      22.754  16.527   4.816  0.00  0.00     0.078 C 
HETATM   12  C   UNK N   1      20.735  14.312   5.079  0.00  0.00     0.273 C 
HETATM   13  C   UNK N   1      23.116  15.704   3.599  0.00  0.00    -0.046 A 
HETATM   14  C   UNK N   1      20.292  18.155   1.439  0.00  0.00     0.084 C 
HETATM   15  C   UNK N   1      20.095  16.841   0.708  0.00  0.00     0.157 C 
HETATM   16  C   UNK N   1      22.359  14.801   1.504  0.00  0.00     0.111 A 
HETATM   17  C   UNK N   1      19.371  15.819   6.344  0.00  0.00     0.310 C 
HETATM   18  C   UNK N   1      24.436  15.342   3.283  0.00  0.00     0.011 A 
HETATM   19  C   UNK N   1      23.648  14.382   1.157  0.00  0.00     0.102 A 
HETATM   20  C   UNK N   1      24.698  14.647   2.076  0.00  0.00     0.040 A 
ENDROOT
BRANCH   5  21
HETATM   21  O   UNK N   1      19.069  17.087   3.863  0.00  0.00    -0.386 OA
HETATM   22  H   UNK N   1      18.706  17.687   4.532  0.00  0.00     0.210 HD
ENDBRANCH   5  21
BRANCH  19  23
HETATM   23  O   UNK N   1      23.860  13.747  -0.019  0.00  0.00    -0.353 OA
HETATM   24  C   UNK N   1      23.658  12.395  -0.183  0.00  0.00     0.210 C 
ENDBRANCH  19  23
TORSDOF 2
ENDMDL
MODEL 9
REMARK VINA RESULT:      -6.1      6.009      9.123
REMARK  2 active torsions:
REMARK  status: ('A' for Active; 'I' for Inactive)
REMARK    1  A    between atoms: C_7  and  O_2 
REMARK    2  A    between atoms: O_4  and  C_21 
ROOT
HETATM    1  O   UNK N   1      35.823  13.970  13.475  0.00  0.00    -0.334 OA
HETATM    2  O   UNK N   1      35.186  16.099  11.663  0.00  0.00    -0.295 OA
HETATM    3  N   UNK N   1      37.106  10.044  10.421  0.00  0.00     0.092 N 
HETATM    4  C   UNK N   1      36.290  12.575  11.653  0.00  0.00     0.058 C 
HETATM    5  C   UNK N   1      35.860  12.248  10.223  0.00  0.00     0.104 C 
HETATM    6  C   UNK N   1      35.790  10.671  10.144  0.00  0.00     0.262 C 
HETATM    7  C   UNK N   1      36.273  14.057  12.149  0.00  0.00     0.214 C 
HETATM    8  C   UNK N   1      37.675  11.957  11.928  0.00  0.00     0.051 C 
HETATM    9  C   UNK N   1      35.338  11.994  12.613  0.00  0.00    -0.001 A 
HETATM   10  C   UNK N   1      34.507  12.901   9.952  0.00  0.00     0.049 C 
HETATM   11  C   UNK N   1      34.757  10.058  11.150  0.00  0.00     0.078 C 
HETATM   12  C   UNK N   1      37.689  10.438  11.710  0.00  0.00     0.273 C 
HETATM   13  C   UNK N   1      34.673  10.790  12.472  0.00  0.00    -0.046 A 
HETATM   14  C   UNK N   1      34.545  14.423  10.141  0.00  0.00     0.084 C 
HETATM   15  C   UNK N   1      35.313  14.926  11.349  0.00  0.00     0.157 C 
HETATM   16  C   UNK N   1      35.197  12.804  13.674  0.00  0.00     0.111 A 
HETATM   17  C   UNK N   1      38.076  10.265   9.354  0.00  0.00     0.310 C 
HETATM   18  C   UNK N   1      33.861  10.362  13.535  0.00  0.00     0.011 A 
HETATM   19  C   UNK N   1      34.435  12.408  14.778  0.00  0.00     0.102 A 
HETATM   20  C   UNK N   1      33.771  11.155  14.706  0.00  0.00     0.040 A 
ENDROOT
BRANCH   5  21
HETATM   21  O   UNK N   1      36.789  12.755   9.305  0.00  0.00    -0.386 OA
HETATM   22  H   UNK N   1      36.749  13.648   8.932  0.00  0.00     0.210 HD
ENDBRANCH   5  21
BRANCH  19  23
HETATM   23  O   UNK N   1      34.352  13.209  15.866  0.00  0.00    -0.353 OA
HETATM   24  C   UNK N   1      35.031  12.952  17.035  0.00  0.00     0.210 C 
ENDBRANCH  19  23
TORSDOF 2
ENDMDL
