MODEL 1
REMARK VINA RESULT:      -6.7      0.000      0.000
REMARK  5 active torsions:
REMARK  status: ('A' for Active; 'I' for Inactive)
REMARK    1  A    between atoms: C_6  and  O_12 
REMARK    2  A    between atoms: C_7  and  C_9 
REMARK    3  A    between atoms: C_9  and  O_10 
REMARK    4  A    between atoms: O_12  and  C_14 
REMARK    5  A    between atoms: C_14  and  C_15 
ROOT
HETATM    1  C   UNK N   1      32.762  25.504  -4.819  0.00  0.00     0.039 C 
HETATM    2  C   UNK N   1      32.004  26.418  -5.776  0.00  0.00     0.038 C 
HETATM    3  C   UNK N   1      29.807  26.018  -4.837  0.00  0.00     0.069 C 
HETATM    4  N   UNK N   1      31.183  24.268  -6.040  0.00  0.00     0.094 N 
HETATM    5  C   UNK N   1      30.128  23.266  -6.176  0.00  0.00     0.310 C 
HETATM    6  C   UNK N   1      29.738  24.964  -3.727  0.00  0.00     0.150 C 
HETATM    7  C   UNK N   1      31.073  24.184  -3.538  0.00  0.00     0.148 C 
HETATM    8  C   UNK N   1      31.976  24.191  -4.812  0.00  0.00     0.239 C 
HETATM    9  C   UNK N   1      30.725  25.661  -6.029  0.00  0.00     0.225 C 
ENDROOT
BRANCH   6  10
HETATM   10  O   UNK N   1      28.649  24.123  -3.911  0.00  0.00    -0.311 OA
BRANCH  10  11
HETATM   11  C   UNK N   1      27.421  24.435  -3.422  0.00  0.00     0.293 C 
HETATM   12  O   UNK N   1      27.005  23.829  -2.444  0.00  0.00    -0.259 OA
BRANCH  11  13
HETATM   13  C   UNK N   1      26.580  25.506  -4.024  0.00  0.00     0.039 A 
HETATM   14  C   UNK N   1      25.935  25.288  -5.250  0.00  0.00     0.017 A 
HETATM   15  C   UNK N   1      25.115  26.276  -5.806  0.00  0.00     0.001 A 
HETATM   16  C   UNK N   1      24.944  27.495  -5.147  0.00  0.00     0.000 A 
HETATM   17  C   UNK N   1      25.600  27.732  -3.938  0.00  0.00     0.001 A 
HETATM   18  C   UNK N   1      26.414  26.743  -3.382  0.00  0.00     0.017 A 
ENDBRANCH  11  13
ENDBRANCH  10  11
ENDBRANCH   6  10
BRANCH   7  19
HETATM   19  C   UNK N   1      30.893  22.947  -2.648  0.00  0.00     0.267 C 
HETATM   20  O   UNK N   1      30.407  23.127  -1.543  0.00  0.00    -0.265 OA
BRANCH  19  21
HETATM   21  O   UNK N   1      31.240  21.670  -2.975  0.00  0.00    -0.326 OA
HETATM   22  C   UNK N   1      30.552  20.801  -3.781  0.00  0.00     0.213 C 
ENDBRANCH  19  21
ENDBRANCH   7  19
TORSDOF 5
ENDMDL
MODEL 2
REMARK VINA RESULT:      -6.3      1.555      3.221
REMARK  5 active torsions:
REMARK  status: ('A' for Active; 'I' for Inactive)
REMARK    1  A    between atoms: C_6  and  O_12 
REMARK    2  A    between atoms: C_7  and  C_9 
REMARK    3  A    between atoms: C_9  and  O_10 
REMARK    4  A    between atoms: O_12  and  C_14 
REMARK    5  A    between atoms: C_14  and  C_15 
ROOT
HETATM    1  C   UNK N   1      31.671  21.186  -4.709  0.00  0.00     0.039 C 
HETATM    2  C   UNK N   1      32.015  21.393  -3.237  0.00  0.00     0.038 C 
HETATM    3  C   UNK N   1      29.986  22.583  -2.658  0.00  0.00     0.069 C 
HETATM    4  N   UNK N   1      31.767  23.479  -4.215  0.00  0.00     0.094 N 
HETATM    5  C   UNK N   1      31.276  24.854  -4.285  0.00  0.00     0.310 C 
HETATM    6  C   UNK N   1      29.042  22.898  -3.824  0.00  0.00     0.150 C 
HETATM    7  C   UNK N   1      29.657  22.572  -5.217  0.00  0.00     0.148 C 
HETATM    8  C   UNK N   1      31.218  22.558  -5.212  0.00  0.00     0.239 C 
HETATM    9  C   UNK N   1      31.489  22.779  -2.957  0.00  0.00     0.225 C 
ENDROOT
BRANCH   6  10
HETATM   10  O   UNK N   1      28.569  24.200  -3.739  0.00  0.00    -0.311 OA
BRANCH  10  11
HETATM   11  C   UNK N   1      27.296  24.470  -3.352  0.00  0.00     0.293 C 
HETATM   12  O   UNK N   1      26.799  23.802  -2.454  0.00  0.00    -0.259 OA
BRANCH  11  13
HETATM   13  C   UNK N   1      26.497  25.564  -3.968  0.00  0.00     0.039 A 
HETATM   14  C   UNK N   1      25.829  25.349  -5.183  0.00  0.00     0.017 A 
HETATM   15  C   UNK N   1      25.049  26.362  -5.752  0.00  0.00     0.001 A 
HETATM   16  C   UNK N   1      24.941  27.602  -5.119  0.00  0.00     0.000 A 
HETATM   17  C   UNK N   1      25.622  27.835  -3.922  0.00  0.00     0.001 A 
HETATM   18  C   UNK N   1      26.396  26.822  -3.353  0.00  0.00     0.017 A 
ENDBRANCH  11  13
ENDBRANCH  10  11
ENDBRANCH   6  10
BRANCH   7  19
HETATM   19  C   UNK N   1      28.830  23.171  -6.363  0.00  0.00     0.267 C 
HETATM   20  O   UNK N   1      27.725  22.690  -6.557  0.00  0.00    -0.265 OA
BRANCH  19  21
HETATM   21  O   UNK N   1      29.224  24.179  -7.191  0.00  0.00    -0.326 OA
HETATM   22  C   UNK N   1      28.951  25.516  -7.063  0.00  0.00     0.213 C 
ENDBRANCH  19  21
ENDBRANCH   7  19
TORSDOF 5
ENDMDL
MODEL 3
REMARK VINA RESULT:      -6.2      2.555      5.597
REMARK  5 active torsions:
REMARK  status: ('A' for Active; 'I' for Inactive)
REMARK    1  A    between atoms: C_6  and  O_12 
REMARK    2  A    between atoms: C_7  and  C_9 
REMARK    3  A    between atoms: C_9  and  O_10 
REMARK    4  A    between atoms: O_12  and  C_14 
REMARK    5  A    between atoms: C_14  and  C_15 
ROOT
HETATM    1  C   UNK N   1      27.184  29.499  -5.157  0.00  0.00     0.039 C 
HETATM    2  C   UNK N   1      26.251  29.502  -3.950  0.00  0.00     0.038 C 
HETATM    3  C   UNK N   1      26.788  27.263  -3.197  0.00  0.00     0.069 C 
HETATM    4  N   UNK N   1      25.588  27.789  -5.362  0.00  0.00     0.094 N 
HETATM    5  C   UNK N   1      25.165  26.426  -5.674  0.00  0.00     0.310 C 
HETATM    6  C   UNK N   1      27.728  26.462  -4.105  0.00  0.00     0.150 C 
HETATM    7  C   UNK N   1      28.012  27.163  -5.466  0.00  0.00     0.148 C 
HETATM    8  C   UNK N   1      26.901  28.179  -5.879  0.00  0.00     0.239 C 
HETATM    9  C   UNK N   1      25.712  28.094  -3.933  0.00  0.00     0.225 C 
ENDROOT
BRANCH   6  10
HETATM   10  O   UNK N   1      27.273  25.159  -4.259  0.00  0.00    -0.311 OA
BRANCH  10  11
HETATM   11  C   UNK N   1      27.657  24.169  -3.412  0.00  0.00     0.293 C 
HETATM   12  O   UNK N   1      26.908  23.853  -2.497  0.00  0.00    -0.259 OA
BRANCH  11  13
HETATM   13  C   UNK N   1      28.946  23.443  -3.578  0.00  0.00     0.039 A 
HETATM   14  C   UNK N   1      29.802  23.270  -2.480  0.00  0.00     0.017 A 
HETATM   15  C   UNK N   1      30.999  22.559  -2.619  0.00  0.00     0.001 A 
HETATM   16  C   UNK N   1      31.357  22.027  -3.860  0.00  0.00     0.000 A 
HETATM   17  C   UNK N   1      30.524  22.214  -4.964  0.00  0.00     0.001 A 
HETATM   18  C   UNK N   1      29.327  22.919  -4.823  0.00  0.00     0.017 A 
ENDBRANCH  11  13
ENDBRANCH  10  11
ENDBRANCH   6  10
BRANCH   7  19
HETATM   19  C   UNK N   1      28.695  26.220  -6.466  0.00  0.00     0.267 C 
HETATM   20  O   UNK N   1      29.864  25.941  -6.252  0.00  0.00    -0.265 OA
BRANCH  19  21
HETATM   21  O   UNK N   1      28.119  25.678  -7.576  0.00  0.00    -0.326 OA
HETATM   22  C   UNK N   1      27.572  24.428  -7.704  0.00  0.00     0.213 C 
ENDBRANCH  19  21
ENDBRANCH   7  19
TORSDOF 5
ENDMDL
MODEL 4
REMARK VINA RESULT:      -6.2      2.403      5.321
REMARK  5 active torsions:
REMARK  status: ('A' for Active; 'I' for Inactive)
REMARK    1  A    between atoms: C_6  and  O_12 
REMARK    2  A    between atoms: C_7  and  C_9 
REMARK    3  A    between atoms: C_9  and  O_10 
REMARK    4  A    between atoms: O_12  and  C_14 
REMARK    5  A    between atoms: C_14  and  C_15 
ROOT
HETATM    1  C   UNK N   1      25.902  27.847  -3.348  0.00  0.00     0.039 C 
HETATM    2  C   UNK N   1      25.437  28.461  -4.664  0.00  0.00     0.038 C 
HETATM    3  C   UNK N   1      25.464  26.401  -5.940  0.00  0.00     0.069 C 
HETATM    4  N   UNK N   1      27.529  27.528  -5.009  0.00  0.00     0.094 N 
HETATM    5  C   UNK N   1      28.517  26.735  -5.738  0.00  0.00     0.310 C 
HETATM    6  C   UNK N   1      26.007  25.170  -5.206  0.00  0.00     0.150 C 
HETATM    7  C   UNK N   1      26.639  25.509  -3.823  0.00  0.00     0.148 C 
HETATM    8  C   UNK N   1      27.117  26.991  -3.712  0.00  0.00     0.239 C 
HETATM    9  C   UNK N   1      26.245  27.712  -5.693  0.00  0.00     0.225 C 
ENDROOT
BRANCH   6  10
HETATM   10  O   UNK N   1      26.864  24.446  -6.023  0.00  0.00    -0.311 OA
BRANCH  10  11
HETATM   11  C   UNK N   1      26.526  23.218  -6.494  0.00  0.00     0.293 C 
HETATM   12  O   UNK N   1      25.341  22.925  -6.580  0.00  0.00    -0.259 OA
BRANCH  11  13
HETATM   13  C   UNK N   1      27.550  22.230  -6.930  0.00  0.00     0.039 A 
HETATM   14  C   UNK N   1      27.267  21.337  -7.974  0.00  0.00     0.017 A 
HETATM   15  C   UNK N   1      28.236  20.428  -8.412  0.00  0.00     0.001 A 
HETATM   16  C   UNK N   1      29.492  20.395  -7.802  0.00  0.00     0.000 A 
HETATM   17  C   UNK N   1      29.776  21.262  -6.745  0.00  0.00     0.001 A 
HETATM   18  C   UNK N   1      28.809  22.172  -6.312  0.00  0.00     0.017 A 
ENDBRANCH  11  13
ENDBRANCH  10  11
ENDBRANCH   6  10
BRANCH   7  19
HETATM   19  C   UNK N   1      27.437  24.328  -3.253  0.00  0.00     0.267 C 
HETATM   20  O   UNK N   1      26.821  23.518  -2.580  0.00  0.00    -0.265 OA
BRANCH  19  21
HETATM   21  O   UNK N   1      28.773  24.112  -3.419  0.00  0.00    -0.326 OA
HETATM   22  C   UNK N   1      29.564  23.228  -2.733  0.00  0.00     0.213 C 
ENDBRANCH  19  21
ENDBRANCH   7  19
TORSDOF 5
ENDMDL
MODEL 5
REMARK VINA RESULT:      -6.1     16.128     18.816
REMARK  5 active torsions:
REMARK  status: ('A' for Active; 'I' for Inactive)
REMARK    1  A    between atoms: C_6  and  O_12 
REMARK    2  A    between atoms: C_7  and  C_9 
REMARK    3  A    between atoms: C_9  and  O_10 
REMARK    4  A    between atoms: O_12  and  C_14 
REMARK    5  A    between atoms: C_14  and  C_15 
ROOT
HETATM    1  C   UNK N   1      38.012  11.933  10.440  0.00  0.00     0.039 C 
HETATM    2  C   UNK N   1      37.990  12.252   8.948  0.00  0.00     0.038 C 
HETATM    3  C   UNK N   1      36.942  14.426   9.160  0.00  0.00     0.069 C 
HETATM    4  N   UNK N   1      35.802  12.234   9.709  0.00  0.00     0.094 N 
HETATM    5  C   UNK N   1      34.443  12.759   9.832  0.00  0.00     0.310 C 
HETATM    6  C   UNK N   1      36.502  14.819  10.575  0.00  0.00     0.150 C 
HETATM    7  C   UNK N   1      36.626  13.655  11.602  0.00  0.00     0.148 C 
HETATM    8  C   UNK N   1      36.598  12.242  10.937  0.00  0.00     0.239 C 
HETATM    9  C   UNK N   1      36.668  12.955   8.770  0.00  0.00     0.225 C 
ENDROOT
BRANCH   6  10
HETATM   10  O   UNK N   1      35.235  15.385  10.558  0.00  0.00    -0.311 OA
BRANCH  10  11
HETATM   11  C   UNK N   1      35.001  16.583   9.963  0.00  0.00     0.293 C 
HETATM   12  O   UNK N   1      35.608  17.568  10.362  0.00  0.00    -0.259 OA
BRANCH  11  13
HETATM   13  C   UNK N   1      34.050  16.729   8.827  0.00  0.00     0.039 A 
HETATM   14  C   UNK N   1      32.833  16.030   8.835  0.00  0.00     0.017 A 
HETATM   15  C   UNK N   1      31.919  16.188   7.788  0.00  0.00     0.001 A 
HETATM   16  C   UNK N   1      32.218  17.035   6.718  0.00  0.00     0.000 A 
HETATM   17  C   UNK N   1      33.436  17.715   6.688  0.00  0.00     0.001 A 
HETATM   18  C   UNK N   1      34.346  17.561   7.737  0.00  0.00     0.017 A 
ENDBRANCH  11  13
ENDBRANCH  10  11
ENDBRANCH   6  10
BRANCH   7  19
HETATM   19  C   UNK N   1      35.904  13.972  12.918  0.00  0.00     0.267 C 
HETATM   20  O   UNK N   1      36.397  14.839  13.623  0.00  0.00    -0.265 OA
BRANCH  19  21
HETATM   21  O   UNK N   1      34.773  13.365  13.377  0.00  0.00    -0.326 OA
HETATM   22  C   UNK N   1      34.689  12.227  14.136  0.00  0.00     0.213 C 
ENDBRANCH  19  21
ENDBRANCH   7  19
TORSDOF 5
ENDMDL
MODEL 6
REMARK VINA RESULT:      -6.1     10.897     13.412
REMARK  5 active torsions:
REMARK  status: ('A' for Active; 'I' for Inactive)
REMARK    1  A    between atoms: C_6  and  O_12 
REMARK    2  A    between atoms: C_7  and  C_9 
REMARK    3  A    between atoms: C_9  and  O_10 
REMARK    4  A    between atoms: O_12  and  C_14 
REMARK    5  A    between atoms: C_14  and  C_15 
ROOT
HETATM    1  C   UNK N   1      20.083  16.560   5.804  0.00  0.00     0.039 C 
HETATM    2  C   UNK N   1      21.312  16.360   6.686  0.00  0.00     0.038 C 
HETATM    3  C   UNK N   1      22.672  18.067   5.636  0.00  0.00     0.069 C 
HETATM    4  N   UNK N   1      21.928  15.935   4.494  0.00  0.00     0.094 N 
HETATM    5  C   UNK N   1      22.797  16.040   3.323  0.00  0.00     0.310 C 
HETATM    6  C   UNK N   1      22.058  18.745   4.405  0.00  0.00     0.150 C 
HETATM    7  C   UNK N   1      20.741  18.067   3.925  0.00  0.00     0.148 C 
HETATM    8  C   UNK N   1      20.618  16.576   4.370  0.00  0.00     0.239 C 
HETATM    9  C   UNK N   1      22.456  16.539   5.721  0.00  0.00     0.225 C 
ENDROOT
BRANCH   6  10
HETATM   10  O   UNK N   1      22.997  18.870   3.391  0.00  0.00    -0.311 OA
BRANCH  10  11
HETATM   11  C   UNK N   1      23.944  19.843   3.416  0.00  0.00     0.293 C 
HETATM   12  O   UNK N   1      23.625  20.984   3.107  0.00  0.00    -0.259 OA
BRANCH  11  13
HETATM   13  C   UNK N   1      25.347  19.570   3.831  0.00  0.00     0.039 A 
HETATM   14  C   UNK N   1      25.908  18.302   3.623  0.00  0.00     0.017 A 
HETATM   15  C   UNK N   1      27.236  18.047   3.979  0.00  0.00     0.001 A 
HETATM   16  C   UNK N   1      28.012  19.054   4.559  0.00  0.00     0.000 A 
HETATM   17  C   UNK N   1      27.456  20.312   4.794  0.00  0.00     0.001 A 
HETATM   18  C   UNK N   1      26.131  20.567   4.433  0.00  0.00     0.017 A 
ENDBRANCH  11  13
ENDBRANCH  10  11
ENDBRANCH   6  10
BRANCH   7  19
HETATM   19  C   UNK N   1      20.316  18.561   2.535  0.00  0.00     0.267 C 
HETATM   20  O   UNK N   1      20.134  17.710   1.678  0.00  0.00    -0.265 OA
BRANCH  19  21
HETATM   21  O   UNK N   1      20.138  19.862   2.168  0.00  0.00    -0.326 OA
HETATM   22  C   UNK N   1      20.794  20.545   1.178  0.00  0.00     0.213 C 
ENDBRANCH  19  21
ENDBRANCH   7  19
TORSDOF 5
ENDMDL
MODEL 7
REMARK VINA RESULT:      -6.1     15.512     17.726
REMARK  5 active torsions:
REMARK  status: ('A' for Active; 'I' for Inactive)
REMARK    1  A    between atoms: C_6  and  O_12 
REMARK    2  A    between atoms: C_7  and  C_9 
REMARK    3  A    between atoms: C_9  and  O_10 
REMARK    4  A    between atoms: O_12  and  C_14 
REMARK    5  A    between atoms: C_14  and  C_15 
ROOT
HETATM    1  C   UNK N   1      21.577  17.450   3.852  0.00  0.00     0.039 C 
HETATM    2  C   UNK N   1      22.947  17.458   4.524  0.00  0.00     0.038 C 
HETATM    3  C   UNK N   1      22.657  15.382   5.739  0.00  0.00     0.069 C 
HETATM    4  N   UNK N   1      21.335  17.492   6.187  0.00  0.00     0.094 N 
HETATM    5  C   UNK N   1      20.730  17.066   7.447  0.00  0.00     0.310 C 
HETATM    6  C   UNK N   1      21.272  14.735   5.631  0.00  0.00     0.150 C 
HETATM    7  C   UNK N   1      20.225  15.639   4.916  0.00  0.00     0.148 C 
HETATM    8  C   UNK N   1      20.581  17.159   4.977  0.00  0.00     0.239 C 
HETATM    9  C   UNK N   1      22.654  16.919   5.901  0.00  0.00     0.225 C 
ENDROOT
BRANCH   6  10
HETATM   10  O   UNK N   1      20.837  14.290   6.871  0.00  0.00    -0.311 OA
BRANCH  10  11
HETATM   11  C   UNK N   1      21.029  13.006   7.273  0.00  0.00     0.293 C 
HETATM   12  O   UNK N   1      20.569  12.101   6.590  0.00  0.00    -0.259 OA
BRANCH  11  13
HETATM   13  C   UNK N   1      21.800  12.670   8.501  0.00  0.00     0.039 A 
HETATM   14  C   UNK N   1      21.211  12.818   9.765  0.00  0.00     0.017 A 
HETATM   15  C   UNK N   1      21.916  12.472  10.922  0.00  0.00     0.001 A 
HETATM   16  C   UNK N   1      23.223  11.987  10.826  0.00  0.00     0.000 A 
HETATM   17  C   UNK N   1      23.828  11.858   9.575  0.00  0.00     0.001 A 
HETATM   18  C   UNK N   1      23.120  12.200   8.420  0.00  0.00     0.017 A 
ENDBRANCH  11  13
ENDBRANCH  10  11
ENDBRANCH   6  10
BRANCH   7  19
HETATM   19  C   UNK N   1      18.795  15.109   5.089  0.00  0.00     0.267 C 
HETATM   20  O   UNK N   1      17.978  15.874   5.578  0.00  0.00    -0.265 OA
BRANCH  19  21
HETATM   21  O   UNK N   1      18.360  13.860   4.760  0.00  0.00    -0.326 OA
HETATM   22  C   UNK N   1      18.738  13.105   3.681  0.00  0.00     0.213 C 
ENDBRANCH  19  21
ENDBRANCH   7  19
TORSDOF 5
ENDMDL
MODEL 8
REMARK VINA RESULT:      -6.1      3.475      5.202
REMARK  5 active torsions:
REMARK  status: ('A' for Active; 'I' for Inactive)
REMARK    1  A    between atoms: C_6  and  O_12 
REMARK    2  A    between atoms: C_7  and  C_9 
REMARK    3  A    between atoms: C_9  and  O_10 
REMARK    4  A    between atoms: O_12  and  C_14 
REMARK    5  A    between atoms: C_14  and  C_15 
ROOT
HETATM    1  C   UNK N   1      28.684  21.057  -7.478  0.00  0.00     0.039 C 
HETATM    2  C   UNK N   1      29.595  21.693  -6.432  0.00  0.00     0.038 C 
HETATM    3  C   UNK N   1      27.998  23.344  -5.663  0.00  0.00     0.069 C 
HETATM    4  N   UNK N   1      29.027  23.326  -7.974  0.00  0.00     0.094 N 
HETATM    5  C   UNK N   1      28.583  24.657  -8.384  0.00  0.00     0.310 C 
HETATM    6  C   UNK N   1      26.674  23.400  -6.433  0.00  0.00     0.150 C 
HETATM    7  C   UNK N   1      26.670  22.515  -7.714  0.00  0.00     0.148 C 
HETATM    8  C   UNK N   1      28.102  22.231  -8.269  0.00  0.00     0.239 C 
HETATM    9  C   UNK N   1      29.260  23.159  -6.536  0.00  0.00     0.225 C 
ENDROOT
BRANCH   6  10
HETATM   10  O   UNK N   1      26.308  24.714  -6.689  0.00  0.00    -0.311 OA
BRANCH  10  11
HETATM   11  C   UNK N   1      25.666  25.467  -5.759  0.00  0.00     0.293 C 
HETATM   12  O   UNK N   1      24.728  24.974  -5.146  0.00  0.00    -0.259 OA
BRANCH  11  13
HETATM   13  C   UNK N   1      26.084  26.861  -5.445  0.00  0.00     0.039 A 
HETATM   14  C   UNK N   1      25.547  27.523  -4.331  0.00  0.00     0.017 A 
HETATM   15  C   UNK N   1      25.959  28.821  -4.010  0.00  0.00     0.001 A 
HETATM   16  C   UNK N   1      26.903  29.473  -4.808  0.00  0.00     0.000 A 
HETATM   17  C   UNK N   1      27.426  28.833  -5.933  0.00  0.00     0.001 A 
HETATM   18  C   UNK N   1      27.016  27.535  -6.249  0.00  0.00     0.017 A 
ENDBRANCH  11  13
ENDBRANCH  10  11
ENDBRANCH   6  10
BRANCH   7  19
HETATM   19  C   UNK N   1      25.469  22.819  -8.619  0.00  0.00     0.267 C 
HETATM   20  O   UNK N   1      24.374  22.447  -8.227  0.00  0.00    -0.265 OA
BRANCH  19  21
HETATM   21  O   UNK N   1      25.516  23.454  -9.824  0.00  0.00    -0.326 OA
HETATM   22  C   UNK N   1      25.302  24.785 -10.072  0.00  0.00     0.213 C 
ENDBRANCH  19  21
ENDBRANCH   7  19
TORSDOF 5
ENDMDL
MODEL 9
REMARK VINA RESULT:      -6.1     11.114     13.369
REMARK  5 active torsions:
REMARK  status: ('A' for Active; 'I' for Inactive)
REMARK    1  A    between atoms: C_6  and  O_12 
REMARK    2  A    between atoms: C_7  and  C_9 
REMARK    3  A    between atoms: C_9  and  O_10 
REMARK    4  A    between atoms: O_12  and  C_14 
REMARK    5  A    between atoms: C_14  and  C_15 
ROOT
HETATM    1  C   UNK N   1      34.093  15.793   8.404  0.00  0.00     0.039 C 
HETATM    2  C   UNK N   1      33.901  17.212   8.930  0.00  0.00     0.038 C 
HETATM    3  C   UNK N   1      31.701  17.551   7.974  0.00  0.00     0.069 C 
HETATM    4  N   UNK N   1      33.820  17.289   6.616  0.00  0.00     0.094 N 
HETATM    5  C   UNK N   1      33.265  17.700   5.328  0.00  0.00     0.310 C 
HETATM    6  C   UNK N   1      31.182  16.421   7.077  0.00  0.00     0.150 C 
HETATM    7  C   UNK N   1      32.257  15.336   6.774  0.00  0.00     0.148 C 
HETATM    8  C   UNK N   1      33.720  15.861   6.921  0.00  0.00     0.239 C 
HETATM    9  C   UNK N   1      33.194  17.904   7.791  0.00  0.00     0.225 C 
ENDROOT
BRANCH   6  10
HETATM   10  O   UNK N   1      30.599  16.933   5.926  0.00  0.00    -0.311 OA
BRANCH  10  11
HETATM   11  C   UNK N   1      29.250  16.991   5.779  0.00  0.00     0.293 C 
HETATM   12  O   UNK N   1      28.619  15.944   5.719  0.00  0.00    -0.259 OA
BRANCH  11  13
HETATM   13  C   UNK N   1      28.517  18.284   5.713  0.00  0.00     0.039 A 
HETATM   14  C   UNK N   1      28.164  18.954   6.895  0.00  0.00     0.017 A 
HETATM   15  C   UNK N   1      27.505  20.186   6.841  0.00  0.00     0.001 A 
HETATM   16  C   UNK N   1      27.181  20.754   5.607  0.00  0.00     0.000 A 
HETATM   17  C   UNK N   1      27.505  20.084   4.425  0.00  0.00     0.001 A 
HETATM   18  C   UNK N   1      28.167  18.856   4.480  0.00  0.00     0.017 A 
ENDBRANCH  11  13
ENDBRANCH  10  11
ENDBRANCH   6  10
BRANCH   7  19
HETATM   19  C   UNK N   1      31.818  14.393   5.645  0.00  0.00     0.267 C 
HETATM   20  O   UNK N   1      30.954  13.573   5.915  0.00  0.00    -0.265 OA
BRANCH  19  21
HETATM   21  O   UNK N   1      32.315  14.379   4.376  0.00  0.00    -0.326 OA
HETATM   22  C   UNK N   1      31.688  14.800   3.233  0.00  0.00     0.213 C 
ENDBRANCH  19  21
ENDBRANCH   7  19
TORSDOF 5
ENDMDL
