REMARK  3 active torsions:
REMARK  status: ('A' for Active; 'I' for Inactive)
REMARK    1  A    between atoms: C_6  and  C_7 
REMARK    2  A    between atoms: C_6  and  C_8 
REMARK    3  A    between atoms: C_7  and  C_9 
ROOT
HETATM    1  O   UNK N   1       4.870   0.099  -1.647  0.00  0.00    -0.272 OA
HETATM    2  O   UNK N   1       1.043   0.379   1.090  0.00  0.00    -0.272 OA
HETATM    3  O   UNK N   1       3.255  -3.430   0.522  0.00  0.00    -0.247 OA
HETATM    4  N   UNK N   1       4.068  -1.662  -0.556  0.00  0.00    -0.278 N 
HETATM    5  N   UNK N   1       2.152  -1.522   0.810  0.00  0.00    -0.278 N 
HETATM    6  C   UNK N   1       2.915   0.563  -0.369  0.00  0.00     0.125 A 
HETATM    7  C   UNK N   1       4.018  -0.350  -0.895  0.00  0.00     0.244 A 
HETATM    8  C   UNK N   1       1.976  -0.204   0.558  0.00  0.00     0.244 A 
HETATM    9  C   UNK N   1       3.161  -2.242   0.267  0.00  0.00     0.329 A 
HETATM   10  H   UNK N   1       4.794  -2.216  -0.924  0.00  0.00     0.173 HD
HETATM   11  H   UNK N   1       1.520  -1.976   1.412  0.00  0.00     0.173 HD
ENDROOT
BRANCH   6  12
HETATM   12  C   UNK N   1       3.521   1.759   0.424  0.00  0.00     0.008 C 
HETATM   13  C   UNK N   1       4.421   1.317   1.572  0.00  0.00     0.011 C 
BRANCH  12  14
HETATM   14  C   UNK N   1       4.257   2.786  -0.428  0.00  0.00     0.001 C 
HETATM   15  C   UNK N   1       3.418   4.047  -0.528  0.00  0.00     0.005 C 
ENDBRANCH  12  14
ENDBRANCH   6  12
BRANCH   6  16
HETATM   16  C   UNK N   1       2.121   1.051  -1.600  0.00  0.00     0.025 C 
HETATM   17  C   UNK N   1       0.978   2.007  -1.285  0.00  0.00     0.007 C 
ENDBRANCH   6  16
TORSDOF 3
