MODEL 1
REMARK VINA RESULT:      -4.9      0.000      0.000
REMARK  8 active torsions:
REMARK  status: ('A' for Active; 'I' for Inactive)
REMARK    1  A    between atoms: C_2  and  C_3 
REMARK    2  A    between atoms: C_3  and  S_4 
REMARK    3  A    between atoms: S_4  and  C_5 
REMARK    4  A    between atoms: C_7  and  O_16 
REMARK    5  A    between atoms: C_8  and  C_13 
REMARK    6  A    between atoms: C_10  and  O_11 
REMARK    7  A    between atoms: C_13  and  C_14 
REMARK    8  A    between atoms: C_14  and  N_15 
ROOT
HETATM    1  C   UNK N   1      30.114  17.321   6.847  0.00  0.00     0.036 A 
HETATM    2  C   UNK N   1      31.194  17.111   5.985  0.00  0.00     0.058 A 
HETATM    3  C   UNK N   1      32.520  17.309   6.383  0.00  0.00     0.076 A 
HETATM    4  C   UNK N   1      32.779  17.724   7.718  0.00  0.00    -0.021 A 
HETATM    5  C   UNK N   1      31.694  17.919   8.586  0.00  0.00     0.048 A 
HETATM    6  C   UNK N   1      30.369  17.743   8.184  0.00  0.00     0.085 A 
ENDROOT
BRANCH   4   7
HETATM    7  C   UNK N   1      34.179  17.986   8.219  0.00  0.00     0.060 C 
BRANCH   7   8
HETATM    8  C   UNK N   1      34.798  16.840   9.010  0.00  0.00     0.115 C 
BRANCH   8   9
HETATM    9  N   UNK N   1      34.930  17.227  10.402  0.00  0.00    -0.430 N 
HETATM   10  H   UNK N   1      35.101  18.204  10.646  0.00  0.00     0.149 HD
HETATM   11  H   UNK N   1      34.851  16.525  11.137  0.00  0.00     0.149 HD
ENDBRANCH   8   9
ENDBRANCH   7   8
ENDBRANCH   4   7
BRANCH   3  12
HETATM   12  O   UNK N   1      33.483  17.106   5.440  0.00  0.00    -0.355 OA
HETATM   13  C   UNK N   1      33.850  15.903   4.885  0.00  0.00     0.210 C 
ENDBRANCH   3  12
BRANCH   6  14
HETATM   14  O   UNK N   1      29.415  18.016   9.114  0.00  0.00    -0.355 OA
HETATM   15  C   UNK N   1      28.917  17.157  10.060  0.00  0.00     0.210 C 
ENDBRANCH   6  14
BRANCH   1  16
HETATM   16  S   UNK N   1      28.472  17.105   6.126  0.00  0.00    -0.127 SA
BRANCH  16  17
HETATM   17  C   UNK N   1      28.344  18.746   5.354  0.00  0.00     0.079 C 
BRANCH  17  18
HETATM   18  C   UNK N   1      27.721  19.691   6.370  0.00  0.00     0.006 C 
HETATM   19  C   UNK N   1      27.358  21.010   5.720  0.00  0.00     0.006 C 
ENDBRANCH  17  18
ENDBRANCH  16  17
ENDBRANCH   1  16
TORSDOF 8
ENDMDL
MODEL 2
REMARK VINA RESULT:      -4.8      1.804      3.751
REMARK  8 active torsions:
REMARK  status: ('A' for Active; 'I' for Inactive)
REMARK    1  A    between atoms: C_2  and  C_3 
REMARK    2  A    between atoms: C_3  and  S_4 
REMARK    3  A    between atoms: S_4  and  C_5 
REMARK    4  A    between atoms: C_7  and  O_16 
REMARK    5  A    between atoms: C_8  and  C_13 
REMARK    6  A    between atoms: C_10  and  O_11 
REMARK    7  A    between atoms: C_13  and  C_14 
REMARK    8  A    between atoms: C_14  and  N_15 
ROOT
HETATM    1  C   UNK N   1      29.504  17.567   5.444  0.00  0.00     0.036 A 
HETATM    2  C   UNK N   1      29.241  17.649   6.815  0.00  0.00     0.058 A 
HETATM    3  C   UNK N   1      30.201  17.334   7.782  0.00  0.00     0.076 A 
HETATM    4  C   UNK N   1      31.496  16.931   7.355  0.00  0.00    -0.021 A 
HETATM    5  C   UNK N   1      31.763  16.865   5.979  0.00  0.00     0.048 A 
HETATM    6  C   UNK N   1      30.799  17.158   5.012  0.00  0.00     0.085 A 
ENDROOT
BRANCH   4   7
HETATM    7  C   UNK N   1      32.580  16.548   8.334  0.00  0.00     0.060 C 
BRANCH   7   8
HETATM    8  C   UNK N   1      32.439  15.150   8.926  0.00  0.00     0.115 C 
BRANCH   8   9
HETATM    9  N   UNK N   1      31.829  15.241  10.239  0.00  0.00    -0.430 N 
HETATM   10  H   UNK N   1      32.375  15.016  11.073  0.00  0.00     0.149 HD
HETATM   11  H   UNK N   1      30.855  15.529  10.331  0.00  0.00     0.149 HD
ENDBRANCH   8   9
ENDBRANCH   7   8
ENDBRANCH   4   7
BRANCH   3  12
HETATM   12  O   UNK N   1      29.812  17.418   9.085  0.00  0.00    -0.355 OA
HETATM   13  C   UNK N   1      29.595  18.568   9.806  0.00  0.00     0.210 C 
ENDBRANCH   3  12
BRANCH   6  14
HETATM   14  O   UNK N   1      31.179  17.004   3.715  0.00  0.00    -0.355 OA
HETATM   15  C   UNK N   1      32.453  17.082   3.215  0.00  0.00     0.210 C 
ENDBRANCH   6  14
BRANCH   1  16
HETATM   16  S   UNK N   1      28.113  17.922   4.348  0.00  0.00    -0.127 SA
BRANCH  16  17
HETATM   17  C   UNK N   1      27.201  19.011   5.483  0.00  0.00     0.079 C 
BRANCH  17  18
HETATM   18  C   UNK N   1      27.444  20.447   5.047  0.00  0.00     0.006 C 
HETATM   19  C   UNK N   1      27.386  21.384   6.235  0.00  0.00     0.006 C 
ENDBRANCH  17  18
ENDBRANCH  16  17
ENDBRANCH   1  16
TORSDOF 8
ENDMDL
MODEL 3
REMARK VINA RESULT:      -4.7      2.790      5.280
REMARK  8 active torsions:
REMARK  status: ('A' for Active; 'I' for Inactive)
REMARK    1  A    between atoms: C_2  and  C_3 
REMARK    2  A    between atoms: C_3  and  S_4 
REMARK    3  A    between atoms: S_4  and  C_5 
REMARK    4  A    between atoms: C_7  and  O_16 
REMARK    5  A    between atoms: C_8  and  C_13 
REMARK    6  A    between atoms: C_10  and  O_11 
REMARK    7  A    between atoms: C_13  and  C_14 
REMARK    8  A    between atoms: C_14  and  N_15 
ROOT
HETATM    1  C   UNK N   1      32.210  17.259   5.609  0.00  0.00     0.036 A 
HETATM    2  C   UNK N   1      30.859  16.900   5.601  0.00  0.00     0.058 A 
HETATM    3  C   UNK N   1      30.078  16.892   6.762  0.00  0.00     0.076 A 
HETATM    4  C   UNK N   1      30.678  17.279   7.992  0.00  0.00    -0.021 A 
HETATM    5  C   UNK N   1      32.030  17.654   7.995  0.00  0.00     0.048 A 
HETATM    6  C   UNK N   1      32.815  17.642   6.841  0.00  0.00     0.085 A 
ENDROOT
BRANCH   4   7
HETATM    7  C   UNK N   1      29.912  17.272   9.294  0.00  0.00     0.060 C 
BRANCH   7   8
HETATM    8  C   UNK N   1      29.075  18.520   9.548  0.00  0.00     0.115 C 
BRANCH   8   9
HETATM    9  N   UNK N   1      27.714  18.289   9.100  0.00  0.00    -0.430 N 
HETATM   10  H   UNK N   1      27.268  18.947   8.460  0.00  0.00     0.149 HD
HETATM   11  H   UNK N   1      27.202  17.468   9.425  0.00  0.00     0.149 HD
ENDBRANCH   8   9
ENDBRANCH   7   8
ENDBRANCH   4   7
BRANCH   3  12
HETATM   12  O   UNK N   1      28.784  16.488   6.630  0.00  0.00    -0.355 OA
HETATM   13  C   UNK N   1      27.927  16.795   5.600  0.00  0.00     0.210 C 
ENDBRANCH   3  12
BRANCH   6  14
HETATM   14  O   UNK N   1      34.123  17.981   6.998  0.00  0.00    -0.355 OA
HETATM   15  C   UNK N   1      34.730  18.414   8.150  0.00  0.00     0.210 C 
ENDBRANCH   6  14
BRANCH   1  16
HETATM   16  S   UNK N   1      33.076  17.118   4.031  0.00  0.00    -0.127 SA
BRANCH  16  17
HETATM   17  C   UNK N   1      33.844  15.499   4.337  0.00  0.00     0.079 C 
BRANCH  17  18
HETATM   18  C   UNK N   1      33.565  14.616   3.131  0.00  0.00     0.006 C 
HETATM   19  C   UNK N   1      32.079  14.358   2.989  0.00  0.00     0.006 C 
ENDBRANCH  17  18
ENDBRANCH  16  17
ENDBRANCH   1  16
TORSDOF 8
ENDMDL
MODEL 4
REMARK VINA RESULT:      -4.6      2.733      6.382
REMARK  8 active torsions:
REMARK  status: ('A' for Active; 'I' for Inactive)
REMARK    1  A    between atoms: C_2  and  C_3 
REMARK    2  A    between atoms: C_3  and  S_4 
REMARK    3  A    between atoms: S_4  and  C_5 
REMARK    4  A    between atoms: C_7  and  O_16 
REMARK    5  A    between atoms: C_8  and  C_13 
REMARK    6  A    between atoms: C_10  and  O_11 
REMARK    7  A    between atoms: C_13  and  C_14 
REMARK    8  A    between atoms: C_14  and  N_15 
ROOT
HETATM    1  C   UNK N   1      32.712  17.632   7.542  0.00  0.00     0.036 A 
HETATM    2  C   UNK N   1      31.742  17.852   8.524  0.00  0.00     0.058 A 
HETATM    3  C   UNK N   1      30.373  17.737   8.264  0.00  0.00     0.076 A 
HETATM    4  C   UNK N   1      29.953  17.369   6.957  0.00  0.00    -0.021 A 
HETATM    5  C   UNK N   1      30.928  17.133   5.976  0.00  0.00     0.048 A 
HETATM    6  C   UNK N   1      32.294  17.268   6.229  0.00  0.00     0.085 A 
ENDROOT
BRANCH   4   7
HETATM    7  C   UNK N   1      28.493  17.250   6.587  0.00  0.00     0.060 C 
BRANCH   7   8
HETATM    8  C   UNK N   1      27.829  18.562   6.184  0.00  0.00     0.115 C 
BRANCH   8   9
HETATM    9  N   UNK N   1      27.373  19.258   7.371  0.00  0.00    -0.430 N 
HETATM   10  H   UNK N   1      26.427  19.642   7.407  0.00  0.00     0.149 HD
HETATM   11  H   UNK N   1      27.996  19.365   8.172  0.00  0.00     0.149 HD
ENDBRANCH   8   9
ENDBRANCH   7   8
ENDBRANCH   4   7
BRANCH   3  12
HETATM   12  O   UNK N   1      29.525  18.012   9.295  0.00  0.00    -0.355 OA
HETATM   13  C   UNK N   1      29.056  17.123  10.234  0.00  0.00     0.210 C 
ENDBRANCH   3  12
BRANCH   6  14
HETATM   14  O   UNK N   1      33.127  17.059   5.173  0.00  0.00    -0.355 OA
HETATM   15  C   UNK N   1      32.834  17.236   3.845  0.00  0.00     0.210 C 
ENDBRANCH   6  14
BRANCH   1  16
HETATM   16  S   UNK N   1      34.424  17.918   8.041  0.00  0.00    -0.127 SA
BRANCH  16  17
HETATM   17  C   UNK N   1      34.647  16.379   8.981  0.00  0.00     0.079 C 
BRANCH  17  18
HETATM   18  C   UNK N   1      35.202  16.745  10.349  0.00  0.00     0.006 C 
HETATM   19  C   UNK N   1      36.185  15.696  10.825  0.00  0.00     0.006 C 
ENDBRANCH  17  18
ENDBRANCH  16  17
ENDBRANCH   1  16
TORSDOF 8
ENDMDL
MODEL 5
REMARK VINA RESULT:      -4.5      3.110      4.784
REMARK  8 active torsions:
REMARK  status: ('A' for Active; 'I' for Inactive)
REMARK    1  A    between atoms: C_2  and  C_3 
REMARK    2  A    between atoms: C_3  and  S_4 
REMARK    3  A    between atoms: S_4  and  C_5 
REMARK    4  A    between atoms: C_7  and  O_16 
REMARK    5  A    between atoms: C_8  and  C_13 
REMARK    6  A    between atoms: C_10  and  O_11 
REMARK    7  A    between atoms: C_13  and  C_14 
REMARK    8  A    between atoms: C_14  and  N_15 
ROOT
HETATM    1  C   UNK N   1      31.823  15.527   6.171  0.00  0.00     0.036 A 
HETATM    2  C   UNK N   1      32.651  16.336   6.955  0.00  0.00     0.058 A 
HETATM    3  C   UNK N   1      32.145  17.310   7.820  0.00  0.00     0.076 A 
HETATM    4  C   UNK N   1      30.735  17.473   7.918  0.00  0.00    -0.021 A 
HETATM    5  C   UNK N   1      29.906  16.649   7.143  0.00  0.00     0.048 A 
HETATM    6  C   UNK N   1      30.410  15.691   6.262  0.00  0.00     0.085 A 
ENDROOT
BRANCH   4   7
HETATM    7  C   UNK N   1      30.109  18.520   8.808  0.00  0.00     0.060 C 
BRANCH   7   8
HETATM    8  C   UNK N   1      28.850  18.067   9.538  0.00  0.00     0.115 C 
BRANCH   8   9
HETATM    9  N   UNK N   1      27.693  18.725   8.961  0.00  0.00    -0.430 N 
HETATM   10  H   UNK N   1      26.987  18.178   8.467  0.00  0.00     0.149 HD
HETATM   11  H   UNK N   1      27.584  19.736   9.050  0.00  0.00     0.149 HD
ENDBRANCH   8   9
ENDBRANCH   7   8
ENDBRANCH   4   7
BRANCH   3  12
HETATM   12  O   UNK N   1      33.055  18.060   8.503  0.00  0.00    -0.355 OA
HETATM   13  C   UNK N   1      34.369  18.274   8.158  0.00  0.00     0.210 C 
ENDBRANCH   3  12
BRANCH   6  14
HETATM   14  O   UNK N   1      29.493  14.997   5.535  0.00  0.00    -0.355 OA
HETATM   15  C   UNK N   1      28.142  15.227   5.478  0.00  0.00     0.210 C 
ENDBRANCH   6  14
BRANCH   1  16
HETATM   16  S   UNK N   1      32.661  14.390   5.045  0.00  0.00    -0.127 SA
BRANCH  16  17
HETATM   17  C   UNK N   1      33.812  15.597   4.319  0.00  0.00     0.079 C 
BRANCH  17  18
HETATM   18  C   UNK N   1      33.320  15.925   2.918  0.00  0.00     0.006 C 
HETATM   19  C   UNK N   1      32.292  17.036   2.959  0.00  0.00     0.006 C 
ENDBRANCH  17  18
ENDBRANCH  16  17
ENDBRANCH   1  16
TORSDOF 8
ENDMDL
MODEL 6
REMARK VINA RESULT:      -4.4      7.182      9.860
REMARK  8 active torsions:
REMARK  status: ('A' for Active; 'I' for Inactive)
REMARK    1  A    between atoms: C_2  and  C_3 
REMARK    2  A    between atoms: C_3  and  S_4 
REMARK    3  A    between atoms: S_4  and  C_5 
REMARK    4  A    between atoms: C_7  and  O_16 
REMARK    5  A    between atoms: C_8  and  C_13 
REMARK    6  A    between atoms: C_10  and  O_11 
REMARK    7  A    between atoms: C_13  and  C_14 
REMARK    8  A    between atoms: C_14  and  N_15 
ROOT
HETATM    1  C   UNK N   1      36.768  12.114  13.567  0.00  0.00     0.036 A 
HETATM    2  C   UNK N   1      36.280  11.765  12.304  0.00  0.00     0.058 A 
HETATM    3  C   UNK N   1      35.573  12.664  11.499  0.00  0.00     0.076 A 
HETATM    4  C   UNK N   1      35.356  13.986  11.978  0.00  0.00    -0.021 A 
HETATM    5  C   UNK N   1      35.860  14.339  13.239  0.00  0.00     0.048 A 
HETATM    6  C   UNK N   1      36.547  13.436  14.051  0.00  0.00     0.085 A 
ENDROOT
BRANCH   4   7
HETATM    7  C   UNK N   1      34.578  15.008  11.183  0.00  0.00     0.060 C 
BRANCH   7   8
HETATM    8  C   UNK N   1      35.433  15.924  10.313  0.00  0.00     0.115 C 
BRANCH   8   9
HETATM    9  N   UNK N   1      35.141  17.308  10.635  0.00  0.00    -0.430 N 
HETATM   10  H   UNK N   1      35.882  17.918  10.983  0.00  0.00     0.149 HD
HETATM   11  H   UNK N   1      34.196  17.672  10.514  0.00  0.00     0.149 HD
ENDBRANCH   8   9
ENDBRANCH   7   8
ENDBRANCH   4   7
BRANCH   3  12
HETATM   12  O   UNK N   1      35.118  12.194  10.304  0.00  0.00    -0.355 OA
HETATM   13  C   UNK N   1      35.836  12.083   9.137  0.00  0.00     0.210 C 
ENDBRANCH   3  12
BRANCH   6  14
HETATM   14  O   UNK N   1      36.935  13.897  15.271  0.00  0.00    -0.355 OA
HETATM   15  C   UNK N   1      37.245  15.191  15.602  0.00  0.00     0.210 C 
ENDBRANCH   6  14
BRANCH   1  16
HETATM   16  S   UNK N   1      37.575  10.793  14.497  0.00  0.00    -0.127 SA
BRANCH  16  17
HETATM   17  C   UNK N   1      36.122   9.713  14.665  0.00  0.00     0.079 C 
BRANCH  17  18
HETATM   18  C   UNK N   1      35.120  10.418  15.567  0.00  0.00     0.006 C 
HETATM   19  C   UNK N   1      33.804  10.623  14.846  0.00  0.00     0.006 C 
ENDBRANCH  17  18
ENDBRANCH  16  17
ENDBRANCH   1  16
TORSDOF 8
ENDMDL
MODEL 7
REMARK VINA RESULT:      -4.4     14.087     16.900
REMARK  8 active torsions:
REMARK  status: ('A' for Active; 'I' for Inactive)
REMARK    1  A    between atoms: C_2  and  C_3 
REMARK    2  A    between atoms: C_3  and  S_4 
REMARK    3  A    between atoms: S_4  and  C_5 
REMARK    4  A    between atoms: C_7  and  O_16 
REMARK    5  A    between atoms: C_8  and  C_13 
REMARK    6  A    between atoms: C_10  and  O_11 
REMARK    7  A    between atoms: C_13  and  C_14 
REMARK    8  A    between atoms: C_14  and  N_15 
ROOT
HETATM    1  C   UNK N   1      26.086  23.520  -7.378  0.00  0.00     0.036 A 
HETATM    2  C   UNK N   1      26.101  23.489  -5.980  0.00  0.00     0.058 A 
HETATM    3  C   UNK N   1      25.830  24.619  -5.203  0.00  0.00     0.076 A 
HETATM    4  C   UNK N   1      25.511  25.840  -5.858  0.00  0.00    -0.021 A 
HETATM    5  C   UNK N   1      25.480  25.865  -7.261  0.00  0.00     0.048 A 
HETATM    6  C   UNK N   1      25.772  24.743  -8.038  0.00  0.00     0.085 A 
ENDROOT
BRANCH   4   7
HETATM    7  C   UNK N   1      25.232  27.112  -5.093  0.00  0.00     0.060 C 
BRANCH   7   8
HETATM    8  C   UNK N   1      26.453  27.737  -4.428  0.00  0.00     0.115 C 
BRANCH   8   9
HETATM    9  N   UNK N   1      26.121  28.124  -3.070  0.00  0.00    -0.430 N 
HETATM   10  H   UNK N   1      26.349  29.060  -2.735  0.00  0.00     0.149 HD
HETATM   11  H   UNK N   1      25.658  27.460  -2.449  0.00  0.00     0.149 HD
ENDBRANCH   8   9
ENDBRANCH   7   8
ENDBRANCH   4   7
BRANCH   3  12
HETATM   12  O   UNK N   1      25.912  24.470  -3.851  0.00  0.00    -0.355 OA
HETATM   13  C   UNK N   1      27.050  24.236  -3.117  0.00  0.00     0.210 C 
ENDBRANCH   3  12
BRANCH   6  14
HETATM   14  O   UNK N   1      25.755  24.923  -9.387  0.00  0.00    -0.355 OA
HETATM   15  C   UNK N   1      25.252  26.001 -10.068  0.00  0.00     0.210 C 
ENDBRANCH   6  14
BRANCH   1  16
HETATM   16  S   UNK N   1      26.554  21.986  -8.210  0.00  0.00    -0.127 SA
BRANCH  16  17
HETATM   17  C   UNK N   1      28.208  21.824  -7.473  0.00  0.00     0.079 C 
BRANCH  17  18
HETATM   18  C   UNK N   1      28.973  20.781  -8.272  0.00  0.00     0.006 C 
HETATM   19  C   UNK N   1      29.506  19.694  -7.361  0.00  0.00     0.006 C 
ENDBRANCH  17  18
ENDBRANCH  16  17
ENDBRANCH   1  16
TORSDOF 8
ENDMDL
MODEL 8
REMARK VINA RESULT:      -4.3     13.525     15.467
REMARK  8 active torsions:
REMARK  status: ('A' for Active; 'I' for Inactive)
REMARK    1  A    between atoms: C_2  and  C_3 
REMARK    2  A    between atoms: C_3  and  S_4 
REMARK    3  A    between atoms: S_4  and  C_5 
REMARK    4  A    between atoms: C_7  and  O_16 
REMARK    5  A    between atoms: C_8  and  C_13 
REMARK    6  A    between atoms: C_10  and  O_11 
REMARK    7  A    between atoms: C_13  and  C_14 
REMARK    8  A    between atoms: C_14  and  N_15 
ROOT
HETATM    1  C   UNK N   1      27.489  22.719  -6.778  0.00  0.00     0.036 A 
HETATM    2  C   UNK N   1      28.532  23.259  -6.019  0.00  0.00     0.058 A 
HETATM    3  C   UNK N   1      28.306  24.122  -4.943  0.00  0.00     0.076 A 
HETATM    4  C   UNK N   1      26.966  24.451  -4.599  0.00  0.00    -0.021 A 
HETATM    5  C   UNK N   1      25.920  23.896  -5.352  0.00  0.00     0.048 A 
HETATM    6  C   UNK N   1      26.146  23.051  -6.440  0.00  0.00     0.085 A 
ENDROOT
BRANCH   4   7
HETATM    7  C   UNK N   1      26.637  25.398  -3.469  0.00  0.00     0.060 C 
BRANCH   7   8
HETATM    8  C   UNK N   1      26.684  26.875  -3.841  0.00  0.00     0.115 C 
BRANCH   8   9
HETATM    9  N   UNK N   1      25.763  27.616  -3.000  0.00  0.00    -0.430 N 
HETATM   10  H   UNK N   1      24.934  27.155  -2.621  0.00  0.00     0.149 HD
HETATM   11  H   UNK N   1      25.943  28.597  -2.786  0.00  0.00     0.149 HD
ENDBRANCH   8   9
ENDBRANCH   7   8
ENDBRANCH   4   7
BRANCH   3  12
HETATM   12  O   UNK N   1      29.406  24.611  -4.304  0.00  0.00    -0.355 OA
HETATM   13  C   UNK N   1      30.364  23.881  -3.641  0.00  0.00     0.210 C 
ENDBRANCH   3  12
BRANCH   6  14
HETATM   14  O   UNK N   1      25.042  22.626  -7.113  0.00  0.00    -0.355 OA
HETATM   15  C   UNK N   1      24.470  21.380  -7.054  0.00  0.00     0.210 C 
ENDBRANCH   6  14
BRANCH   1  16
HETATM   16  S   UNK N   1      27.980  21.699  -8.186  0.00  0.00    -0.127 SA
BRANCH  16  17
HETATM   17  C   UNK N   1      29.202  20.676  -7.311  0.00  0.00     0.079 C 
BRANCH  17  18
HETATM   18  C   UNK N   1      28.997  19.233  -7.744  0.00  0.00     0.006 C 
HETATM   19  C   UNK N   1      30.210  18.723  -8.494  0.00  0.00     0.006 C 
ENDBRANCH  17  18
ENDBRANCH  16  17
ENDBRANCH   1  16
TORSDOF 8
ENDMDL
MODEL 9
REMARK VINA RESULT:      -4.3     12.597     14.344
REMARK  8 active torsions:
REMARK  status: ('A' for Active; 'I' for Inactive)
REMARK    1  A    between atoms: C_2  and  C_3 
REMARK    2  A    between atoms: C_3  and  S_4 
REMARK    3  A    between atoms: S_4  and  C_5 
REMARK    4  A    between atoms: C_7  and  O_16 
REMARK    5  A    between atoms: C_8  and  C_13 
REMARK    6  A    between atoms: C_10  and  O_11 
REMARK    7  A    between atoms: C_13  and  C_14 
REMARK    8  A    between atoms: C_14  and  N_15 
ROOT
HETATM    1  C   UNK N   1      42.065  24.594   0.264  0.00  0.00     0.036 A 
HETATM    2  C   UNK N   1      41.131  23.790   0.924  0.00  0.00     0.058 A 
HETATM    3  C   UNK N   1      41.505  22.816   1.854  0.00  0.00     0.076 A 
HETATM    4  C   UNK N   1      42.885  22.648   2.152  0.00  0.00    -0.021 A 
HETATM    5  C   UNK N   1      43.820  23.466   1.500  0.00  0.00     0.048 A 
HETATM    6  C   UNK N   1      43.450  24.424   0.555  0.00  0.00     0.085 A 
ENDROOT
BRANCH   4   7
HETATM    7  C   UNK N   1      43.375  21.601   3.124  0.00  0.00     0.060 C 
BRANCH   7   8
HETATM    8  C   UNK N   1      44.052  22.156   4.371  0.00  0.00     0.115 C 
BRANCH   8   9
HETATM    9  N   UNK N   1      45.492  22.103   4.205  0.00  0.00    -0.430 N 
HETATM   10  H   UNK N   1      46.049  21.463   4.773  0.00  0.00     0.149 HD
HETATM   11  H   UNK N   1      45.949  22.704   3.519  0.00  0.00     0.149 HD
ENDBRANCH   8   9
ENDBRANCH   7   8
ENDBRANCH   4   7
BRANCH   3  12
HETATM   12  O   UNK N   1      40.504  22.072   2.403  0.00  0.00    -0.355 OA
HETATM   13  C   UNK N   1      39.892  20.975   1.843  0.00  0.00     0.210 C 
ENDBRANCH   3  12
BRANCH   6  14
HETATM   14  O   UNK N   1      44.463  25.113  -0.036  0.00  0.00    -0.355 OA
HETATM   15  C   UNK N   1      45.046  26.270   0.413  0.00  0.00     0.210 C 
ENDBRANCH   6  14
BRANCH   1  16
HETATM   16  S   UNK N   1      41.400  25.731  -0.972  0.00  0.00    -0.127 SA
BRANCH  16  17
HETATM   17  C   UNK N   1      39.832  26.093  -0.127  0.00  0.00     0.079 C 
BRANCH  17  18
HETATM   18  C   UNK N   1      38.717  26.010  -1.158  0.00  0.00     0.006 C 
HETATM   19  C   UNK N   1      38.471  24.572  -1.566  0.00  0.00     0.006 C 
ENDBRANCH  17  18
ENDBRANCH  16  17
ENDBRANCH   1  16
TORSDOF 8
ENDMDL
