MODEL 1
REMARK VINA RESULT:      -7.4      0.000      0.000
REMARK  7 active torsions:
REMARK  status: ('A' for Active; 'I' for Inactive)
REMARK    1  A    between atoms: C_15  and  C_14 
REMARK    2  A    between atoms: N_27  and  C_14 
REMARK    3  A    between atoms: O_28  and  C_17 
REMARK    4  A    between atoms: C_18  and  C_23 
REMARK    5  A    between atoms: C_26  and  C_22 
REMARK    6  A    between atoms: O_29  and  C_23 
REMARK    7  A    between atoms: C_26  and  O_30 
ROOT
HETATM    1  C   UNK N   1      28.150  22.059  -7.197  0.00  0.00     0.011 C 
HETATM    2  C   UNK N   1      26.801  21.823  -7.557  0.00  0.00     0.040 C 
HETATM    3  C   UNK N   1      28.260  26.181  -6.072  0.00  0.00    -0.015 C 
HETATM    4  C   UNK N   1      27.048  26.769  -6.109  0.00  0.00     0.011 C 
HETATM    5  C   UNK N   1      27.756  23.824  -3.054  0.00  0.00     0.048 C 
HETATM    6  C   UNK N   1      29.110  23.136  -3.027  0.00  0.00     0.274 C 
HETATM    7  C   UNK N   1      29.838  23.473  -5.891  0.00  0.00     0.076 C 
HETATM    8  C   UNK N   1      28.560  26.623  -3.687  0.00  0.00     0.028 C 
HETATM    9  C   UNK N   1      28.439  22.955  -6.155  0.00  0.00    -0.046 C 
HETATM   10  C   UNK N   1      25.767  22.564  -6.942  0.00  0.00     0.099 C 
HETATM   11  C   UNK N   1      27.125  27.291  -3.668  0.00  0.00     0.061 C 
HETATM   12  C   UNK N   1      29.926  24.621  -4.810  0.00  0.00     0.240 C 
HETATM   13  C   UNK N   1      27.378  23.560  -5.502  0.00  0.00    -0.003 C 
HETATM   14  C   UNK N   1      26.109  23.453  -5.923  0.00  0.00     0.110 C 
HETATM   15  C   UNK N   1      26.052  25.143  -4.416  0.00  0.00     0.182 C 
HETATM   16  C   UNK N   1      28.613  25.498  -4.752  0.00  0.00     0.024 C 
HETATM   17  C   UNK N   1      27.487  24.517  -4.402  0.00  0.00     0.035 C 
HETATM   18  C   UNK N   1      26.218  26.661  -4.821  0.00  0.00     0.112 C 
HETATM   19  N   UNK N   1      30.200  24.019  -3.482  0.00  0.00     0.095 N 
HETATM   20  O   UNK N   1      25.317  24.345  -5.306  0.00  0.00    -0.338 OA
ENDROOT
BRANCH  11  21
HETATM   21  C   UNK N   1      27.263  28.842  -3.638  0.00  0.00     0.057 C 
HETATM   22  C   UNK N   1      28.112  29.333  -2.479  0.00  0.00     0.046 C 
HETATM   23  C   UNK N   1      27.867  29.372  -4.928  0.00  0.00     0.046 C 
BRANCH  21  24
HETATM   24  O   UNK N   1      25.991  29.406  -3.515  0.00  0.00    -0.390 OA
HETATM   25  H   UNK N   1      25.504  29.771  -4.270  0.00  0.00     0.210 HD
ENDBRANCH  21  24
ENDBRANCH  11  21
BRANCH  18  26
HETATM   26  O   UNK N   1      24.966  27.322  -4.887  0.00  0.00    -0.378 OA
HETATM   27  C   UNK N   1      24.464  27.296  -6.199  0.00  0.00     0.203 C 
ENDBRANCH  18  26
BRANCH  19  28
HETATM   28  C   UNK N   1      31.515  23.334  -3.512  0.00  0.00     0.277 C 
BRANCH  28  29
HETATM   29  C   UNK N   1      31.562  21.894  -2.964  0.00  0.00     0.014 A 
HETATM   30  C   UNK N   1      32.957  21.337  -3.178  0.00  0.00     0.007 A 
HETATM   31  C   UNK N   1      31.822  20.870  -4.058  0.00  0.00     0.007 A 
ENDBRANCH  28  29
ENDBRANCH  19  28
BRANCH  10  32
HETATM   32  O   UNK N   1      24.494  22.428  -7.345  0.00  0.00    -0.358 OA
HETATM   33  H   UNK N   1      24.269  21.969  -8.131  0.00  0.00     0.217 HD
ENDBRANCH  10  32
TORSDOF 7
ENDMDL
MODEL 2
REMARK VINA RESULT:      -7.3     12.741     14.784
REMARK  7 active torsions:
REMARK  status: ('A' for Active; 'I' for Inactive)
REMARK    1  A    between atoms: C_15  and  C_14 
REMARK    2  A    between atoms: N_27  and  C_14 
REMARK    3  A    between atoms: O_28  and  C_17 
REMARK    4  A    between atoms: C_18  and  C_23 
REMARK    5  A    between atoms: C_26  and  C_22 
REMARK    6  A    between atoms: O_29  and  C_23 
REMARK    7  A    between atoms: C_26  and  O_30 
ROOT
HETATM    1  C   UNK N   1      21.776  19.889   3.275  0.00  0.00     0.011 C 
HETATM    2  C   UNK N   1      20.468  19.864   2.734  0.00  0.00     0.040 C 
HETATM    3  C   UNK N   1      21.713  16.953   6.381  0.00  0.00    -0.015 C 
HETATM    4  C   UNK N   1      20.538  16.299   6.463  0.00  0.00     0.011 C 
HETATM    5  C   UNK N   1      23.016  15.549   3.027  0.00  0.00     0.048 C 
HETATM    6  C   UNK N   1      24.328  16.308   2.915  0.00  0.00     0.274 C 
HETATM    7  C   UNK N   1      23.618  18.673   4.572  0.00  0.00     0.076 C 
HETATM    8  C   UNK N   1      22.982  14.912   5.938  0.00  0.00     0.028 C 
HETATM    9  C   UNK N   1      22.355  18.696   3.735  0.00  0.00    -0.046 C 
HETATM   10  C   UNK N   1      19.719  18.666   2.755  0.00  0.00     0.099 C 
HETATM   11  C   UNK N   1      21.624  14.101   5.986  0.00  0.00     0.061 C 
HETATM   12  C   UNK N   1      23.998  17.256   5.160  0.00  0.00     0.240 C 
HETATM   13  C   UNK N   1      21.622  17.527   3.618  0.00  0.00    -0.003 C 
HETATM   14  C   UNK N   1      20.336  17.511   3.238  0.00  0.00     0.110 C 
HETATM   15  C   UNK N   1      20.692  15.435   4.069  0.00  0.00     0.182 C 
HETATM   16  C   UNK N   1      22.730  16.349   5.414  0.00  0.00     0.024 C 
HETATM   17  C   UNK N   1      22.059  16.198   4.043  0.00  0.00     0.035 C 
HETATM   18  C   UNK N   1      20.410  15.051   5.575  0.00  0.00     0.112 C 
HETATM   19  N   UNK N   1      24.936  16.580   4.230  0.00  0.00     0.095 N 
HETATM   20  O   UNK N   1      19.775  16.314   3.473  0.00  0.00    -0.338 OA
ENDROOT
BRANCH  11  21
HETATM   21  C   UNK N   1      21.507  13.343   7.342  0.00  0.00     0.057 C 
HETATM   22  C   UNK N   1      21.458  11.835   7.168  0.00  0.00     0.046 C 
HETATM   23  C   UNK N   1      22.666  13.677   8.267  0.00  0.00     0.046 C 
BRANCH  21  24
HETATM   24  O   UNK N   1      20.335  13.745   7.985  0.00  0.00    -0.390 OA
HETATM   25  H   UNK N   1      19.797  14.492   7.676  0.00  0.00     0.210 HD
ENDBRANCH  21  24
ENDBRANCH  11  21
BRANCH  18  26
HETATM   26  O   UNK N   1      19.175  14.371   5.716  0.00  0.00    -0.378 OA
HETATM   27  C   UNK N   1      19.013  13.428   4.686  0.00  0.00     0.203 C 
ENDBRANCH  18  26
BRANCH  19  28
HETATM   28  C   UNK N   1      26.186  17.370   4.129  0.00  0.00     0.277 C 
BRANCH  28  29
HETATM   29  C   UNK N   1      27.044  17.481   5.406  0.00  0.00     0.014 A 
HETATM   30  C   UNK N   1      27.346  18.946   5.664  0.00  0.00     0.007 A 
HETATM   31  C   UNK N   1      28.429  18.042   5.122  0.00  0.00     0.007 A 
ENDBRANCH  28  29
ENDBRANCH  19  28
BRANCH  10  32
HETATM   32  O   UNK N   1      18.442  18.649   2.342  0.00  0.00    -0.358 OA
HETATM   33  H   UNK N   1      18.169  19.083   1.558  0.00  0.00     0.217 HD
ENDBRANCH  10  32
TORSDOF 7
ENDMDL
MODEL 3
REMARK VINA RESULT:      -7.1      2.708      6.269
REMARK  7 active torsions:
REMARK  status: ('A' for Active; 'I' for Inactive)
REMARK    1  A    between atoms: C_15  and  C_14 
REMARK    2  A    between atoms: N_27  and  C_14 
REMARK    3  A    between atoms: O_28  and  C_17 
REMARK    4  A    between atoms: C_18  and  C_23 
REMARK    5  A    between atoms: C_26  and  C_22 
REMARK    6  A    between atoms: O_29  and  C_23 
REMARK    7  A    between atoms: C_26  and  O_30 
ROOT
HETATM    1  C   UNK N   1      26.241  28.060  -5.857  0.00  0.00     0.011 C 
HETATM    2  C   UNK N   1      25.889  28.331  -4.513  0.00  0.00     0.040 C 
HETATM    3  C   UNK N   1      29.676  25.530  -5.580  0.00  0.00    -0.015 C 
HETATM    4  C   UNK N   1      29.998  25.218  -4.309  0.00  0.00     0.011 C 
HETATM    5  C   UNK N   1      26.383  23.542  -5.932  0.00  0.00     0.048 C 
HETATM    6  C   UNK N   1      25.999  23.916  -7.354  0.00  0.00     0.274 C 
HETATM    7  C   UNK N   1      27.422  26.522  -7.529  0.00  0.00     0.076 C 
HETATM    8  C   UNK N   1      29.329  23.196  -6.217  0.00  0.00     0.028 C 
HETATM    9  C   UNK N   1      26.767  26.801  -6.192  0.00  0.00    -0.046 C 
HETATM   10  C   UNK N   1      26.163  27.379  -3.506  0.00  0.00     0.099 C 
HETATM   11  C   UNK N   1      29.664  22.779  -4.727  0.00  0.00     0.061 C 
HETATM   12  C   UNK N   1      28.129  25.113  -7.638  0.00  0.00     0.240 C 
HETATM   13  C   UNK N   1      26.900  25.861  -5.183  0.00  0.00    -0.003 C 
HETATM   14  C   UNK N   1      26.702  26.150  -3.889  0.00  0.00     0.110 C 
HETATM   15  C   UNK N   1      27.735  24.135  -3.854  0.00  0.00     0.182 C 
HETATM   16  C   UNK N   1      28.665  24.597  -6.245  0.00  0.00     0.024 C 
HETATM   17  C   UNK N   1      27.428  24.507  -5.343  0.00  0.00     0.035 C 
HETATM   18  C   UNK N   1      29.302  23.975  -3.735  0.00  0.00     0.112 C 
HETATM   19  N   UNK N   1      27.176  24.134  -8.216  0.00  0.00     0.095 N 
HETATM   20  O   UNK N   1      27.161  25.168  -3.097  0.00  0.00    -0.338 OA
ENDROOT
BRANCH  11  21
HETATM   21  C   UNK N   1      31.108  22.201  -4.650  0.00  0.00     0.057 C 
HETATM   22  C   UNK N   1      31.150  20.806  -4.053  0.00  0.00     0.046 C 
HETATM   23  C   UNK N   1      31.761  22.152  -6.022  0.00  0.00     0.046 C 
BRANCH  21  24
HETATM   24  O   UNK N   1      31.888  23.040  -3.851  0.00  0.00    -0.390 OA
HETATM   25  H   UNK N   1      31.527  23.822  -3.403  0.00  0.00     0.210 HD
ENDBRANCH  21  24
ENDBRANCH  11  21
BRANCH  18  26
HETATM   26  O   UNK N   1      29.694  23.658  -2.410  0.00  0.00    -0.378 OA
HETATM   27  C   UNK N   1      28.737  22.830  -1.799  0.00  0.00     0.203 C 
ENDBRANCH  18  26
BRANCH  19  28
HETATM   28  C   UNK N   1      26.807  24.555  -9.589  0.00  0.00     0.277 C 
BRANCH  28  29
HETATM   29  C   UNK N   1      25.306  24.764  -9.874  0.00  0.00     0.014 A 
HETATM   30  C   UNK N   1      25.126  25.052 -11.353  0.00  0.00     0.007 A 
HETATM   31  C   UNK N   1      25.001  26.176 -10.350  0.00  0.00     0.007 A 
ENDBRANCH  28  29
ENDBRANCH  19  28
BRANCH  10  32
HETATM   32  O   UNK N   1      25.932  27.662  -2.214  0.00  0.00    -0.358 OA
HETATM   33  H   UNK N   1      26.611  27.626  -1.570  0.00  0.00     0.217 HD
ENDBRANCH  10  32
TORSDOF 7
ENDMDL
MODEL 4
REMARK VINA RESULT:      -6.8     13.268     15.369
REMARK  7 active torsions:
REMARK  status: ('A' for Active; 'I' for Inactive)
REMARK    1  A    between atoms: C_15  and  C_14 
REMARK    2  A    between atoms: N_27  and  C_14 
REMARK    3  A    between atoms: O_28  and  C_17 
REMARK    4  A    between atoms: C_18  and  C_23 
REMARK    5  A    between atoms: C_26  and  C_22 
REMARK    6  A    between atoms: O_29  and  C_23 
REMARK    7  A    between atoms: C_26  and  O_30 
ROOT
HETATM    1  C   UNK N   1      23.824  14.420   7.598  0.00  0.00     0.011 C 
HETATM    2  C   UNK N   1      22.929  13.625   8.354  0.00  0.00     0.040 C 
HETATM    3  C   UNK N   1      22.322  14.226   3.600  0.00  0.00    -0.015 C 
HETATM    4  C   UNK N   1      21.175  13.524   3.503  0.00  0.00     0.011 C 
HETATM    5  C   UNK N   1      21.040  17.318   5.527  0.00  0.00     0.048 C 
HETATM    6  C   UNK N   1      22.336  18.098   5.667  0.00  0.00     0.274 C 
HETATM    7  C   UNK N   1      24.245  15.824   5.499  0.00  0.00     0.076 C 
HETATM    8  C   UNK N   1      21.306  16.279   2.747  0.00  0.00     0.028 C 
HETATM    9  C   UNK N   1      23.334  15.175   6.520  0.00  0.00    -0.046 C 
HETATM   10  C   UNK N   1      21.577  13.516   7.959  0.00  0.00     0.099 C 
HETATM   11  C   UNK N   1      19.926  15.510   2.649  0.00  0.00     0.061 C 
HETATM   12  C   UNK N   1      23.503  16.457   4.256  0.00  0.00     0.240 C 
HETATM   13  C   UNK N   1      21.976  15.126   6.254  0.00  0.00    -0.003 C 
HETATM   14  C   UNK N   1      21.144  14.274   6.872  0.00  0.00     0.110 C 
HETATM   15  C   UNK N   1      19.936  15.056   5.122  0.00  0.00     0.182 C 
HETATM   16  C   UNK N   1      22.153  15.711   3.915  0.00  0.00     0.024 C 
HETATM   17  C   UNK N   1      21.291  15.840   5.177  0.00  0.00     0.035 C 
HETATM   18  C   UNK N   1      19.885  14.329   3.720  0.00  0.00     0.112 C 
HETATM   19  N   UNK N   1      23.243  17.893   4.524  0.00  0.00     0.095 N 
HETATM   20  O   UNK N   1      19.955  14.221   6.249  0.00  0.00    -0.338 OA
ENDROOT
BRANCH  11  21
HETATM   21  C   UNK N   1      19.632  15.138   1.165  0.00  0.00     0.057 C 
HETATM   22  C   UNK N   1      19.613  16.349   0.249  0.00  0.00     0.046 C 
HETATM   23  C   UNK N   1      20.654  14.150   0.627  0.00  0.00     0.046 C 
BRANCH  21  24
HETATM   24  O   UNK N   1      18.382  14.519   1.094  0.00  0.00    -0.390 OA
HETATM   25  H   UNK N   1      18.244  13.586   1.323  0.00  0.00     0.210 HD
ENDBRANCH  21  24
ENDBRANCH  11  21
BRANCH  18  26
HETATM   26  O   UNK N   1      18.700  13.565   3.574  0.00  0.00    -0.378 OA
HETATM   27  C   UNK N   1      18.992  12.191   3.615  0.00  0.00     0.203 C 
ENDBRANCH  18  26
BRANCH  19  28
HETATM   28  C   UNK N   1      24.534  18.606   4.683  0.00  0.00     0.277 C 
BRANCH  28  29
HETATM   29  C   UNK N   1      25.385  18.795   3.412  0.00  0.00     0.014 A 
HETATM   30  C   UNK N   1      26.442  19.850   3.686  0.00  0.00     0.007 A 
HETATM   31  C   UNK N   1      25.247  20.193   2.828  0.00  0.00     0.007 A 
ENDBRANCH  28  29
ENDBRANCH  19  28
BRANCH  10  32
HETATM   32  O   UNK N   1      20.741  12.685   8.602  0.00  0.00    -0.358 OA
HETATM   33  H   UNK N   1      19.947  12.989   8.996  0.00  0.00     0.217 HD
ENDBRANCH  10  32
TORSDOF 7
ENDMDL
MODEL 5
REMARK VINA RESULT:      -6.8     13.264     15.854
REMARK  7 active torsions:
REMARK  status: ('A' for Active; 'I' for Inactive)
REMARK    1  A    between atoms: C_15  and  C_14 
REMARK    2  A    between atoms: N_27  and  C_14 
REMARK    3  A    between atoms: O_28  and  C_17 
REMARK    4  A    between atoms: C_18  and  C_23 
REMARK    5  A    between atoms: C_26  and  C_22 
REMARK    6  A    between atoms: O_29  and  C_23 
REMARK    7  A    between atoms: C_26  and  O_30 
ROOT
HETATM    1  C   UNK N   1      29.821  17.210   9.039  0.00  0.00     0.011 C 
HETATM    2  C   UNK N   1      28.783  17.787   8.267  0.00  0.00     0.040 C 
HETATM    3  C   UNK N   1      31.706  14.426   6.398  0.00  0.00    -0.015 C 
HETATM    4  C   UNK N   1      31.184  14.444   5.155  0.00  0.00     0.011 C 
HETATM    5  C   UNK N   1      33.453  17.870   6.430  0.00  0.00     0.048 C 
HETATM    6  C   UNK N   1      34.017  17.868   7.841  0.00  0.00     0.274 C 
HETATM    7  C   UNK N   1      32.074  15.996   9.093  0.00  0.00     0.076 C 
HETATM    8  C   UNK N   1      33.941  15.043   5.625  0.00  0.00     0.028 C 
HETATM    9  C   UNK N   1      31.030  16.860   8.416  0.00  0.00    -0.046 C 
HETATM   10  C   UNK N   1      28.930  17.909   6.867  0.00  0.00     0.099 C 
HETATM   11  C   UNK N   1      33.370  15.115   4.150  0.00  0.00     0.061 C 
HETATM   12  C   UNK N   1      33.268  15.547   8.160  0.00  0.00     0.240 C 
HETATM   13  C   UNK N   1      31.164  17.117   7.062  0.00  0.00    -0.003 C 
HETATM   14  C   UNK N   1      30.145  17.532   6.296  0.00  0.00     0.110 C 
HETATM   15  C   UNK N   1      31.736  16.910   4.809  0.00  0.00     0.182 C 
HETATM   16  C   UNK N   1      32.837  15.422   6.646  0.00  0.00     0.024 C 
HETATM   17  C   UNK N   1      32.343  16.819   6.250  0.00  0.00     0.035 C 
HETATM   18  C   UNK N   1      31.812  15.459   4.188  0.00  0.00     0.112 C 
HETATM   19  N   UNK N   1      34.383  16.515   8.299  0.00  0.00     0.095 N 
HETATM   20  O   UNK N   1      30.448  17.436   4.991  0.00  0.00    -0.338 OA
ENDROOT
BRANCH  11  21
HETATM   21  C   UNK N   1      33.801  13.849   3.353  0.00  0.00     0.057 C 
HETATM   22  C   UNK N   1      35.294  13.586   3.432  0.00  0.00     0.046 C 
HETATM   23  C   UNK N   1      33.073  12.607   3.844  0.00  0.00     0.046 C 
BRANCH  21  24
HETATM   24  O   UNK N   1      33.460  14.023   2.010  0.00  0.00    -0.390 OA
HETATM   25  H   UNK N   1      33.433  13.288   1.376  0.00  0.00     0.210 HD
ENDBRANCH  21  24
ENDBRANCH  11  21
BRANCH  18  26
HETATM   26  O   UNK N   1      31.263  15.423   2.882  0.00  0.00    -0.378 OA
HETATM   27  C   UNK N   1      30.067  14.686   2.872  0.00  0.00     0.203 C 
ENDBRANCH  18  26
BRANCH  19  28
HETATM   28  C   UNK N   1      34.879  16.500   9.696  0.00  0.00     0.277 C 
BRANCH  28  29
HETATM   29  C   UNK N   1      35.502  15.183  10.200  0.00  0.00     0.014 A 
HETATM   30  C   UNK N   1      34.685  14.675  11.374  0.00  0.00     0.007 A 
HETATM   31  C   UNK N   1      36.038  15.303  11.618  0.00  0.00     0.007 A 
ENDBRANCH  28  29
ENDBRANCH  19  28
BRANCH  10  32
HETATM   32  O   UNK N   1      27.916  18.356   6.109  0.00  0.00    -0.358 OA
HETATM   33  H   UNK N   1      28.053  18.687   5.243  0.00  0.00     0.217 HD
ENDBRANCH  10  32
TORSDOF 7
ENDMDL
MODEL 6
REMARK VINA RESULT:      -6.6     11.174     14.080
REMARK  7 active torsions:
REMARK  status: ('A' for Active; 'I' for Inactive)
REMARK    1  A    between atoms: C_15  and  C_14 
REMARK    2  A    between atoms: N_27  and  C_14 
REMARK    3  A    between atoms: O_28  and  C_17 
REMARK    4  A    between atoms: C_18  and  C_23 
REMARK    5  A    between atoms: C_26  and  C_22 
REMARK    6  A    between atoms: O_29  and  C_23 
REMARK    7  A    between atoms: C_26  and  O_30 
ROOT
HETATM    1  C   UNK N   1      25.843  19.460   3.815  0.00  0.00     0.011 C 
HETATM    2  C   UNK N   1      26.162  20.563   4.644  0.00  0.00     0.040 C 
HETATM    3  C   UNK N   1      29.370  17.045   3.829  0.00  0.00    -0.015 C 
HETATM    4  C   UNK N   1      30.335  17.528   4.637  0.00  0.00     0.011 C 
HETATM    5  C   UNK N   1      26.789  15.932   6.478  0.00  0.00     0.048 C 
HETATM    6  C   UNK N   1      25.685  15.415   5.572  0.00  0.00     0.274 C 
HETATM    7  C   UNK N   1      26.304  17.031   3.152  0.00  0.00     0.076 C 
HETATM    8  C   UNK N   1      29.206  14.934   5.049  0.00  0.00     0.028 C 
HETATM    9  C   UNK N   1      26.362  18.192   4.123  0.00  0.00    -0.046 C 
HETATM   10  C   UNK N   1      27.078  20.402   5.708  0.00  0.00     0.099 C 
HETATM   11  C   UNK N   1      30.310  15.469   6.049  0.00  0.00     0.061 C 
HETATM   12  C   UNK N   1      27.117  15.752   3.600  0.00  0.00     0.240 C 
HETATM   13  C   UNK N   1      27.156  18.069   5.251  0.00  0.00    -0.003 C 
HETATM   14  C   UNK N   1      27.577  19.125   5.962  0.00  0.00     0.110 C 
HETATM   15  C   UNK N   1      28.854  17.410   6.709  0.00  0.00     0.182 C 
HETATM   16  C   UNK N   1      28.362  16.114   4.500  0.00  0.00     0.024 C 
HETATM   17  C   UNK N   1      27.782  16.835   5.723  0.00  0.00     0.035 C 
HETATM   18  C   UNK N   1      30.270  17.063   6.099  0.00  0.00     0.112 C 
HETATM   19  N   UNK N   1      26.209  14.829   4.325  0.00  0.00     0.095 N 
HETATM   20  O   UNK N   1      28.548  18.775   6.821  0.00  0.00    -0.338 OA
ENDROOT
BRANCH  11  21
HETATM   21  C   UNK N   1      31.680  14.800   5.731  0.00  0.00     0.057 C 
HETATM   22  C   UNK N   1      32.313  14.151   6.950  0.00  0.00     0.046 C 
HETATM   23  C   UNK N   1      31.547  13.745   4.646  0.00  0.00     0.046 C 
BRANCH  21  24
HETATM   24  O   UNK N   1      32.559  15.776   5.254  0.00  0.00    -0.390 OA
HETATM   25  H   UNK N   1      32.290  16.697   5.108  0.00  0.00     0.210 HD
ENDBRANCH  21  24
ENDBRANCH  11  21
BRANCH  18  26
HETATM   26  O   UNK N   1      31.321  17.562   6.908  0.00  0.00    -0.378 OA
HETATM   27  C   UNK N   1      31.051  17.327   8.267  0.00  0.00     0.203 C 
ENDBRANCH  18  26
BRANCH  19  28
HETATM   28  C   UNK N   1      25.133  14.375   3.410  0.00  0.00     0.277 C 
BRANCH  28  29
HETATM   29  C   UNK N   1      25.565  13.906   2.007  0.00  0.00     0.014 A 
HETATM   30  C   UNK N   1      24.437  14.188   1.031  0.00  0.00     0.007 A 
HETATM   31  C   UNK N   1      24.697  12.771   1.486  0.00  0.00     0.007 A 
ENDBRANCH  28  29
ENDBRANCH  19  28
BRANCH  10  32
HETATM   32  O   UNK N   1      27.471  21.458   6.438  0.00  0.00    -0.358 OA
HETATM   33  H   UNK N   1      28.084  21.374   7.142  0.00  0.00     0.217 HD
ENDBRANCH  10  32
TORSDOF 7
ENDMDL
MODEL 7
REMARK VINA RESULT:      -6.6     21.787     25.583
REMARK  7 active torsions:
REMARK  status: ('A' for Active; 'I' for Inactive)
REMARK    1  A    between atoms: C_15  and  C_14 
REMARK    2  A    between atoms: N_27  and  C_14 
REMARK    3  A    between atoms: O_28  and  C_17 
REMARK    4  A    between atoms: C_18  and  C_23 
REMARK    5  A    between atoms: C_26  and  C_22 
REMARK    6  A    between atoms: O_29  and  C_23 
REMARK    7  A    between atoms: C_26  and  O_30 
ROOT
HETATM    1  C   UNK N   1      35.734  10.152  17.908  0.00  0.00     0.011 C 
HETATM    2  C   UNK N   1      35.372  11.433  18.390  0.00  0.00     0.040 C 
HETATM    3  C   UNK N   1      34.584  10.185  13.791  0.00  0.00    -0.015 C 
HETATM    4  C   UNK N   1      34.090  11.374  13.392  0.00  0.00     0.011 C 
HETATM    5  C   UNK N   1      38.287  11.149  14.313  0.00  0.00     0.048 C 
HETATM    6  C   UNK N   1      38.841   9.819  14.793  0.00  0.00     0.274 C 
HETATM    7  C   UNK N   1      36.336   8.669  15.910  0.00  0.00     0.076 C 
HETATM    8  C   UNK N   1      36.418  10.242  12.177  0.00  0.00     0.028 C 
HETATM    9  C   UNK N   1      36.194  10.016  16.588  0.00  0.00    -0.046 C 
HETATM   10  C   UNK N   1      35.377  12.543  17.515  0.00  0.00     0.099 C 
HETATM   11  C   UNK N   1      35.902  11.659  11.697  0.00  0.00     0.061 C 
HETATM   12  C   UNK N   1      36.674   8.736  14.368  0.00  0.00     0.240 C 
HETATM   13  C   UNK N   1      36.297  11.158  15.813  0.00  0.00    -0.003 C 
HETATM   14  C   UNK N   1      35.829  12.351  16.209  0.00  0.00     0.110 C 
HETATM   15  C   UNK N   1      36.230  12.622  13.996  0.00  0.00     0.182 C 
HETATM   16  C   UNK N   1      36.100  10.037  13.681  0.00  0.00     0.024 C 
HETATM   17  C   UNK N   1      36.753  11.209  14.424  0.00  0.00     0.035 C 
HETATM   18  C   UNK N   1      35.129  12.387  12.888  0.00  0.00     0.112 C 
HETATM   19  N   UNK N   1      38.145   8.668  14.189  0.00  0.00     0.095 N 
HETATM   20  O   UNK N   1      35.790  13.221  15.187  0.00  0.00    -0.338 OA
ENDROOT
BRANCH  11  21
HETATM   21  C   UNK N   1      35.149  11.517  10.341  0.00  0.00     0.057 C 
HETATM   22  C   UNK N   1      35.731  12.400   9.251  0.00  0.00     0.046 C 
HETATM   23  C   UNK N   1      35.160  10.080   9.846  0.00  0.00     0.046 C 
BRANCH  21  24
HETATM   24  O   UNK N   1      33.813  11.881  10.526  0.00  0.00    -0.390 OA
HETATM   25  H   UNK N   1      33.098  11.563   9.951  0.00  0.00     0.210 HD
ENDBRANCH  21  24
ENDBRANCH  11  21
BRANCH  18  26
HETATM   26  O   UNK N   1      34.569  13.611  12.444  0.00  0.00    -0.378 OA
HETATM   27  C   UNK N   1      35.579  14.564  12.225  0.00  0.00     0.203 C 
ENDBRANCH  18  26
BRANCH  19  28
HETATM   28  C   UNK N   1      38.644   7.367  14.698  0.00  0.00     0.277 C 
BRANCH  28  29
HETATM   29  C   UNK N   1      39.816   7.415  15.699  0.00  0.00     0.014 A 
HETATM   30  C   UNK N   1      40.184   5.995  16.087  0.00  0.00     0.007 A 
HETATM   31  C   UNK N   1      39.431   6.867  17.064  0.00  0.00     0.007 A 
ENDBRANCH  28  29
ENDBRANCH  19  28
BRANCH  10  32
HETATM   32  O   UNK N   1      34.938  13.742  17.927  0.00  0.00    -0.358 OA
HETATM   33  H   UNK N   1      35.402  14.248  18.564  0.00  0.00     0.217 HD
ENDBRANCH  10  32
TORSDOF 7
ENDMDL
MODEL 8
REMARK VINA RESULT:      -6.6     19.585     23.271
REMARK  7 active torsions:
REMARK  status: ('A' for Active; 'I' for Inactive)
REMARK    1  A    between atoms: C_15  and  C_14 
REMARK    2  A    between atoms: N_27  and  C_14 
REMARK    3  A    between atoms: O_28  and  C_17 
REMARK    4  A    between atoms: C_18  and  C_23 
REMARK    5  A    between atoms: C_26  and  C_22 
REMARK    6  A    between atoms: O_29  and  C_23 
REMARK    7  A    between atoms: C_26  and  O_30 
ROOT
HETATM    1  C   UNK N   1      38.285   9.320  13.571  0.00  0.00     0.011 C 
HETATM    2  C   UNK N   1      38.175   8.351  12.545  0.00  0.00     0.040 C 
HETATM    3  C   UNK N   1      37.395  13.033  11.648  0.00  0.00    -0.015 C 
HETATM    4  C   UNK N   1      37.053  12.885  10.352  0.00  0.00     0.011 C 
HETATM    5  C   UNK N   1      34.303  11.446  13.332  0.00  0.00     0.048 C 
HETATM    6  C   UNK N   1      34.698  11.582  14.793  0.00  0.00     0.274 C 
HETATM    7  C   UNK N   1      37.652  11.640  14.450  0.00  0.00     0.076 C 
HETATM    8  C   UNK N   1      35.256  14.052  12.246  0.00  0.00     0.028 C 
HETATM    9  C   UNK N   1      37.426  10.431  13.566  0.00  0.00    -0.046 C 
HETATM   10  C   UNK N   1      37.279   8.559  11.472  0.00  0.00     0.099 C 
HETATM   11  C   UNK N   1      34.791  13.867  10.745  0.00  0.00     0.061 C 
HETATM   12  C   UNK N   1      36.698  12.864  14.155  0.00  0.00     0.240 C 
HETATM   13  C   UNK N   1      36.482  10.520  12.557  0.00  0.00    -0.003 C 
HETATM   14  C   UNK N   1      36.459   9.687  11.506  0.00  0.00     0.110 C 
HETATM   15  C   UNK N   1      35.074  11.374  10.903  0.00  0.00     0.182 C 
HETATM   16  C   UNK N   1      36.243  12.924  12.644  0.00  0.00     0.024 C 
HETATM   17  C   UNK N   1      35.510  11.601  12.390  0.00  0.00     0.035 C 
HETATM   18  C   UNK N   1      35.561  12.635  10.085  0.00  0.00     0.112 C 
HETATM   19  N   UNK N   1      35.514  12.784  15.046  0.00  0.00     0.095 N 
HETATM   20  O   UNK N   1      35.647  10.145  10.541  0.00  0.00    -0.338 OA
ENDROOT
BRANCH  11  21
HETATM   21  C   UNK N   1      34.859  15.232   9.997  0.00  0.00     0.057 C 
HETATM   22  C   UNK N   1      33.533  15.623   9.369  0.00  0.00     0.046 C 
HETATM   23  C   UNK N   1      35.294  16.354  10.926  0.00  0.00     0.046 C 
BRANCH  21  24
HETATM   24  O   UNK N   1      35.812  15.143   8.981  0.00  0.00    -0.390 OA
HETATM   25  H   UNK N   1      36.533  14.493   8.993  0.00  0.00     0.210 HD
ENDBRANCH  21  24
ENDBRANCH  11  21
BRANCH  18  26
HETATM   26  O   UNK N   1      35.234  12.522   8.711  0.00  0.00    -0.378 OA
HETATM   27  C   UNK N   1      36.359  12.122   7.970  0.00  0.00     0.203 C 
ENDBRANCH  18  26
BRANCH  19  28
HETATM   28  C   UNK N   1      35.951  12.890  16.459  0.00  0.00     0.277 C 
BRANCH  28  29
HETATM   29  C   UNK N   1      34.853  13.155  17.509  0.00  0.00     0.014 A 
HETATM   30  C   UNK N   1      35.328  14.251  18.444  0.00  0.00     0.007 A 
HETATM   31  C   UNK N   1      35.311  12.817  18.919  0.00  0.00     0.007 A 
ENDBRANCH  28  29
ENDBRANCH  19  28
BRANCH  10  32
HETATM   32  O   UNK N   1      37.239   7.703  10.439  0.00  0.00    -0.358 OA
HETATM   33  H   UNK N   1      37.961   7.144  10.229  0.00  0.00     0.217 HD
ENDBRANCH  10  32
TORSDOF 7
ENDMDL
MODEL 9
REMARK VINA RESULT:      -6.4     15.171     17.039
REMARK  7 active torsions:
REMARK  status: ('A' for Active; 'I' for Inactive)
REMARK    1  A    between atoms: C_15  and  C_14 
REMARK    2  A    between atoms: N_27  and  C_14 
REMARK    3  A    between atoms: O_28  and  C_17 
REMARK    4  A    between atoms: C_18  and  C_23 
REMARK    5  A    between atoms: C_26  and  C_22 
REMARK    6  A    between atoms: O_29  and  C_23 
REMARK    7  A    between atoms: C_26  and  O_30 
ROOT
HETATM    1  C   UNK N   1      22.133  15.776   2.765  0.00  0.00     0.011 C 
HETATM    2  C   UNK N   1      20.889  16.448   2.844  0.00  0.00     0.040 C 
HETATM    3  C   UNK N   1      23.006  14.650   6.796  0.00  0.00    -0.015 C 
HETATM    4  C   UNK N   1      22.021  14.974   7.657  0.00  0.00     0.011 C 
HETATM    5  C   UNK N   1      21.247  11.843   4.810  0.00  0.00     0.048 C 
HETATM    6  C   UNK N   1      22.343  11.496   3.816  0.00  0.00     0.274 C 
HETATM    7  C   UNK N   1      23.772  14.104   3.800  0.00  0.00     0.076 C 
HETATM    8  C   UNK N   1      22.848  12.261   7.288  0.00  0.00     0.028 C 
HETATM    9  C   UNK N   1      22.389  14.694   3.623  0.00  0.00    -0.046 C 
HETATM   10  C   UNK N   1      19.960  16.094   3.848  0.00  0.00     0.099 C 
HETATM   11  C   UNK N   1      21.660  12.583   8.284  0.00  0.00     0.061 C 
HETATM   12  C   UNK N   1      23.892  13.030   4.953  0.00  0.00     0.240 C 
HETATM   13  C   UNK N   1      21.391  14.311   4.504  0.00  0.00    -0.003 C 
HETATM   14  C   UNK N   1      20.268  15.022   4.684  0.00  0.00     0.110 C 
HETATM   15  C   UNK N   1      20.288  13.569   6.422  0.00  0.00     0.182 C 
HETATM   16  C   UNK N   1      22.863  13.285   6.124  0.00  0.00     0.024 C 
HETATM   17  C   UNK N   1      21.478  13.215   5.468  0.00  0.00     0.035 C 
HETATM   18  C   UNK N   1      20.917  13.920   7.828  0.00  0.00     0.112 C 
HETATM   19  N   UNK N   1      23.693  11.677   4.380  0.00  0.00     0.095 N 
HETATM   20  O   UNK N   1      19.603  14.609   5.776  0.00  0.00    -0.338 OA
ENDROOT
BRANCH  11  21
HETATM   21  C   UNK N   1      22.170  12.518   9.754  0.00  0.00     0.057 C 
HETATM   22  C   UNK N   1      21.050  12.289  10.754  0.00  0.00     0.046 C 
HETATM   23  C   UNK N   1      23.204  11.419   9.937  0.00  0.00     0.046 C 
BRANCH  21  24
HETATM   24  O   UNK N   1      22.793  13.728  10.070  0.00  0.00    -0.390 OA
HETATM   25  H   UNK N   1      22.871  14.056  10.980  0.00  0.00     0.210 HD
ENDBRANCH  21  24
ENDBRANCH  11  21
BRANCH  18  26
HETATM   26  O   UNK N   1      19.919  14.280   8.769  0.00  0.00    -0.378 OA
HETATM   27  C   UNK N   1      19.955  15.663   9.018  0.00  0.00     0.203 C 
ENDBRANCH  18  26
BRANCH  19  28
HETATM   28  C   UNK N   1      24.766  11.394   3.396  0.00  0.00     0.277 C 
BRANCH  28  29
HETATM   29  C   UNK N   1      24.320  10.930   1.995  0.00  0.00     0.014 A 
HETATM   30  C   UNK N   1      25.552  10.745   1.129  0.00  0.00     0.007 A 
HETATM   31  C   UNK N   1      24.661  11.946   0.916  0.00  0.00     0.007 A 
ENDBRANCH  28  29
ENDBRANCH  19  28
BRANCH  10  32
HETATM   32  O   UNK N   1      18.822  16.789   4.002  0.00  0.00    -0.358 OA
HETATM   33  H   UNK N   1      18.345  16.787   4.809  0.00  0.00     0.217 HD
ENDBRANCH  10  32
TORSDOF 7
ENDMDL
