MODEL 1
REMARK VINA RESULT:      -6.4      0.000      0.000
REMARK  2 active torsions:
REMARK  status: ('A' for Active; 'I' for Inactive)
REMARK    1  A    between atoms: N_1  and  C_2 
REMARK    2  A    between atoms: C_2  and  C_10 
ROOT
HETATM    1  C   UNK N   1      35.890  12.393  14.949  0.00  0.00     0.186 C 
HETATM    2  C   UNK N   1      34.399  11.974  15.047  0.00  0.00     0.047 C 
HETATM    3  C   UNK N   1      36.807  11.207  15.351  0.00  0.00     0.047 C 
HETATM    4  C   UNK N   1      34.194  10.497  14.737  0.00  0.00     0.003 C 
HETATM    5  C   UNK N   1      36.156  10.281  16.379  0.00  0.00     0.003 C 
HETATM    6  C   UNK N   1      34.884   9.637  15.805  0.00  0.00     0.000 C 
ENDROOT
BRANCH   1   7
HETATM    7  N   UNK N   1      36.202  12.732  13.533  0.00  0.00     0.102 N 
HETATM    8  C   UNK N   1      36.899  11.676  12.805  0.00  0.00     0.274 C 
HETATM    9  C   UNK N   1      36.601  11.905  11.345  0.00  0.00     0.032 C 
HETATM   10  C   UNK N   1      35.213  12.499  11.346  0.00  0.00     0.032 C 
HETATM   11  C   UNK N   1      35.027  13.089  12.733  0.00  0.00     0.274 C 
ENDBRANCH   1   7
BRANCH   1  12
HETATM   12  C   UNK N   1      36.102  13.541  15.944  0.00  0.00    -0.020 A 
HETATM   13  C   UNK N   1      37.060  14.532  15.659  0.00  0.00     0.010 A 
HETATM   14  C   UNK N   1      37.273  15.596  16.538  0.00  0.00     0.001 A 
HETATM   15  C   UNK N   1      36.536  15.683  17.720  0.00  0.00     0.000 A 
HETATM   16  C   UNK N   1      35.587  14.706  18.023  0.00  0.00     0.001 A 
HETATM   17  C   UNK N   1      35.371  13.643  17.142  0.00  0.00     0.010 A 
ENDBRANCH   1  12
TORSDOF 2
ENDMDL
MODEL 2
REMARK VINA RESULT:      -5.9      7.761     10.487
REMARK  2 active torsions:
REMARK  status: ('A' for Active; 'I' for Inactive)
REMARK    1  A    between atoms: N_1  and  C_2 
REMARK    2  A    between atoms: C_2  and  C_10 
ROOT
HETATM    1  C   UNK N   1      31.649  16.492   6.955  0.00  0.00     0.186 C 
HETATM    2  C   UNK N   1      32.893  17.420   6.951  0.00  0.00     0.047 C 
HETATM    3  C   UNK N   1      31.158  16.249   5.502  0.00  0.00     0.047 C 
HETATM    4  C   UNK N   1      33.746  17.233   5.703  0.00  0.00     0.003 C 
HETATM    5  C   UNK N   1      31.447  17.431   4.576  0.00  0.00     0.003 C 
HETATM    6  C   UNK N   1      32.960  17.676   4.461  0.00  0.00     0.000 C 
ENDROOT
BRANCH   1   7
HETATM    7  N   UNK N   1      32.036  15.170   7.518  0.00  0.00     0.102 N 
HETATM    8  C   UNK N   1      32.384  14.171   6.511  0.00  0.00     0.274 C 
HETATM    9  C   UNK N   1      33.284  13.176   7.201  0.00  0.00     0.032 C 
HETATM   10  C   UNK N   1      34.027  14.004   8.221  0.00  0.00     0.032 C 
HETATM   11  C   UNK N   1      33.159  15.228   8.458  0.00  0.00     0.274 C 
ENDBRANCH   1   7
BRANCH   1  12
HETATM   12  C   UNK N   1      30.546  17.222   7.733  0.00  0.00    -0.020 A 
HETATM   13  C   UNK N   1      29.201  17.027   7.366  0.00  0.00     0.010 A 
HETATM   14  C   UNK N   1      28.170  17.668   8.057  0.00  0.00     0.001 A 
HETATM   15  C   UNK N   1      28.468  18.518   9.123  0.00  0.00     0.000 A 
HETATM   16  C   UNK N   1      29.796  18.729   9.496  0.00  0.00     0.001 A 
HETATM   17  C   UNK N   1      30.828  18.085   8.807  0.00  0.00     0.010 A 
ENDBRANCH   1  12
TORSDOF 2
ENDMDL
MODEL 3
REMARK VINA RESULT:      -5.9     21.782     24.721
REMARK  2 active torsions:
REMARK  status: ('A' for Active; 'I' for Inactive)
REMARK    1  A    between atoms: N_1  and  C_2 
REMARK    2  A    between atoms: C_2  and  C_10 
ROOT
HETATM    1  C   UNK N   1      27.654  25.214  -4.600  0.00  0.00     0.186 C 
HETATM    2  C   UNK N   1      26.298  24.509  -4.333  0.00  0.00     0.047 C 
HETATM    3  C   UNK N   1      28.002  25.151  -6.111  0.00  0.00     0.047 C 
HETATM    4  C   UNK N   1      25.341  24.637  -5.511  0.00  0.00     0.003 C 
HETATM    5  C   UNK N   1      27.440  23.903  -6.794  0.00  0.00     0.003 C 
HETATM    6  C   UNK N   1      25.905  23.890  -6.728  0.00  0.00     0.000 C 
ENDROOT
BRANCH   1   7
HETATM    7  N   UNK N   1      27.529  26.651  -4.235  0.00  0.00     0.102 N 
HETATM    8  C   UNK N   1      27.370  27.547  -5.377  0.00  0.00     0.274 C 
HETATM    9  C   UNK N   1      26.680  28.780  -4.851  0.00  0.00     0.032 C 
HETATM   10  C   UNK N   1      25.801  28.260  -3.740  0.00  0.00     0.032 C 
HETATM   11  C   UNK N   1      26.422  26.939  -3.318  0.00  0.00     0.274 C 
ENDBRANCH   1   7
BRANCH   1  12
HETATM   12  C   UNK N   1      28.724  24.444  -3.815  0.00  0.00    -0.020 A 
HETATM   13  C   UNK N   1      28.330  23.602  -2.757  0.00  0.00     0.010 A 
HETATM   14  C   UNK N   1      29.276  22.880  -2.027  0.00  0.00     0.001 A 
HETATM   15  C   UNK N   1      30.632  22.991  -2.338  0.00  0.00     0.000 A 
HETATM   16  C   UNK N   1      31.041  23.826  -3.378  0.00  0.00     0.001 A 
HETATM   17  C   UNK N   1      30.095  24.547  -4.112  0.00  0.00     0.010 A 
ENDBRANCH   1  12
TORSDOF 2
ENDMDL
MODEL 4
REMARK VINA RESULT:      -5.8     22.012     24.876
REMARK  2 active torsions:
REMARK  status: ('A' for Active; 'I' for Inactive)
REMARK    1  A    between atoms: N_1  and  C_2 
REMARK    2  A    between atoms: C_2  and  C_10 
ROOT
HETATM    1  C   UNK N   1      27.687  25.155  -4.459  0.00  0.00     0.186 C 
HETATM    2  C   UNK N   1      28.343  24.835  -5.828  0.00  0.00     0.047 C 
HETATM    3  C   UNK N   1      26.414  24.288  -4.259  0.00  0.00     0.047 C 
HETATM    4  C   UNK N   1      28.135  23.384  -6.241  0.00  0.00     0.003 C 
HETATM    5  C   UNK N   1      25.719  23.949  -5.579  0.00  0.00     0.003 C 
HETATM    6  C   UNK N   1      26.642  23.117  -6.483  0.00  0.00     0.000 C 
ENDROOT
BRANCH   1   7
HETATM    7  N   UNK N   1      28.640  24.795  -3.373  0.00  0.00     0.102 N 
HETATM    8  C   UNK N   1      28.438  23.460  -2.818  0.00  0.00     0.274 C 
HETATM    9  C   UNK N   1      29.762  23.046  -2.228  0.00  0.00     0.032 C 
HETATM   10  C   UNK N   1      30.782  23.717  -3.115  0.00  0.00     0.032 C 
HETATM   11  C   UNK N   1      30.050  24.878  -3.767  0.00  0.00     0.274 C 
ENDBRANCH   1   7
BRANCH   1  12
HETATM   12  C   UNK N   1      27.278  26.633  -4.489  0.00  0.00    -0.020 A 
HETATM   13  C   UNK N   1      27.706  27.444  -5.557  0.00  0.00     0.010 A 
HETATM   14  C   UNK N   1      27.345  28.792  -5.622  0.00  0.00     0.001 A 
HETATM   15  C   UNK N   1      26.555  29.352  -4.618  0.00  0.00     0.000 A 
HETATM   16  C   UNK N   1      26.128  28.564  -3.547  0.00  0.00     0.001 A 
HETATM   17  C   UNK N   1      26.485  27.215  -3.484  0.00  0.00     0.010 A 
ENDBRANCH   1  12
TORSDOF 2
ENDMDL
MODEL 5
REMARK VINA RESULT:      -5.5     10.454     13.060
REMARK  2 active torsions:
REMARK  status: ('A' for Active; 'I' for Inactive)
REMARK    1  A    between atoms: N_1  and  C_2 
REMARK    2  A    between atoms: C_2  and  C_10 
ROOT
HETATM    1  C   UNK N   1      29.003  17.436   5.352  0.00  0.00     0.186 C 
HETATM    2  C   UNK N   1      28.349  16.977   6.682  0.00  0.00     0.047 C 
HETATM    3  C   UNK N   1      28.629  16.458   4.206  0.00  0.00     0.047 C 
HETATM    4  C   UNK N   1      27.013  16.280   6.456  0.00  0.00     0.003 C 
HETATM    5  C   UNK N   1      28.406  15.028   4.700  0.00  0.00     0.003 C 
HETATM    6  C   UNK N   1      27.230  14.969   5.687  0.00  0.00     0.000 C 
ENDROOT
BRANCH   1   7
HETATM    7  N   UNK N   1      28.462  18.773   4.987  0.00  0.00     0.102 N 
HETATM    8  C   UNK N   1      27.440  18.740   3.943  0.00  0.00     0.274 C 
HETATM    9  C   UNK N   1      26.616  19.989   4.124  0.00  0.00     0.032 C 
HETATM   10  C   UNK N   1      26.650  20.236   5.612  0.00  0.00     0.032 C 
HETATM   11  C   UNK N   1      27.887  19.512   6.114  0.00  0.00     0.274 C 
ENDBRANCH   1   7
BRANCH   1  12
HETATM   12  C   UNK N   1      30.523  17.394   5.560  0.00  0.00    -0.020 A 
HETATM   13  C   UNK N   1      31.375  17.567   4.452  0.00  0.00     0.010 A 
HETATM   14  C   UNK N   1      32.762  17.543   4.606  0.00  0.00     0.001 A 
HETATM   15  C   UNK N   1      33.322  17.342   5.868  0.00  0.00     0.000 A 
HETATM   16  C   UNK N   1      32.493  17.162   6.976  0.00  0.00     0.001 A 
HETATM   17  C   UNK N   1      31.104  17.189   6.824  0.00  0.00     0.010 A 
ENDBRANCH   1  12
TORSDOF 2
ENDMDL
MODEL 6
REMARK VINA RESULT:      -5.5      2.249      4.120
REMARK  2 active torsions:
REMARK  status: ('A' for Active; 'I' for Inactive)
REMARK    1  A    between atoms: N_1  and  C_2 
REMARK    2  A    between atoms: C_2  and  C_10 
ROOT
HETATM    1  C   UNK N   1      35.242  11.109  16.038  0.00  0.00     0.186 C 
HETATM    2  C   UNK N   1      36.770  11.084  15.768  0.00  0.00     0.047 C 
HETATM    3  C   UNK N   1      34.693  12.552  15.876  0.00  0.00     0.047 C 
HETATM    4  C   UNK N   1      37.189  12.125  14.738  0.00  0.00     0.003 C 
HETATM    5  C   UNK N   1      35.728  13.620  16.230  0.00  0.00     0.003 C 
HETATM    6  C   UNK N   1      36.941  13.537  15.290  0.00  0.00     0.000 C 
ENDROOT
BRANCH   1   7
HETATM    7  N   UNK N   1      34.560  10.260  15.023  0.00  0.00     0.102 N 
HETATM    8  C   UNK N   1      33.905  11.012  13.957  0.00  0.00     0.274 C 
HETATM    9  C   UNK N   1      33.816  10.077  12.777  0.00  0.00     0.032 C 
HETATM   10  C   UNK N   1      35.044   9.210  12.907  0.00  0.00     0.032 C 
HETATM   11  C   UNK N   1      35.441   9.287  14.371  0.00  0.00     0.274 C 
ENDBRANCH   1   7
BRANCH   1  12
HETATM   12  C   UNK N   1      35.035  10.663  17.491  0.00  0.00    -0.020 A 
HETATM   13  C   UNK N   1      35.452  11.507  18.538  0.00  0.00     0.010 A 
HETATM   14  C   UNK N   1      35.271  11.137  19.872  0.00  0.00     0.001 A 
HETATM   15  C   UNK N   1      34.675   9.915  20.183  0.00  0.00     0.000 A 
HETATM   16  C   UNK N   1      34.261   9.061  19.158  0.00  0.00     0.001 A 
HETATM   17  C   UNK N   1      34.439   9.433  17.823  0.00  0.00     0.010 A 
ENDBRANCH   1  12
TORSDOF 2
ENDMDL
MODEL 7
REMARK VINA RESULT:      -5.4     22.970     25.929
REMARK  2 active torsions:
REMARK  status: ('A' for Active; 'I' for Inactive)
REMARK    1  A    between atoms: N_1  and  C_2 
REMARK    2  A    between atoms: C_2  and  C_10 
ROOT
HETATM    1  C   UNK N   1      27.136  24.301  -5.984  0.00  0.00     0.186 C 
HETATM    2  C   UNK N   1      26.214  24.453  -4.745  0.00  0.00     0.047 C 
HETATM    3  C   UNK N   1      27.004  25.544  -6.905  0.00  0.00     0.047 C 
HETATM    4  C   UNK N   1      26.051  25.907  -4.323  0.00  0.00     0.003 C 
HETATM    5  C   UNK N   1      25.616  26.182  -6.839  0.00  0.00     0.003 C 
HETATM    6  C   UNK N   1      25.318  26.692  -5.420  0.00  0.00     0.000 C 
ENDROOT
BRANCH   1   7
HETATM    7  N   UNK N   1      28.551  24.240  -5.525  0.00  0.00     0.102 N 
HETATM    8  C   UNK N   1      29.210  25.540  -5.444  0.00  0.00     0.274 C 
HETATM    9  C   UNK N   1      30.330  25.381  -4.447  0.00  0.00     0.032 C 
HETATM   10  C   UNK N   1      29.804  24.360  -3.468  0.00  0.00     0.032 C 
HETATM   11  C   UNK N   1      28.726  23.597  -4.220  0.00  0.00     0.274 C 
ENDBRANCH   1   7
BRANCH   1  12
HETATM   12  C   UNK N   1      26.657  23.063  -6.753  0.00  0.00    -0.020 A 
HETATM   13  C   UNK N   1      25.334  22.613  -6.580  0.00  0.00     0.010 A 
HETATM   14  C   UNK N   1      24.862  21.496  -7.271  0.00  0.00     0.001 A 
HETATM   15  C   UNK N   1      25.705  20.806  -8.142  0.00  0.00     0.000 A 
HETATM   16  C   UNK N   1      27.022  21.233  -8.321  0.00  0.00     0.001 A 
HETATM   17  C   UNK N   1      27.494  22.354  -7.633  0.00  0.00     0.010 A 
ENDBRANCH   1  12
TORSDOF 2
ENDMDL
MODEL 8
REMARK VINA RESULT:      -5.4      7.866     10.089
REMARK  2 active torsions:
REMARK  status: ('A' for Active; 'I' for Inactive)
REMARK    1  A    between atoms: N_1  and  C_2 
REMARK    2  A    between atoms: C_2  and  C_10 
ROOT
HETATM    1  C   UNK N   1      32.135  16.652   7.351  0.00  0.00     0.186 C 
HETATM    2  C   UNK N   1      32.576  15.916   8.644  0.00  0.00     0.047 C 
HETATM    3  C   UNK N   1      33.184  17.728   6.963  0.00  0.00     0.047 C 
HETATM    4  C   UNK N   1      34.092  15.819   8.763  0.00  0.00     0.003 C 
HETATM    5  C   UNK N   1      33.907  18.312   8.177  0.00  0.00     0.003 C 
HETATM    6  C   UNK N   1      34.695  17.222   8.919  0.00  0.00     0.000 C 
ENDROOT
BRANCH   1   7
HETATM    7  N   UNK N   1      32.076  15.669   6.235  0.00  0.00     0.102 N 
HETATM    8  C   UNK N   1      33.202  15.749   5.308  0.00  0.00     0.274 C 
HETATM    9  C   UNK N   1      33.309  14.392   4.659  0.00  0.00     0.032 C 
HETATM   10  C   UNK N   1      32.844  13.438   5.732  0.00  0.00     0.032 C 
HETATM   11  C   UNK N   1      31.993  14.273   6.674  0.00  0.00     0.274 C 
ENDBRANCH   1   7
BRANCH   1  12
HETATM   12  C   UNK N   1      30.804  17.349   7.661  0.00  0.00    -0.020 A 
HETATM   13  C   UNK N   1      29.817  17.426   6.661  0.00  0.00     0.010 A 
HETATM   14  C   UNK N   1      28.591  18.045   6.910  0.00  0.00     0.001 A 
HETATM   15  C   UNK N   1      28.333  18.604   8.163  0.00  0.00     0.000 A 
HETATM   16  C   UNK N   1      29.303  18.544   9.165  0.00  0.00     0.001 A 
HETATM   17  C   UNK N   1      30.529  17.920   8.917  0.00  0.00     0.010 A 
ENDBRANCH   1  12
TORSDOF 2
ENDMDL
MODEL 9
REMARK VINA RESULT:      -5.3      1.827      2.716
REMARK  2 active torsions:
REMARK  status: ('A' for Active; 'I' for Inactive)
REMARK    1  A    between atoms: N_1  and  C_2 
REMARK    2  A    between atoms: C_2  and  C_10 
ROOT
HETATM    1  C   UNK N   1      36.031  10.824  14.597  0.00  0.00     0.186 C 
HETATM    2  C   UNK N   1      35.917   9.290  14.799  0.00  0.00     0.047 C 
HETATM    3  C   UNK N   1      37.472  11.203  14.162  0.00  0.00     0.047 C 
HETATM    4  C   UNK N   1      36.836   8.517  13.862  0.00  0.00     0.003 C 
HETATM    5  C   UNK N   1      38.527  10.248  14.722  0.00  0.00     0.003 C 
HETATM    6  C   UNK N   1      38.303   8.820  14.198  0.00  0.00     0.000 C 
ENDROOT
BRANCH   1   7
HETATM    7  N   UNK N   1      35.115  11.234  13.497  0.00  0.00     0.102 N 
HETATM    8  C   UNK N   1      35.752  11.302  12.184  0.00  0.00     0.274 C 
HETATM    9  C   UNK N   1      34.647  11.126  11.173  0.00  0.00     0.032 C 
HETATM   10  C   UNK N   1      33.663  10.214  11.864  0.00  0.00     0.032 C 
HETATM   11  C   UNK N   1      33.939  10.372  13.349  0.00  0.00     0.274 C 
ENDBRANCH   1   7
BRANCH   1  12
HETATM   12  C   UNK N   1      35.737  11.480  15.953  0.00  0.00    -0.020 A 
HETATM   13  C   UNK N   1      35.451  12.858  16.004  0.00  0.00     0.010 A 
HETATM   14  C   UNK N   1      35.171  13.486  17.219  0.00  0.00     0.001 A 
HETATM   15  C   UNK N   1      35.176  12.749  18.404  0.00  0.00     0.000 A 
HETATM   16  C   UNK N   1      35.464  11.384  18.373  0.00  0.00     0.001 A 
HETATM   17  C   UNK N   1      35.741  10.753  17.157  0.00  0.00     0.010 A 
ENDBRANCH   1  12
TORSDOF 2
ENDMDL
