MODEL 1
REMARK VINA RESULT:      -7.7      0.000      0.000
REMARK  2 active torsions:
REMARK  status: ('A' for Active; 'I' for Inactive)
REMARK    1  A    between atoms: C_4  and  O_19 
REMARK    2  A    between atoms: C_17  and  O_20 
ROOT
HETATM    1  C   UNK N   1      35.184  11.040  17.184  0.00  0.00     0.022 C 
HETATM    2  C   UNK N   1      35.329  12.071  18.285  0.00  0.00    -0.038 C 
HETATM    3  C   UNK N   1      36.389  10.103  17.255  0.00  0.00     0.017 C 
HETATM    4  C   UNK N   1      35.688  11.680  19.524  0.00  0.00     0.114 C 
HETATM    5  C   UNK N   1      36.342   9.342  18.595  0.00  0.00     0.086 C 
HETATM    6  C   UNK N   1      36.056  10.262  19.763  0.00  0.00     0.182 C 
HETATM    7  C   UNK N   1      34.968  11.728  15.822  0.00  0.00    -0.002 C 
HETATM    8  C   UNK N   1      35.976  12.894  15.596  0.00  0.00    -0.005 C 
HETATM    9  C   UNK N   1      35.084  13.519  17.962  0.00  0.00     0.038 C 
HETATM   10  C   UNK N   1      35.902  13.946  16.732  0.00  0.00     0.010 C 
HETATM   11  C   UNK N   1      34.990  10.711  14.661  0.00  0.00     0.006 C 
HETATM   12  C   UNK N   1      34.734  11.388  13.305  0.00  0.00     0.012 C 
HETATM   13  C   UNK N   1      35.616  13.541  14.241  0.00  0.00     0.001 C 
HETATM   14  C   UNK N   1      35.719  12.543  13.091  0.00  0.00    -0.014 C 
HETATM   15  C   UNK N   1      36.452  14.708  13.750  0.00  0.00     0.008 C 
HETATM   16  C   UNK N   1      36.165  14.744  12.238  0.00  0.00     0.033 C 
HETATM   17  C   UNK N   1      35.440  13.431  11.882  0.00  0.00     0.126 C 
HETATM   18  O   UNK N   1      36.199   9.850  20.904  0.00  0.00    -0.290 OA
HETATM   19  C   UNK N   1      37.135  11.967  12.937  0.00  0.00     0.018 C 
ENDROOT
BRANCH   4  20
HETATM   20  O   UNK N   1      35.752  12.571  20.535  0.00  0.00    -0.357 OA
HETATM   21  H   UNK N   1      35.127  12.537  21.232  0.00  0.00     0.218 HD
ENDBRANCH   4  20
BRANCH  17  22
HETATM   22  O   UNK N   1      34.072  13.697  11.766  0.00  0.00    -0.395 OA
HETATM   23  H   UNK N   1      33.162  13.909  11.502  0.00  0.00     0.210 HD
ENDBRANCH  17  22
TORSDOF 2
ENDMDL
MODEL 2
REMARK VINA RESULT:      -7.6     14.073     16.985
REMARK  2 active torsions:
REMARK  status: ('A' for Active; 'I' for Inactive)
REMARK    1  A    between atoms: C_4  and  O_19 
REMARK    2  A    between atoms: C_17  and  O_20 
ROOT
HETATM    1  C   UNK N   1      21.706  15.139   6.922  0.00  0.00     0.022 C 
HETATM    2  C   UNK N   1      20.405  15.652   7.505  0.00  0.00    -0.038 C 
HETATM    3  C   UNK N   1      21.365  14.170   5.790  0.00  0.00     0.017 C 
HETATM    4  C   UNK N   1      19.414  16.048   6.681  0.00  0.00     0.114 C 
HETATM    5  C   UNK N   1      20.648  14.954   4.672  0.00  0.00     0.086 C 
HETATM    6  C   UNK N   1      19.564  15.859   5.217  0.00  0.00     0.182 C 
HETATM    7  C   UNK N   1      22.606  14.560   8.031  0.00  0.00    -0.002 C 
HETATM    8  C   UNK N   1      21.815  13.615   8.984  0.00  0.00    -0.005 C 
HETATM    9  C   UNK N   1      20.243  15.692   8.999  0.00  0.00     0.038 C 
HETATM   10  C   UNK N   1      20.594  14.329   9.619  0.00  0.00     0.010 C 
HETATM   11  C   UNK N   1      23.859  13.874   7.446  0.00  0.00     0.006 C 
HETATM   12  C   UNK N   1      24.779  13.331   8.552  0.00  0.00     0.012 C 
HETATM   13  C   UNK N   1      22.800  13.158  10.081  0.00  0.00     0.001 C 
HETATM   14  C   UNK N   1      23.996  12.412   9.495  0.00  0.00    -0.014 C 
HETATM   15  C   UNK N   1      22.301  12.207  11.153  0.00  0.00     0.008 C 
HETATM   16  C   UNK N   1      23.596  11.593  11.718  0.00  0.00     0.033 C 
HETATM   17  C   UNK N   1      24.737  11.974  10.755  0.00  0.00     0.126 C 
HETATM   18  O   UNK N   1      18.769  16.377   4.448  0.00  0.00    -0.290 OA
HETATM   19  C   UNK N   1      23.582  11.148   8.728  0.00  0.00     0.018 C 
ENDROOT
BRANCH   4  20
HETATM   20  O   UNK N   1      18.276  16.576   7.179  0.00  0.00    -0.357 OA
HETATM   21  H   UNK N   1      17.611  16.890   6.598  0.00  0.00     0.218 HD
ENDBRANCH   4  20
BRANCH  17  22
HETATM   22  O   UNK N   1      25.448  13.044  11.310  0.00  0.00    -0.395 OA
HETATM   23  H   UNK N   1      26.094  13.696  11.626  0.00  0.00     0.210 HD
ENDBRANCH  17  22
TORSDOF 2
ENDMDL
MODEL 3
REMARK VINA RESULT:      -7.5      1.565      6.569
REMARK  2 active torsions:
REMARK  status: ('A' for Active; 'I' for Inactive)
REMARK    1  A    between atoms: C_4  and  O_19 
REMARK    2  A    between atoms: C_17  and  O_20 
ROOT
HETATM    1  C   UNK N   1      35.130  13.050  15.934  0.00  0.00     0.022 C 
HETATM    2  C   UNK N   1      34.673  12.419  14.635  0.00  0.00    -0.038 C 
HETATM    3  C   UNK N   1      36.621  13.363  15.807  0.00  0.00     0.017 C 
HETATM    4  C   UNK N   1      35.055  12.958  13.460  0.00  0.00     0.114 C 
HETATM    5  C   UNK N   1      36.808  14.421  14.701  0.00  0.00     0.086 C 
HETATM    6  C   UNK N   1      36.018  14.087  13.454  0.00  0.00     0.182 C 
HETATM    7  C   UNK N   1      34.747  12.161  17.133  0.00  0.00    -0.002 C 
HETATM    8  C   UNK N   1      35.111  10.666  16.885  0.00  0.00    -0.005 C 
HETATM    9  C   UNK N   1      33.813  11.187  14.687  0.00  0.00     0.038 C 
HETATM   10  C   UNK N   1      34.448  10.120  15.594  0.00  0.00     0.010 C 
HETATM   11  C   UNK N   1      35.351  12.691  18.451  0.00  0.00     0.006 C 
HETATM   12  C   UNK N   1      34.937  11.829  19.655  0.00  0.00     0.012 C 
HETATM   13  C   UNK N   1      34.621   9.875  18.116  0.00  0.00     0.001 C 
HETATM   14  C   UNK N   1      35.285  10.358  19.403  0.00  0.00    -0.014 C 
HETATM   15  C   UNK N   1      34.857   8.377  18.157  0.00  0.00     0.008 C 
HETATM   16  C   UNK N   1      34.730   8.034  19.653  0.00  0.00     0.033 C 
HETATM   17  C   UNK N   1      34.739   9.367  20.426  0.00  0.00     0.126 C 
HETATM   18  O   UNK N   1      36.229  14.707  12.423  0.00  0.00    -0.290 OA
HETATM   19  C   UNK N   1      36.813  10.206  19.368  0.00  0.00     0.018 C 
ENDROOT
BRANCH   4  20
HETATM   20  O   UNK N   1      34.600  12.455  12.293  0.00  0.00    -0.357 OA
HETATM   21  H   UNK N   1      33.890  11.844  12.290  0.00  0.00     0.218 HD
ENDBRANCH   4  20
BRANCH  17  22
HETATM   22  O   UNK N   1      33.422   9.687  20.774  0.00  0.00    -0.395 OA
HETATM   23  H   UNK N   1      32.551  10.080  20.943  0.00  0.00     0.210 HD
ENDBRANCH  17  22
TORSDOF 2
ENDMDL
MODEL 4
REMARK VINA RESULT:      -7.1     21.786     25.347
REMARK  2 active torsions:
REMARK  status: ('A' for Active; 'I' for Inactive)
REMARK    1  A    between atoms: C_4  and  O_19 
REMARK    2  A    between atoms: C_17  and  O_20 
ROOT
HETATM    1  C   UNK N   1      29.690  22.189  -4.831  0.00  0.00     0.022 C 
HETATM    2  C   UNK N   1      29.604  22.799  -3.446  0.00  0.00    -0.038 C 
HETATM    3  C   UNK N   1      31.102  22.431  -5.364  0.00  0.00     0.017 C 
HETATM    4  C   UNK N   1      30.601  22.595  -2.562  0.00  0.00     0.114 C 
HETATM    5  C   UNK N   1      32.102  21.669  -4.472  0.00  0.00     0.086 C 
HETATM    6  C   UNK N   1      31.827  21.880  -2.999  0.00  0.00     0.182 C 
HETATM    7  C   UNK N   1      28.552  22.714  -5.726  0.00  0.00    -0.002 C 
HETATM    8  C   UNK N   1      28.400  24.261  -5.623  0.00  0.00    -0.005 C 
HETATM    9  C   UNK N   1      28.407  23.637  -3.094  0.00  0.00     0.038 C 
HETATM   10  C   UNK N   1      28.171  24.720  -4.160  0.00  0.00     0.010 C 
HETATM   11  C   UNK N   1      28.716  22.246  -7.188  0.00  0.00     0.006 C 
HETATM   12  C   UNK N   1      27.559  22.735  -8.076  0.00  0.00     0.012 C 
HETATM   13  C   UNK N   1      27.196  24.654  -6.504  0.00  0.00     0.001 C 
HETATM   14  C   UNK N   1      27.405  24.255  -7.962  0.00  0.00    -0.014 C 
HETATM   15  C   UNK N   1      26.819  26.120  -6.606  0.00  0.00     0.008 C 
HETATM   16  C   UNK N   1      25.976  26.185  -7.894  0.00  0.00     0.033 C 
HETATM   17  C   UNK N   1      26.164  24.843  -8.627  0.00  0.00     0.126 C 
HETATM   18  O   UNK N   1      32.653  21.522  -2.174  0.00  0.00    -0.290 OA
HETATM   19  C   UNK N   1      28.637  24.928  -8.585  0.00  0.00     0.018 C 
ENDROOT
BRANCH   4  20
HETATM   20  O   UNK N   1      30.511  23.068  -1.302  0.00  0.00    -0.357 OA
HETATM   21  H   UNK N   1      31.269  23.418  -0.877  0.00  0.00     0.218 HD
ENDBRANCH   4  20
BRANCH  17  22
HETATM   22  O   UNK N   1      25.043  24.042  -8.383  0.00  0.00    -0.395 OA
HETATM   23  H   UNK N   1      24.281  23.552  -8.035  0.00  0.00     0.210 HD
ENDBRANCH  17  22
TORSDOF 2
ENDMDL
MODEL 5
REMARK VINA RESULT:      -7.1      9.799     13.723
REMARK  2 active torsions:
REMARK  status: ('A' for Active; 'I' for Inactive)
REMARK    1  A    between atoms: C_4  and  O_19 
REMARK    2  A    between atoms: C_17  and  O_20 
ROOT
HETATM    1  C   UNK N   1      29.191  17.404   4.375  0.00  0.00     0.022 C 
HETATM    2  C   UNK N   1      28.029  17.707   5.300  0.00  0.00    -0.038 C 
HETATM    3  C   UNK N   1      28.964  16.018   3.772  0.00  0.00     0.017 C 
HETATM    4  C   UNK N   1      26.769  17.448   4.897  0.00  0.00     0.114 C 
HETATM    5  C   UNK N   1      27.692  16.063   2.900  0.00  0.00     0.086 C 
HETATM    6  C   UNK N   1      26.545  16.756   3.603  0.00  0.00     0.182 C 
HETATM    7  C   UNK N   1      30.532  17.587   5.111  0.00  0.00    -0.002 C 
HETATM    8  C   UNK N   1      30.522  16.903   6.511  0.00  0.00    -0.005 C 
HETATM    9  C   UNK N   1      28.313  18.276   6.662  0.00  0.00     0.038 C 
HETATM   10  C   UNK N   1      29.363  17.425   7.397  0.00  0.00     0.010 C 
HETATM   11  C   UNK N   1      31.723  17.120   4.247  0.00  0.00     0.006 C 
HETATM   12  C   UNK N   1      33.066  17.338   4.964  0.00  0.00     0.012 C 
HETATM   13  C   UNK N   1      31.883  17.213   7.171  0.00  0.00     0.001 C 
HETATM   14  C   UNK N   1      33.049  16.675   6.345  0.00  0.00    -0.014 C 
HETATM   15  C   UNK N   1      32.163  16.653   8.553  0.00  0.00     0.008 C 
HETATM   16  C   UNK N   1      33.699  16.708   8.658  0.00  0.00     0.033 C 
HETATM   17  C   UNK N   1      34.240  16.995   7.244  0.00  0.00     0.126 C 
HETATM   18  O   UNK N   1      25.419  16.683   3.135  0.00  0.00    -0.290 OA
HETATM   19  C   UNK N   1      32.989  15.151   6.165  0.00  0.00     0.018 C 
ENDROOT
BRANCH   4  20
HETATM   20  O   UNK N   1      25.717  17.777   5.676  0.00  0.00    -0.357 OA
HETATM   21  H   UNK N   1      25.399  18.658   5.687  0.00  0.00     0.218 HD
ENDBRANCH   4  20
BRANCH  17  22
HETATM   22  O   UNK N   1      34.574  18.351   7.163  0.00  0.00    -0.395 OA
HETATM   23  H   UNK N   1      34.629  19.320   7.168  0.00  0.00     0.210 HD
ENDBRANCH  17  22
TORSDOF 2
ENDMDL
MODEL 6
REMARK VINA RESULT:      -7.0      6.923     10.414
REMARK  2 active torsions:
REMARK  status: ('A' for Active; 'I' for Inactive)
REMARK    1  A    between atoms: C_4  and  O_19 
REMARK    2  A    between atoms: C_17  and  O_20 
ROOT
HETATM    1  C   UNK N   1      32.920  15.820   8.654  0.00  0.00     0.022 C 
HETATM    2  C   UNK N   1      33.946  16.894   8.955  0.00  0.00    -0.038 C 
HETATM    3  C   UNK N   1      33.631  14.468   8.681  0.00  0.00     0.017 C 
HETATM    4  C   UNK N   1      34.820  16.718   9.966  0.00  0.00     0.114 C 
HETATM    5  C   UNK N   1      34.146  14.211  10.112  0.00  0.00     0.086 C 
HETATM    6  C   UNK N   1      34.847  15.422  10.690  0.00  0.00     0.182 C 
HETATM    7  C   UNK N   1      32.168  16.140   7.347  0.00  0.00    -0.002 C 
HETATM    8  C   UNK N   1      33.143  16.552   6.204  0.00  0.00    -0.005 C 
HETATM    9  C   UNK N   1      33.976  18.131   8.101  0.00  0.00     0.038 C 
HETATM   10  C   UNK N   1      34.027  17.760   6.609  0.00  0.00     0.010 C 
HETATM   11  C   UNK N   1      31.241  14.980   6.926  0.00  0.00     0.006 C 
HETATM   12  C   UNK N   1      30.459  15.312   5.644  0.00  0.00     0.012 C 
HETATM   13  C   UNK N   1      32.274  16.910   4.980  0.00  0.00     0.001 C 
HETATM   14  C   UNK N   1      31.420  15.729   4.526  0.00  0.00    -0.014 C 
HETATM   15  C   UNK N   1      32.965  17.338   3.700  0.00  0.00     0.008 C 
HETATM   16  C   UNK N   1      31.891  17.112   2.619  0.00  0.00     0.033 C 
HETATM   17  C   UNK N   1      30.763  16.286   3.267  0.00  0.00     0.126 C 
HETATM   18  O   UNK N   1      35.492  15.310  11.720  0.00  0.00    -0.290 OA
HETATM   19  C   UNK N   1      32.267  14.514   4.118  0.00  0.00     0.018 C 
ENDROOT
BRANCH   4  20
HETATM   20  O   UNK N   1      35.695  17.691  10.296  0.00  0.00    -0.357 OA
HETATM   21  H   UNK N   1      35.617  18.132  11.119  0.00  0.00     0.218 HD
ENDBRANCH   4  20
BRANCH  17  22
HETATM   22  O   UNK N   1      29.713  17.150   3.595  0.00  0.00    -0.395 OA
HETATM   23  H   UNK N   1      29.108  17.823   3.945  0.00  0.00     0.210 HD
ENDBRANCH  17  22
TORSDOF 2
ENDMDL
MODEL 7
REMARK VINA RESULT:      -6.9      8.557     12.212
REMARK  2 active torsions:
REMARK  status: ('A' for Active; 'I' for Inactive)
REMARK    1  A    between atoms: C_4  and  O_19 
REMARK    2  A    between atoms: C_17  and  O_20 
ROOT
HETATM    1  C   UNK N   1      32.232  16.994   7.797  0.00  0.00     0.022 C 
HETATM    2  C   UNK N   1      33.280  16.794   6.721  0.00  0.00    -0.038 C 
HETATM    3  C   UNK N   1      31.974  15.642   8.460  0.00  0.00     0.017 C 
HETATM    4  C   UNK N   1      34.378  16.059   6.985  0.00  0.00     0.114 C 
HETATM    5  C   UNK N   1      33.267  15.187   9.168  0.00  0.00     0.086 C 
HETATM    6  C   UNK N   1      34.486  15.353   8.287  0.00  0.00     0.182 C 
HETATM    7  C   UNK N   1      30.984  17.689   7.217  0.00  0.00    -0.002 C 
HETATM    8  C   UNK N   1      30.531  17.039   5.876  0.00  0.00    -0.005 C 
HETATM    9  C   UNK N   1      33.059  17.411   5.367  0.00  0.00     0.038 C 
HETATM   10  C   UNK N   1      31.669  17.040   4.823  0.00  0.00     0.010 C 
HETATM   11  C   UNK N   1      29.837  17.749   8.247  0.00  0.00     0.006 C 
HETATM   12  C   UNK N   1      28.604  18.477   7.685  0.00  0.00     0.012 C 
HETATM   13  C   UNK N   1      29.327  17.858   5.365  0.00  0.00     0.001 C 
HETATM   14  C   UNK N   1      28.169  17.843   6.360  0.00  0.00    -0.014 C 
HETATM   15  C   UNK N   1      28.662  17.438   4.068  0.00  0.00     0.008 C 
HETATM   16  C   UNK N   1      27.274  18.101   4.145  0.00  0.00     0.033 C 
HETATM   17  C   UNK N   1      27.089  18.600   5.591  0.00  0.00     0.126 C 
HETATM   18  O   UNK N   1      35.544  14.842   8.620  0.00  0.00    -0.290 OA
HETATM   19  C   UNK N   1      27.646  16.425   6.634  0.00  0.00     0.018 C 
ENDROOT
BRANCH   4  20
HETATM   20  O   UNK N   1      35.356  15.928   6.065  0.00  0.00    -0.357 OA
HETATM   21  H   UNK N   1      36.254  15.936   6.331  0.00  0.00     0.218 HD
ENDBRANCH   4  20
BRANCH  17  22
HETATM   22  O   UNK N   1      27.332  19.978   5.620  0.00  0.00    -0.395 OA
HETATM   23  H   UNK N   1      27.383  20.938   5.491  0.00  0.00     0.210 HD
ENDBRANCH  17  22
TORSDOF 2
ENDMDL
MODEL 8
REMARK VINA RESULT:      -6.9     21.562     24.391
REMARK  2 active torsions:
REMARK  status: ('A' for Active; 'I' for Inactive)
REMARK    1  A    between atoms: C_4  and  O_19 
REMARK    2  A    between atoms: C_17  and  O_20 
ROOT
HETATM    1  C   UNK N   1      30.876  21.553  -5.028  0.00  0.00     0.022 C 
HETATM    2  C   UNK N   1      31.257  21.622  -3.563  0.00  0.00    -0.038 C 
HETATM    3  C   UNK N   1      31.988  22.221  -5.836  0.00  0.00     0.017 C 
HETATM    4  C   UNK N   1      32.514  21.315  -3.184  0.00  0.00     0.114 C 
HETATM    5  C   UNK N   1      33.281  21.397  -5.667  0.00  0.00     0.086 C 
HETATM    6  C   UNK N   1      33.539  21.034  -4.220  0.00  0.00     0.182 C 
HETATM    7  C   UNK N   1      29.465  22.134  -5.249  0.00  0.00    -0.002 C 
HETATM    8  C   UNK N   1      29.278  23.495  -4.513  0.00  0.00    -0.005 C 
HETATM    9  C   UNK N   1      30.222  22.051  -2.561  0.00  0.00     0.038 C 
HETATM   10  C   UNK N   1      29.562  23.371  -2.995  0.00  0.00     0.010 C 
HETATM   11  C   UNK N   1      29.121  22.236  -6.750  0.00  0.00     0.006 C 
HETATM   12  C   UNK N   1      27.699  22.777  -6.973  0.00  0.00     0.012 C 
HETATM   13  C   UNK N   1      27.819  23.936  -4.753  0.00  0.00     0.001 C 
HETATM   14  C   UNK N   1      27.514  24.109  -6.238  0.00  0.00    -0.014 C 
HETATM   15  C   UNK N   1      27.352  25.251  -4.158  0.00  0.00     0.008 C 
HETATM   16  C   UNK N   1      26.102  25.598  -4.989  0.00  0.00     0.033 C 
HETATM   17  C   UNK N   1      26.088  24.649  -6.203  0.00  0.00     0.126 C 
HETATM   18  O   UNK N   1      34.624  20.573  -3.899  0.00  0.00    -0.290 OA
HETATM   19  C   UNK N   1      28.404  25.171  -6.901  0.00  0.00     0.018 C 
ENDROOT
BRANCH   4  20
HETATM   20  O   UNK N   1      32.855  21.300  -1.878  0.00  0.00    -0.357 OA
HETATM   21  H   UNK N   1      32.557  20.606  -1.324  0.00  0.00     0.218 HD
ENDBRANCH   4  20
BRANCH  17  22
HETATM   22  O   UNK N   1      25.173  23.621  -5.952  0.00  0.00    -0.395 OA
HETATM   23  H   UNK N   1      24.410  23.031  -5.843  0.00  0.00     0.210 HD
ENDBRANCH  17  22
TORSDOF 2
ENDMDL
MODEL 9
REMARK VINA RESULT:      -6.9     22.479     25.358
REMARK  2 active torsions:
REMARK  status: ('A' for Active; 'I' for Inactive)
REMARK    1  A    between atoms: C_4  and  O_19 
REMARK    2  A    between atoms: C_17  and  O_20 
ROOT
HETATM    1  C   UNK N   1      27.884  25.081  -3.784  0.00  0.00     0.022 C 
HETATM    2  C   UNK N   1      26.703  24.957  -4.726  0.00  0.00    -0.038 C 
HETATM    3  C   UNK N   1      28.601  26.393  -4.099  0.00  0.00     0.017 C 
HETATM    4  C   UNK N   1      25.902  26.020  -4.936  0.00  0.00     0.114 C 
HETATM    5  C   UNK N   1      27.647  27.563  -3.782  0.00  0.00     0.086 C 
HETATM    6  C   UNK N   1      26.259  27.331  -4.339  0.00  0.00     0.182 C 
HETATM    7  C   UNK N   1      28.767  23.819  -3.852  0.00  0.00    -0.002 C 
HETATM    8  C   UNK N   1      29.053  23.391  -5.323  0.00  0.00    -0.005 C 
HETATM    9  C   UNK N   1      26.462  23.646  -5.421  0.00  0.00     0.038 C 
HETATM   10  C   UNK N   1      27.743  23.159  -6.119  0.00  0.00     0.010 C 
HETATM   11  C   UNK N   1      30.066  23.989  -3.036  0.00  0.00     0.006 C 
HETATM   12  C   UNK N   1      30.929  22.717  -3.069  0.00  0.00     0.012 C 
HETATM   13  C   UNK N   1      29.880  22.090  -5.259  0.00  0.00     0.001 C 
HETATM   14  C   UNK N   1      31.199  22.292  -4.517  0.00  0.00    -0.014 C 
HETATM   15  C   UNK N   1      30.320  21.445  -6.559  0.00  0.00     0.008 C 
HETATM   16  C   UNK N   1      31.490  20.538  -6.132  0.00  0.00     0.033 C 
HETATM   17  C   UNK N   1      31.865  20.931  -4.690  0.00  0.00     0.126 C 
HETATM   18  O   UNK N   1      25.456  28.252  -4.359  0.00  0.00    -0.290 OA
HETATM   19  C   UNK N   1      32.095  23.345  -5.186  0.00  0.00     0.018 C 
ENDROOT
BRANCH   4  20
HETATM   20  O   UNK N   1      24.804  25.911  -5.714  0.00  0.00    -0.357 OA
HETATM   21  H   UNK N   1      24.114  25.325  -5.471  0.00  0.00     0.218 HD
ENDBRANCH   4  20
BRANCH  17  22
HETATM   22  O   UNK N   1      31.311  19.991  -3.815  0.00  0.00    -0.395 OA
HETATM   23  H   UNK N   1      31.014  19.212  -3.318  0.00  0.00     0.210 HD
ENDBRANCH  17  22
TORSDOF 2
ENDMDL
