MODEL 1
REMARK VINA RESULT:      -7.9      0.000      0.000
REMARK  6 active torsions:
REMARK  status: ('A' for Active; 'I' for Inactive)
REMARK    1  A    between atoms: O_2  and  C_9 
REMARK    2  A    between atoms: O_3  and  C_19 
REMARK    3  A    between atoms: O_4  and  C_26 
REMARK    4  A    between atoms: C_12  and  C_19 
REMARK    5  A    between atoms: C_19  and  C_22 
REMARK    6  A    between atoms: C_22  and  C_29 
ROOT
HETATM    1  O   UNK N   1      27.627  16.423   6.850  0.00  0.00    -0.338 OA
HETATM    2  N   UNK N   1      32.443  15.695   4.759  0.00  0.00     0.090 N 
HETATM    3  C   UNK N   1      29.673  16.091   5.729  0.00  0.00     0.035 A 
HETATM    4  C   UNK N   1      30.249  16.941   4.582  0.00  0.00     0.024 C 
HETATM    5  C   UNK N   1      28.124  15.893   5.650  0.00  0.00     0.182 A 
HETATM    6  C   UNK N   1      27.621  16.585   4.333  0.00  0.00     0.112 C 
HETATM    7  C   UNK N   1      31.789  17.022   4.900  0.00  0.00     0.240 C 
HETATM    8  C   UNK N   1      29.517  18.326   4.538  0.00  0.00     0.028 C 
HETATM    9  C   UNK N   1      27.972  18.124   4.334  0.00  0.00     0.062 C 
HETATM   10  C   UNK N   1      30.406  14.754   5.947  0.00  0.00     0.048 C 
HETATM   11  C   UNK N   1      29.797  16.863   6.941  0.00  0.00    -0.003 A 
HETATM   12  C   UNK N   1      29.834  16.223   3.313  0.00  0.00    -0.015 C 
HETATM   13  C   UNK N   1      32.109  17.557   6.357  0.00  0.00     0.076 C 
HETATM   14  C   UNK N   1      28.504  16.012   3.201  0.00  0.00     0.011 C 
HETATM   15  C   UNK N   1      31.581  14.521   4.989  0.00  0.00     0.273 C 
HETATM   16  C   UNK N   1      30.951  17.501   7.339  0.00  0.00    -0.046 A 
HETATM   17  C   UNK N   1      28.618  16.982   7.569  0.00  0.00     0.110 A 
HETATM   18  C   UNK N   1      32.967  15.538   3.407  0.00  0.00     0.310 C 
HETATM   19  C   UNK N   1      30.914  18.229   8.540  0.00  0.00     0.011 A 
HETATM   20  C   UNK N   1      28.529  17.691   8.769  0.00  0.00     0.099 A 
HETATM   21  C   UNK N   1      29.704  18.297   9.277  0.00  0.00     0.040 A 
ENDROOT
BRANCH   9  22
HETATM   22  C   UNK N   1      27.117  19.251   4.995  0.00  0.00     0.061 C 
HETATM   23  C   UNK N   1      26.449  20.167   3.984  0.00  0.00     0.046 C 
BRANCH  22  24
HETATM   24  O   UNK N   1      26.088  18.610   5.685  0.00  0.00    -0.390 OA
HETATM   25  H   UNK N   1      25.452  17.988   6.072  0.00  0.00     0.210 HD
ENDBRANCH  22  24
BRANCH  22  26
HETATM   26  C   UNK N   1      27.877  20.093   6.029  0.00  0.00     0.037 C 
BRANCH  26  27
HETATM   27  C   UNK N   1      27.305  21.493   6.236  0.00  0.00    -0.002 C 
HETATM   28  C   UNK N   1      26.322  21.477   7.388  0.00  0.00     0.005 C 
ENDBRANCH  26  27
ENDBRANCH  22  26
ENDBRANCH   9  22
BRANCH   6  29
HETATM   29  O   UNK N   1      26.253  16.285   4.122  0.00  0.00    -0.378 OA
HETATM   30  C   UNK N   1      25.935  16.375   2.752  0.00  0.00     0.203 C 
ENDBRANCH   6  29
BRANCH  20  31
HETATM   31  O   UNK N   1      27.356  17.827   9.409  0.00  0.00    -0.358 OA
HETATM   32  H   UNK N   1      26.709  17.150   9.374  0.00  0.00     0.217 HD
ENDBRANCH  20  31
TORSDOF 6
ENDMDL
MODEL 2
REMARK VINA RESULT:      -6.8      3.965      6.683
REMARK  6 active torsions:
REMARK  status: ('A' for Active; 'I' for Inactive)
REMARK    1  A    between atoms: O_2  and  C_9 
REMARK    2  A    between atoms: O_3  and  C_19 
REMARK    3  A    between atoms: O_4  and  C_26 
REMARK    4  A    between atoms: C_12  and  C_19 
REMARK    5  A    between atoms: C_19  and  C_22 
REMARK    6  A    between atoms: C_22  and  C_29 
ROOT
HETATM    1  O   UNK N   1      34.565  16.871   6.123  0.00  0.00    -0.338 OA
HETATM    2  N   UNK N   1      29.857  15.721   3.976  0.00  0.00     0.090 N 
HETATM    3  C   UNK N   1      32.563  16.183   5.087  0.00  0.00     0.035 A 
HETATM    4  C   UNK N   1      31.845  14.833   5.264  0.00  0.00     0.024 C 
HETATM    5  C   UNK N   1      34.122  16.070   5.060  0.00  0.00     0.182 A 
HETATM    6  C   UNK N   1      34.491  14.545   5.148  0.00  0.00     0.112 C 
HETATM    7  C   UNK N   1      30.316  15.211   5.295  0.00  0.00     0.240 C 
HETATM    8  C   UNK N   1      32.370  14.126   6.560  0.00  0.00     0.028 C 
HETATM    9  C   UNK N   1      33.923  13.903   6.474  0.00  0.00     0.062 C 
HETATM   10  C   UNK N   1      32.034  17.025   3.910  0.00  0.00     0.048 C 
HETATM   11  C   UNK N   1      32.357  16.941   6.297  0.00  0.00    -0.003 A 
HETATM   12  C   UNK N   1      32.329  13.976   4.111  0.00  0.00    -0.015 C 
HETATM   13  C   UNK N   1      29.956  16.308   6.380  0.00  0.00     0.076 C 
HETATM   14  C   UNK N   1      33.673  13.856   4.032  0.00  0.00     0.011 C 
HETATM   15  C   UNK N   1      30.883  16.367   3.139  0.00  0.00     0.273 C 
HETATM   16  C   UNK N   1      31.133  17.116   6.904  0.00  0.00    -0.046 A 
HETATM   17  C   UNK N   1      33.520  17.353   6.822  0.00  0.00     0.110 A 
HETATM   18  C   UNK N   1      29.330  14.623   3.174  0.00  0.00     0.310 C 
HETATM   19  C   UNK N   1      31.091  17.869   8.089  0.00  0.00     0.011 A 
HETATM   20  C   UNK N   1      33.534  18.110   7.996  0.00  0.00     0.099 A 
HETATM   21  C   UNK N   1      32.296  18.398   8.621  0.00  0.00     0.040 A 
ENDROOT
BRANCH   9  22
HETATM   22  C   UNK N   1      34.623  13.930   7.869  0.00  0.00     0.061 C 
HETATM   23  C   UNK N   1      35.224  12.593   8.263  0.00  0.00     0.046 C 
BRANCH  22  24
HETATM   24  O   UNK N   1      35.688  14.823   7.758  0.00  0.00    -0.390 OA
HETATM   25  H   UNK N   1      36.513  15.327   7.840  0.00  0.00     0.210 HD
ENDBRANCH  22  24
BRANCH  22  26
HETATM   26  C   UNK N   1      33.735  14.451   9.008  0.00  0.00     0.037 C 
BRANCH  26  27
HETATM   27  C   UNK N   1      34.468  15.324  10.022  0.00  0.00    -0.002 C 
HETATM   28  C   UNK N   1      34.574  14.591  11.344  0.00  0.00     0.005 C 
ENDBRANCH  26  27
ENDBRANCH  22  26
ENDBRANCH   9  22
BRANCH   6  29
HETATM   29  O   UNK N   1      35.882  14.373   4.949  0.00  0.00    -0.378 OA
HETATM   30  C   UNK N   1      36.159  13.061   4.517  0.00  0.00     0.203 C 
ENDBRANCH   6  29
BRANCH  20  31
HETATM   31  O   UNK N   1      34.689  18.525   8.540  0.00  0.00    -0.358 OA
HETATM   32  H   UNK N   1      34.704  18.923   9.388  0.00  0.00     0.217 HD
ENDBRANCH  20  31
TORSDOF 6
ENDMDL
MODEL 3
REMARK VINA RESULT:      -6.8      1.676      2.499
REMARK  6 active torsions:
REMARK  status: ('A' for Active; 'I' for Inactive)
REMARK    1  A    between atoms: O_2  and  C_9 
REMARK    2  A    between atoms: O_3  and  C_19 
REMARK    3  A    between atoms: O_4  and  C_26 
REMARK    4  A    between atoms: C_12  and  C_19 
REMARK    5  A    between atoms: C_19  and  C_22 
REMARK    6  A    between atoms: C_22  and  C_29 
ROOT
HETATM    1  O   UNK N   1      26.268  16.309   6.399  0.00  0.00    -0.338 OA
HETATM    2  N   UNK N   1      29.439  13.737   3.017  0.00  0.00     0.090 N 
HETATM    3  C   UNK N   1      27.525  15.191   4.747  0.00  0.00     0.035 A 
HETATM    4  C   UNK N   1      27.922  15.732   3.362  0.00  0.00     0.024 C 
HETATM    5  C   UNK N   1      26.087  15.607   5.198  0.00  0.00     0.182 A 
HETATM    6  C   UNK N   1      25.433  16.417   4.021  0.00  0.00     0.112 C 
HETATM    7  C   UNK N   1      29.396  15.216   3.156  0.00  0.00     0.240 C 
HETATM    8  C   UNK N   1      27.766  17.291   3.344  0.00  0.00     0.028 C 
HETATM    9  C   UNK N   1      26.286  17.700   3.677  0.00  0.00     0.062 C 
HETATM   10  C   UNK N   1      27.759  13.679   4.921  0.00  0.00     0.048 C 
HETATM   11  C   UNK N   1      28.335  15.876   5.724  0.00  0.00    -0.003 A 
HETATM   12  C   UNK N   1      26.860  15.208   2.415  0.00  0.00    -0.015 C 
HETATM   13  C   UNK N   1      30.377  15.611   4.335  0.00  0.00     0.076 C 
HETATM   14  C   UNK N   1      25.595  15.527   2.767  0.00  0.00     0.011 C 
HETATM   15  C   UNK N   1      28.355  12.993   3.685  0.00  0.00     0.273 C 
HETATM   16  C   UNK N   1      29.701  16.025   5.633  0.00  0.00    -0.046 A 
HETATM   17  C   UNK N   1      27.579  16.453   6.671  0.00  0.00     0.110 A 
HETATM   18  C   UNK N   1      29.359  13.365   1.609  0.00  0.00     0.310 C 
HETATM   19  C   UNK N   1      30.353  16.732   6.658  0.00  0.00     0.011 A 
HETATM   20  C   UNK N   1      28.178  17.162   7.714  0.00  0.00     0.099 A 
HETATM   21  C   UNK N   1      29.590  17.276   7.723  0.00  0.00     0.040 A 
ENDROOT
BRANCH   9  22
HETATM   22  C   UNK N   1      26.181  19.081   4.397  0.00  0.00     0.061 C 
HETATM   23  C   UNK N   1      25.436  20.125   3.584  0.00  0.00     0.046 C 
BRANCH  22  24
HETATM   24  O   UNK N   1      25.425  18.867   5.549  0.00  0.00    -0.390 OA
HETATM   25  H   UNK N   1      25.067  18.598   6.410  0.00  0.00     0.210 HD
ENDBRANCH  22  24
BRANCH  22  26
HETATM   26  C   UNK N   1      27.528  19.653   4.860  0.00  0.00     0.037 C 
BRANCH  26  27
HETATM   27  C   UNK N   1      27.509  20.234   6.271  0.00  0.00    -0.002 C 
HETATM   28  C   UNK N   1      27.337  21.737   6.202  0.00  0.00     0.005 C 
ENDBRANCH  26  27
ENDBRANCH  22  26
ENDBRANCH   9  22
BRANCH   6  29
HETATM   29  O   UNK N   1      24.069  16.665   4.305  0.00  0.00    -0.378 OA
HETATM   30  C   UNK N   1      23.374  15.452   4.480  0.00  0.00     0.203 C 
ENDBRANCH   6  29
BRANCH  20  31
HETATM   31  O   UNK N   1      27.437  17.753   8.666  0.00  0.00    -0.358 OA
HETATM   32  H   UNK N   1      26.502  17.765   8.607  0.00  0.00     0.217 HD
ENDBRANCH  20  31
TORSDOF 6
ENDMDL
MODEL 4
REMARK VINA RESULT:      -6.8     12.797     15.702
REMARK  6 active torsions:
REMARK  status: ('A' for Active; 'I' for Inactive)
REMARK    1  A    between atoms: O_2  and  C_9 
REMARK    2  A    between atoms: O_3  and  C_19 
REMARK    3  A    between atoms: O_4  and  C_26 
REMARK    4  A    between atoms: C_12  and  C_19 
REMARK    5  A    between atoms: C_19  and  C_22 
REMARK    6  A    between atoms: C_22  and  C_29 
ROOT
HETATM    1  O   UNK N   1      29.579  25.926  -5.811  0.00  0.00    -0.338 OA
HETATM    2  N   UNK N   1      26.996  29.656  -3.071  0.00  0.00     0.090 N 
HETATM    3  C   UNK N   1      28.456  27.713  -4.762  0.00  0.00     0.035 A 
HETATM    4  C   UNK N   1      27.234  28.480  -5.297  0.00  0.00     0.024 C 
HETATM    5  C   UNK N   1      29.490  27.325  -5.868  0.00  0.00     0.182 A 
HETATM    6  C   UNK N   1      28.984  27.926  -7.228  0.00  0.00     0.112 C 
HETATM    7  C   UNK N   1      26.342  28.720  -4.022  0.00  0.00     0.240 C 
HETATM    8  C   UNK N   1      26.545  27.644  -6.429  0.00  0.00     0.028 C 
HETATM    9  C   UNK N   1      27.557  27.361  -7.598  0.00  0.00     0.062 C 
HETATM   10  C   UNK N   1      29.139  28.385  -3.557  0.00  0.00     0.048 C 
HETATM   11  C   UNK N   1      27.996  26.413  -4.339  0.00  0.00    -0.003 A 
HETATM   12  C   UNK N   1      27.807  29.702  -5.989  0.00  0.00    -0.015 C 
HETATM   13  C   UNK N   1      26.003  27.393  -3.226  0.00  0.00     0.076 C 
HETATM   14  C   UNK N   1      28.720  29.423  -6.946  0.00  0.00     0.011 C 
HETATM   15  C   UNK N   1      28.470  29.689  -3.105  0.00  0.00     0.273 C 
HETATM   16  C   UNK N   1      26.898  26.204  -3.533  0.00  0.00    -0.046 A 
HETATM   17  C   UNK N   1      28.697  25.430  -4.922  0.00  0.00     0.110 A 
HETATM   18  C   UNK N   1      26.567  31.024  -3.342  0.00  0.00     0.310 C 
HETATM   19  C   UNK N   1      26.563  24.876  -3.216  0.00  0.00     0.011 A 
HETATM   20  C   UNK N   1      28.408  24.094  -4.637  0.00  0.00     0.099 A 
HETATM   21  C   UNK N   1      27.343  23.816  -3.745  0.00  0.00     0.040 A 
ENDROOT
BRANCH   9  22
HETATM   22  C   UNK N   1      27.275  26.016  -8.338  0.00  0.00     0.061 C 
HETATM   23  C   UNK N   1      26.821  26.206  -9.774  0.00  0.00     0.046 C 
BRANCH  22  24
HETATM   24  O   UNK N   1      28.492  25.337  -8.396  0.00  0.00    -0.390 OA
HETATM   25  H   UNK N   1      29.419  25.062  -8.475  0.00  0.00     0.210 HD
ENDBRANCH  22  24
BRANCH  22  26
HETATM   26  C   UNK N   1      26.294  25.089  -7.607  0.00  0.00     0.037 C 
BRANCH  26  27
HETATM   27  C   UNK N   1      26.570  23.602  -7.810  0.00  0.00    -0.002 C 
HETATM   28  C   UNK N   1      25.714  22.790  -6.860  0.00  0.00     0.005 C 
ENDBRANCH  26  27
ENDBRANCH  22  26
ENDBRANCH   9  22
BRANCH   6  29
HETATM   29  O   UNK N   1      29.971  27.756  -8.229  0.00  0.00    -0.378 OA
HETATM   30  C   UNK N   1      29.774  28.678  -9.276  0.00  0.00     0.203 C 
ENDBRANCH   6  29
BRANCH  20  31
HETATM   31  O   UNK N   1      29.093  23.096  -5.218  0.00  0.00    -0.358 OA
HETATM   32  H   UNK N   1      28.761  22.220  -5.215  0.00  0.00     0.217 HD
ENDBRANCH  20  31
TORSDOF 6
ENDMDL
MODEL 5
REMARK VINA RESULT:      -6.7     11.573     13.825
REMARK  6 active torsions:
REMARK  status: ('A' for Active; 'I' for Inactive)
REMARK    1  A    between atoms: O_2  and  C_9 
REMARK    2  A    between atoms: O_3  and  C_19 
REMARK    3  A    between atoms: O_4  and  C_26 
REMARK    4  A    between atoms: C_12  and  C_19 
REMARK    5  A    between atoms: C_19  and  C_22 
REMARK    6  A    between atoms: C_22  and  C_29 
ROOT
HETATM    1  O   UNK N   1      26.200  25.386  -4.102  0.00  0.00    -0.338 OA
HETATM    2  N   UNK N   1      31.314  23.996  -3.968  0.00  0.00     0.090 N 
HETATM    3  C   UNK N   1      28.428  24.623  -4.193  0.00  0.00     0.035 A 
HETATM    4  C   UNK N   1      29.330  24.546  -5.438  0.00  0.00     0.024 C 
HETATM    5  C   UNK N   1      26.936  24.250  -4.472  0.00  0.00     0.182 A 
HETATM    6  C   UNK N   1      26.824  23.821  -5.979  0.00  0.00     0.112 C 
HETATM    7  C   UNK N   1      30.747  24.992  -4.915  0.00  0.00     0.240 C 
HETATM    8  C   UNK N   1      28.737  25.450  -6.572  0.00  0.00     0.028 C 
HETATM    9  C   UNK N   1      27.279  24.992  -6.935  0.00  0.00     0.062 C 
HETATM   10  C   UNK N   1      28.982  23.869  -2.970  0.00  0.00     0.048 C 
HETATM   11  C   UNK N   1      28.308  26.015  -3.835  0.00  0.00    -0.003 A 
HETATM   12  C   UNK N   1      29.187  23.122  -5.940  0.00  0.00    -0.015 C 
HETATM   13  C   UNK N   1      30.738  26.395  -4.179  0.00  0.00     0.076 C 
HETATM   14  C   UNK N   1      27.913  22.742  -6.183  0.00  0.00     0.011 C 
HETATM   15  C   UNK N   1      30.335  23.190  -3.214  0.00  0.00     0.273 C 
HETATM   16  C   UNK N   1      29.373  26.880  -3.719  0.00  0.00    -0.046 A 
HETATM   17  C   UNK N   1      27.024  26.390  -3.746  0.00  0.00     0.110 A 
HETATM   18  C   UNK N   1      32.140  23.036  -4.689  0.00  0.00     0.310 C 
HETATM   19  C   UNK N   1      29.098  28.215  -3.376  0.00  0.00     0.011 A 
HETATM   20  C   UNK N   1      26.696  27.703  -3.402  0.00  0.00     0.099 A 
HETATM   21  C   UNK N   1      27.752  28.621  -3.184  0.00  0.00     0.040 A 
ENDROOT
BRANCH   9  22
HETATM   22  C   UNK N   1      26.374  26.165  -7.428  0.00  0.00     0.061 C 
HETATM   23  C   UNK N   1      26.161  26.165  -8.931  0.00  0.00     0.046 C 
BRANCH  22  24
HETATM   24  O   UNK N   1      25.120  25.964  -6.852  0.00  0.00    -0.390 OA
HETATM   25  H   UNK N   1      24.222  25.686  -6.616  0.00  0.00     0.210 HD
ENDBRANCH  22  24
BRANCH  22  26
HETATM   26  C   UNK N   1      26.844  27.555  -6.975  0.00  0.00     0.037 C 
BRANCH  26  27
HETATM   27  C   UNK N   1      27.977  28.136  -7.815  0.00  0.00    -0.002 C 
HETATM   28  C   UNK N   1      28.649  29.262  -7.057  0.00  0.00     0.005 C 
ENDBRANCH  26  27
ENDBRANCH  22  26
ENDBRANCH   9  22
BRANCH   6  29
HETATM   29  O   UNK N   1      25.532  23.304  -6.240  0.00  0.00    -0.378 OA
HETATM   30  C   UNK N   1      25.587  22.329  -7.256  0.00  0.00     0.203 C 
ENDBRANCH   6  29
BRANCH  20  31
HETATM   31  O   UNK N   1      25.415  28.099  -3.316  0.00  0.00    -0.358 OA
HETATM   32  H   UNK N   1      25.124  28.629  -2.600  0.00  0.00     0.217 HD
ENDBRANCH  20  31
TORSDOF 6
ENDMDL
MODEL 6
REMARK VINA RESULT:      -6.6      7.435      9.838
REMARK  6 active torsions:
REMARK  status: ('A' for Active; 'I' for Inactive)
REMARK    1  A    between atoms: O_2  and  C_9 
REMARK    2  A    between atoms: O_3  and  C_19 
REMARK    3  A    between atoms: O_4  and  C_26 
REMARK    4  A    between atoms: C_12  and  C_19 
REMARK    5  A    between atoms: C_19  and  C_22 
REMARK    6  A    between atoms: C_22  and  C_29 
ROOT
HETATM    1  O   UNK N   1      19.089  14.536   5.841  0.00  0.00    -0.338 OA
HETATM    2  N   UNK N   1      22.061  18.120   3.306  0.00  0.00     0.090 N 
HETATM    3  C   UNK N   1      20.417  16.240   4.898  0.00  0.00     0.035 A 
HETATM    4  C   UNK N   1      21.779  16.743   5.409  0.00  0.00     0.024 C 
HETATM    5  C   UNK N   1      19.406  15.889   6.037  0.00  0.00     0.182 A 
HETATM    6  C   UNK N   1      20.089  16.242   7.407  0.00  0.00     0.112 C 
HETATM    7  C   UNK N   1      22.615  16.990   4.098  0.00  0.00     0.240 C 
HETATM    8  C   UNK N   1      22.394  15.685   6.387  0.00  0.00     0.028 C 
HETATM    9  C   UNK N   1      21.427  15.426   7.598  0.00  0.00     0.062 C 
HETATM   10  C   UNK N   1      19.776  17.145   3.829  0.00  0.00     0.048 C 
HETATM   11  C   UNK N   1      20.633  14.943   4.304  0.00  0.00    -0.003 A 
HETATM   12  C   UNK N   1      21.456  17.949   6.270  0.00  0.00    -0.015 C 
HETATM   13  C   UNK N   1      22.683  15.729   3.141  0.00  0.00     0.076 C 
HETATM   14  C   UNK N   1      20.573  17.704   7.263  0.00  0.00     0.011 C 
HETATM   15  C   UNK N   1      20.617  18.374   3.464  0.00  0.00     0.273 C 
HETATM   16  C   UNK N   1      21.629  14.663   3.394  0.00  0.00    -0.046 A 
HETATM   17  C   UNK N   1      19.821  14.018   4.836  0.00  0.00     0.110 A 
HETATM   18  C   UNK N   1      22.722  19.364   3.684  0.00  0.00     0.310 C 
HETATM   19  C   UNK N   1      21.724  13.346   2.913  0.00  0.00     0.011 A 
HETATM   20  C   UNK N   1      19.872  12.696   4.389  0.00  0.00     0.099 A 
HETATM   21  C   UNK N   1      20.818  12.364   3.389  0.00  0.00     0.040 A 
ENDROOT
BRANCH   9  22
HETATM   22  C   UNK N   1      21.534  13.977   8.167  0.00  0.00     0.061 C 
HETATM   23  C   UNK N   1      21.973  13.935   9.620  0.00  0.00     0.046 C 
BRANCH  22  24
HETATM   24  O   UNK N   1      20.246  13.443   8.130  0.00  0.00    -0.390 OA
HETATM   25  H   UNK N   1      19.450  12.890   8.161  0.00  0.00     0.210 HD
ENDBRANCH  22  24
BRANCH  22  26
HETATM   26  C   UNK N   1      22.418  13.038   7.335  0.00  0.00     0.037 C 
BRANCH  26  27
HETATM   27  C   UNK N   1      21.864  11.623   7.189  0.00  0.00    -0.002 C 
HETATM   28  C   UNK N   1      22.694  10.852   6.184  0.00  0.00     0.005 C 
ENDBRANCH  26  27
ENDBRANCH  22  26
ENDBRANCH   9  22
BRANCH   6  29
HETATM   29  O   UNK N   1      19.153  16.111   8.461  0.00  0.00    -0.378 OA
HETATM   30  C   UNK N   1      18.829  17.375   8.992  0.00  0.00     0.203 C 
ENDBRANCH   6  29
BRANCH  20  31
HETATM   31  O   UNK N   1      19.072  11.754   4.916  0.00  0.00    -0.358 OA
HETATM   32  H   UNK N   1      18.937  10.939   4.475  0.00  0.00     0.217 HD
ENDBRANCH  20  31
TORSDOF 6
ENDMDL
MODEL 7
REMARK VINA RESULT:      -6.5     11.351     13.762
REMARK  6 active torsions:
REMARK  status: ('A' for Active; 'I' for Inactive)
REMARK    1  A    between atoms: O_2  and  C_9 
REMARK    2  A    between atoms: O_3  and  C_19 
REMARK    3  A    between atoms: O_4  and  C_26 
REMARK    4  A    between atoms: C_12  and  C_19 
REMARK    5  A    between atoms: C_19  and  C_22 
REMARK    6  A    between atoms: C_22  and  C_29 
ROOT
HETATM    1  O   UNK N   1      28.624  24.723  -3.035  0.00  0.00    -0.338 OA
HETATM    2  N   UNK N   1      26.940  23.188  -7.821  0.00  0.00     0.090 N 
HETATM    3  C   UNK N   1      27.850  24.249  -5.210  0.00  0.00     0.035 A 
HETATM    4  C   UNK N   1      28.425  24.781  -6.534  0.00  0.00     0.024 C 
HETATM    5  C   UNK N   1      27.851  25.300  -4.053  0.00  0.00     0.182 A 
HETATM    6  C   UNK N   1      28.389  26.655  -4.641  0.00  0.00     0.112 C 
HETATM    7  C   UNK N   1      28.349  23.548  -7.511  0.00  0.00     0.240 C 
HETATM    8  C   UNK N   1      29.870  25.336  -6.293  0.00  0.00     0.028 C 
HETATM    9  C   UNK N   1      29.848  26.481  -5.217  0.00  0.00     0.062 C 
HETATM   10  C   UNK N   1      26.478  23.563  -5.353  0.00  0.00     0.048 C 
HETATM   11  C   UNK N   1      28.780  23.270  -4.701  0.00  0.00    -0.003 A 
HETATM   12  C   UNK N   1      27.578  25.993  -6.872  0.00  0.00    -0.015 C 
HETATM   13  C   UNK N   1      29.058  22.249  -6.948  0.00  0.00     0.076 C 
HETATM   14  C   UNK N   1      27.532  26.929  -5.898  0.00  0.00     0.011 C 
HETATM   15  C   UNK N   1      25.943  23.528  -6.789  0.00  0.00     0.273 C 
HETATM   16  C   UNK N   1      29.312  22.243  -5.449  0.00  0.00    -0.046 A 
HETATM   17  C   UNK N   1      29.152  23.554  -3.444  0.00  0.00     0.110 A 
HETATM   18  C   UNK N   1      26.504  23.876  -9.030  0.00  0.00     0.310 C 
HETATM   19  C   UNK N   1      30.219  21.375  -4.817  0.00  0.00     0.011 A 
HETATM   20  C   UNK N   1      30.047  22.720  -2.770  0.00  0.00     0.099 A 
HETATM   21  C   UNK N   1      30.563  21.596  -3.459  0.00  0.00     0.040 A 
ENDROOT
BRANCH   9  22
HETATM   22  C   UNK N   1      31.168  26.567  -4.388  0.00  0.00     0.061 C 
HETATM   23  C   UNK N   1      32.022  27.770  -4.746  0.00  0.00     0.046 C 
BRANCH  22  24
HETATM   24  O   UNK N   1      30.787  26.736  -3.057  0.00  0.00    -0.390 OA
HETATM   25  H   UNK N   1      30.477  27.055  -2.196  0.00  0.00     0.210 HD
ENDBRANCH  22  24
BRANCH  22  26
HETATM   26  C   UNK N   1      32.026  25.295  -4.437  0.00  0.00     0.037 C 
BRANCH  26  27
HETATM   27  C   UNK N   1      33.345  25.459  -5.187  0.00  0.00    -0.002 C 
HETATM   28  C   UNK N   1      33.789  24.119  -5.737  0.00  0.00     0.005 C 
ENDBRANCH  26  27
ENDBRANCH  22  26
ENDBRANCH   9  22
BRANCH   6  29
HETATM   29  O   UNK N   1      28.243  27.687  -3.683  0.00  0.00    -0.378 OA
HETATM   30  C   UNK N   1      26.891  27.829  -3.313  0.00  0.00     0.203 C 
ENDBRANCH   6  29
BRANCH  20  31
HETATM   31  O   UNK N   1      30.437  22.993  -1.514  0.00  0.00    -0.358 OA
HETATM   32  H   UNK N   1      29.808  23.192  -0.849  0.00  0.00     0.217 HD
ENDBRANCH  20  31
TORSDOF 6
ENDMDL
MODEL 8
REMARK VINA RESULT:      -6.4     13.628     16.056
REMARK  6 active torsions:
REMARK  status: ('A' for Active; 'I' for Inactive)
REMARK    1  A    between atoms: O_2  and  C_9 
REMARK    2  A    between atoms: O_3  and  C_19 
REMARK    3  A    between atoms: O_4  and  C_26 
REMARK    4  A    between atoms: C_12  and  C_19 
REMARK    5  A    between atoms: C_19  and  C_22 
REMARK    6  A    between atoms: C_22  and  C_29 
ROOT
HETATM    1  O   UNK N   1      41.881  23.953   1.994  0.00  0.00    -0.338 OA
HETATM    2  N   UNK N   1      41.278  19.343  -0.552  0.00  0.00     0.090 N 
HETATM    3  C   UNK N   1      41.573  22.018   0.685  0.00  0.00     0.035 A 
HETATM    4  C   UNK N   1      42.313  21.650  -0.613  0.00  0.00     0.024 C 
HETATM    5  C   UNK N   1      41.244  23.540   0.815  0.00  0.00     0.182 A 
HETATM    6  C   UNK N   1      41.721  24.245  -0.506  0.00  0.00     0.112 C 
HETATM    7  C   UNK N   1      42.556  20.099  -0.492  0.00  0.00     0.240 C 
HETATM    8  C   UNK N   1      43.618  22.509  -0.733  0.00  0.00     0.028 C 
HETATM    9  C   UNK N   1      43.270  24.041  -0.727  0.00  0.00     0.062 C 
HETATM   10  C   UNK N   1      40.337  21.143   0.971  0.00  0.00     0.048 C 
HETATM   11  C   UNK N   1      42.501  21.836   1.775  0.00  0.00    -0.003 A 
HETATM   12  C   UNK N   1      41.409  22.130  -1.731  0.00  0.00    -0.015 C 
HETATM   13  C   UNK N   1      43.296  19.675   0.844  0.00  0.00     0.076 C 
HETATM   14  C   UNK N   1      41.080  23.439  -1.659  0.00  0.00     0.011 C 
HETATM   15  C   UNK N   1      40.078  20.062  -0.085  0.00  0.00     0.273 C 
HETATM   16  C   UNK N   1      43.273  20.711   1.957  0.00  0.00    -0.046 A 
HETATM   17  C   UNK N   1      42.604  22.946   2.521  0.00  0.00     0.110 A 
HETATM   18  C   UNK N   1      40.992  18.955  -1.928  0.00  0.00     0.310 C 
HETATM   19  C   UNK N   1      44.144  20.686   3.059  0.00  0.00     0.011 A 
HETATM   20  C   UNK N   1      43.451  22.972   3.631  0.00  0.00     0.099 A 
HETATM   21  C   UNK N   1      44.209  21.811   3.921  0.00  0.00     0.040 A 
ENDROOT
BRANCH   9  22
HETATM   22  C   UNK N   1      44.400  24.922  -0.106  0.00  0.00     0.061 C 
HETATM   23  C   UNK N   1      45.081  25.824  -1.121  0.00  0.00     0.046 C 
BRANCH  22  24
HETATM   24  O   UNK N   1      43.780  25.765   0.816  0.00  0.00    -0.390 OA
HETATM   25  H   UNK N   1      43.349  26.174   1.582  0.00  0.00     0.210 HD
ENDBRANCH  22  24
BRANCH  22  26
HETATM   26  C   UNK N   1      45.460  24.129   0.670  0.00  0.00     0.037 C 
BRANCH  26  27
HETATM   27  C   UNK N   1      45.926  24.804   1.957  0.00  0.00    -0.002 C 
HETATM   28  C   UNK N   1      47.195  25.588   1.692  0.00  0.00     0.005 C 
ENDBRANCH  26  27
ENDBRANCH  22  26
ENDBRANCH   9  22
BRANCH   6  29
HETATM   29  O   UNK N   1      41.287  25.593  -0.517  0.00  0.00    -0.378 OA
HETATM   30  C   UNK N   1      39.891  25.663  -0.346  0.00  0.00     0.203 C 
ENDBRANCH   6  29
BRANCH  20  31
HETATM   31  O   UNK N   1      43.574  24.077   4.384  0.00  0.00    -0.358 OA
HETATM   32  H   UNK N   1      44.382  24.551   4.411  0.00  0.00     0.217 HD
ENDBRANCH  20  31
TORSDOF 6
ENDMDL
MODEL 9
REMARK VINA RESULT:      -6.3      4.046      6.909
REMARK  6 active torsions:
REMARK  status: ('A' for Active; 'I' for Inactive)
REMARK    1  A    between atoms: O_2  and  C_9 
REMARK    2  A    between atoms: O_3  and  C_19 
REMARK    3  A    between atoms: O_4  and  C_26 
REMARK    4  A    between atoms: C_12  and  C_19 
REMARK    5  A    between atoms: C_19  and  C_22 
REMARK    6  A    between atoms: C_22  and  C_29 
ROOT
HETATM    1  O   UNK N   1      31.963  13.607   6.801  0.00  0.00    -0.338 OA
HETATM    2  N   UNK N   1      34.818  16.210  10.430  0.00  0.00     0.090 N 
HETATM    3  C   UNK N   1      33.391  14.625   8.375  0.00  0.00     0.035 A 
HETATM    4  C   UNK N   1      34.808  15.170   8.124  0.00  0.00     0.024 C 
HETATM    5  C   UNK N   1      33.076  13.305   7.599  0.00  0.00     0.182 A 
HETATM    6  C   UNK N   1      34.378  12.881   6.830  0.00  0.00     0.112 C 
HETATM    7  C   UNK N   1      34.867  16.496   8.972  0.00  0.00     0.240 C 
HETATM    8  C   UNK N   1      35.027  15.368   6.585  0.00  0.00     0.028 C 
HETATM    9  C   UNK N   1      34.830  14.008   5.822  0.00  0.00     0.062 C 
HETATM   10  C   UNK N   1      33.019  14.510   9.865  0.00  0.00     0.048 C 
HETATM   11  C   UNK N   1      32.462  15.542   7.760  0.00  0.00    -0.003 A 
HETATM   12  C   UNK N   1      35.740  14.043   8.523  0.00  0.00    -0.015 C 
HETATM   13  C   UNK N   1      33.692  17.508   8.648  0.00  0.00     0.076 C 
HETATM   14  C   UNK N   1      35.501  12.872   7.892  0.00  0.00     0.011 C 
HETATM   15  C   UNK N   1      34.125  14.970  10.823  0.00  0.00     0.273 C 
HETATM   16  C   UNK N   1      32.495  16.908   7.927  0.00  0.00    -0.046 A 
HETATM   17  C   UNK N   1      31.638  14.909   6.911  0.00  0.00     0.110 A 
HETATM   18  C   UNK N   1      36.172  16.087  10.959  0.00  0.00     0.310 C 
HETATM   19  C   UNK N   1      31.531  17.674   7.250  0.00  0.00     0.011 A 
HETATM   20  C   UNK N   1      30.659  15.624   6.218  0.00  0.00     0.099 A 
HETATM   21  C   UNK N   1      30.586  17.024   6.416  0.00  0.00     0.040 A 
ENDROOT
BRANCH   9  22
HETATM   22  C   UNK N   1      34.294  14.196   4.368  0.00  0.00     0.061 C 
HETATM   23  C   UNK N   1      35.278  13.744   3.303  0.00  0.00     0.046 C 
BRANCH  22  24
HETATM   24  O   UNK N   1      33.178  13.367   4.250  0.00  0.00    -0.390 OA
HETATM   25  H   UNK N   1      32.375  12.895   3.982  0.00  0.00     0.210 HD
ENDBRANCH  22  24
BRANCH  22  26
HETATM   26  C   UNK N   1      33.814  15.620   4.053  0.00  0.00     0.037 C 
BRANCH  26  27
HETATM   27  C   UNK N   1      32.665  15.685   3.051  0.00  0.00    -0.002 C 
HETATM   28  C   UNK N   1      32.102  17.090   3.012  0.00  0.00     0.005 C 
ENDBRANCH  26  27
ENDBRANCH  22  26
ENDBRANCH   9  22
BRANCH   6  29
HETATM   29  O   UNK N   1      34.203  11.600   6.254  0.00  0.00    -0.378 OA
HETATM   30  C   UNK N   1      35.452  11.001   5.998  0.00  0.00     0.203 C 
ENDBRANCH   6  29
BRANCH  20  31
HETATM   31  O   UNK N   1      29.830  15.009   5.358  0.00  0.00    -0.358 OA
HETATM   32  H   UNK N   1      29.879  14.083   5.225  0.00  0.00     0.217 HD
ENDBRANCH  20  31
TORSDOF 6
ENDMDL
