MODEL 1
REMARK VINA RESULT:      -6.3      0.000      0.000
REMARK  5 active torsions:
REMARK  status: ('A' for Active; 'I' for Inactive)
REMARK    1  A    between atoms: C_3  and  C_2 
REMARK    2  A    between atoms: C_9  and  O_10 
REMARK    3  A    between atoms: C_9  and  C_15 
REMARK    4  A    between atoms: O_10  and  C_11 
REMARK    5  A    between atoms: C_11  and  C_13 
ROOT
HETATM    1  C   UNK N   1      36.089  14.146  14.738  0.00  0.00     0.053 C 
HETATM    2  C   UNK N   1      36.161  14.568  13.252  0.00  0.00     0.279 C 
HETATM    3  N   UNK N   1      36.240  13.427  12.332  0.00  0.00     0.084 N 
HETATM    4  C   UNK N   1      36.669  13.937  11.042  0.00  0.00     0.309 C 
HETATM    5  C   UNK N   1      37.247  12.465  12.782  0.00  0.00     0.275 C 
HETATM    6  C   UNK N   1      36.879  11.858  14.148  0.00  0.00     0.074 C 
HETATM    7  C   UNK N   1      35.748  12.633  14.870  0.00  0.00     0.104 C 
ENDROOT
BRANCH   7   8
HETATM    8  O   UNK N   1      34.508  12.423  14.261  0.00  0.00    -0.305 OA
BRANCH   8   9
HETATM    9  C   UNK N   1      33.904  11.217  14.060  0.00  0.00     0.259 C 
HETATM   10  O   UNK N   1      33.124  10.758  14.884  0.00  0.00    -0.265 OA
BRANCH   9  11
HETATM   11  C   UNK N   1      34.187  10.447  12.817  0.00  0.00     0.106 C 
HETATM   12  C   UNK N   1      34.908   9.159  13.177  0.00  0.00     0.015 C 
ENDBRANCH   9  11
ENDBRANCH   8   9
ENDBRANCH   7   8
BRANCH   7  13
HETATM   13  C   UNK N   1      35.623  12.177  16.325  0.00  0.00    -0.023 A 
HETATM   14  C   UNK N   1      35.069  13.041  17.286  0.00  0.00     0.010 A 
HETATM   15  C   UNK N   1      34.995  12.662  18.629  0.00  0.00     0.001 A 
HETATM   16  C   UNK N   1      35.476  11.414  19.031  0.00  0.00     0.000 A 
HETATM   17  C   UNK N   1      36.030  10.545  18.091  0.00  0.00     0.001 A 
HETATM   18  C   UNK N   1      36.108  10.925  16.749  0.00  0.00     0.010 A 
ENDBRANCH   7  13
BRANCH   1  19
HETATM   19  C   UNK N   1      37.427  14.493  15.405  0.00  0.00     0.005 C 
HETATM   20  C   UNK N   1      37.336  15.798  16.172  0.00  0.00     0.005 C 
ENDBRANCH   1  19
TORSDOF 5
ENDMDL
MODEL 2
REMARK VINA RESULT:      -5.7     22.097     25.335
REMARK  5 active torsions:
REMARK  status: ('A' for Active; 'I' for Inactive)
REMARK    1  A    between atoms: C_3  and  C_2 
REMARK    2  A    between atoms: C_9  and  O_10 
REMARK    3  A    between atoms: C_9  and  C_15 
REMARK    4  A    between atoms: O_10  and  C_11 
REMARK    5  A    between atoms: C_11  and  C_13 
ROOT
HETATM    1  C   UNK N   1      28.297  26.747  -5.445  0.00  0.00     0.053 C 
HETATM    2  C   UNK N   1      28.482  27.910  -4.444  0.00  0.00     0.279 C 
HETATM    3  N   UNK N   1      27.607  27.804  -3.269  0.00  0.00     0.084 N 
HETATM    4  C   UNK N   1      27.600  29.099  -2.613  0.00  0.00     0.309 C 
HETATM    5  C   UNK N   1      26.232  27.506  -3.671  0.00  0.00     0.275 C 
HETATM    6  C   UNK N   1      26.132  26.141  -4.375  0.00  0.00     0.074 C 
HETATM    7  C   UNK N   1      27.511  25.572  -4.794  0.00  0.00     0.104 C 
ENDROOT
BRANCH   7   8
HETATM    8  O   UNK N   1      28.244  25.130  -3.690  0.00  0.00    -0.305 OA
BRANCH   8   9
HETATM    9  C   UNK N   1      27.978  24.026  -2.936  0.00  0.00     0.259 C 
HETATM   10  O   UNK N   1      26.847  23.803  -2.522  0.00  0.00    -0.265 OA
BRANCH   9  11
HETATM   11  C   UNK N   1      29.073  23.069  -2.614  0.00  0.00     0.106 C 
HETATM   12  C   UNK N   1      30.403  23.666  -3.042  0.00  0.00     0.015 C 
ENDBRANCH   9  11
ENDBRANCH   8   9
ENDBRANCH   7   8
BRANCH   7  13
HETATM   13  C   UNK N   1      27.340  24.377  -5.735  0.00  0.00    -0.023 A 
HETATM   14  C   UNK N   1      26.055  23.879  -6.011  0.00  0.00     0.010 A 
HETATM   15  C   UNK N   1      25.885  22.757  -6.825  0.00  0.00     0.001 A 
HETATM   16  C   UNK N   1      26.997  22.116  -7.375  0.00  0.00     0.000 A 
HETATM   17  C   UNK N   1      28.279  22.597  -7.111  0.00  0.00     0.001 A 
HETATM   18  C   UNK N   1      28.451  23.716  -6.293  0.00  0.00     0.010 A 
ENDBRANCH   7  13
BRANCH   1  19
HETATM   19  C   UNK N   1      27.589  27.290  -6.693  0.00  0.00     0.005 C 
HETATM   20  C   UNK N   1      27.821  28.781  -6.851  0.00  0.00     0.005 C 
ENDBRANCH   1  19
TORSDOF 5
ENDMDL
MODEL 3
REMARK VINA RESULT:      -5.7     11.906     14.671
REMARK  5 active torsions:
REMARK  status: ('A' for Active; 'I' for Inactive)
REMARK    1  A    between atoms: C_3  and  C_2 
REMARK    2  A    between atoms: C_9  and  O_10 
REMARK    3  A    between atoms: C_9  and  C_15 
REMARK    4  A    between atoms: O_10  and  C_11 
REMARK    5  A    between atoms: C_11  and  C_13 
ROOT
HETATM    1  C   UNK N   1      27.706  16.321   4.688  0.00  0.00     0.053 C 
HETATM    2  C   UNK N   1      28.770  15.483   5.434  0.00  0.00     0.279 C 
HETATM    3  N   UNK N   1      29.807  16.305   6.071  0.00  0.00     0.084 N 
HETATM    4  C   UNK N   1      30.914  15.427   6.406  0.00  0.00     0.309 C 
HETATM    5  C   UNK N   1      30.312  17.317   5.142  0.00  0.00     0.275 C 
HETATM    6  C   UNK N   1      29.208  18.307   4.730  0.00  0.00     0.074 C 
HETATM    7  C   UNK N   1      27.786  17.819   5.103  0.00  0.00     0.104 C 
ENDROOT
BRANCH   7   8
HETATM    8  O   UNK N   1      27.559  17.890   6.480  0.00  0.00    -0.305 OA
BRANCH   8   9
HETATM    9  C   UNK N   1      27.906  18.923   7.300  0.00  0.00     0.259 C 
HETATM   10  O   UNK N   1      27.487  20.056   7.099  0.00  0.00    -0.265 OA
BRANCH   9  11
HETATM   11  C   UNK N   1      28.800  18.673   8.464  0.00  0.00     0.106 C 
HETATM   12  C   UNK N   1      28.254  17.511   9.277  0.00  0.00     0.015 C 
ENDBRANCH   9  11
ENDBRANCH   8   9
ENDBRANCH   7   8
BRANCH   7  13
HETATM   13  C   UNK N   1      26.721  18.682   4.421  0.00  0.00    -0.023 A 
HETATM   14  C   UNK N   1      27.106  19.792   3.649  0.00  0.00     0.010 A 
HETATM   15  C   UNK N   1      26.146  20.621   3.063  0.00  0.00     0.001 A 
HETATM   16  C   UNK N   1      24.788  20.353   3.242  0.00  0.00     0.000 A 
HETATM   17  C   UNK N   1      24.388  19.256   4.005  0.00  0.00     0.001 A 
HETATM   18  C   UNK N   1      25.347  18.429   4.596  0.00  0.00     0.010 A 
ENDBRANCH   7  13
BRANCH   1  19
HETATM   19  C   UNK N   1      27.912  16.132   3.179  0.00  0.00     0.005 C 
HETATM   20  C   UNK N   1      26.661  15.583   2.518  0.00  0.00     0.005 C 
ENDBRANCH   1  19
TORSDOF 5
ENDMDL
MODEL 4
REMARK VINA RESULT:      -5.6      7.137     10.810
REMARK  5 active torsions:
REMARK  status: ('A' for Active; 'I' for Inactive)
REMARK    1  A    between atoms: C_3  and  C_2 
REMARK    2  A    between atoms: C_9  and  O_10 
REMARK    3  A    between atoms: C_9  and  C_15 
REMARK    4  A    between atoms: O_10  and  C_11 
REMARK    5  A    between atoms: C_11  and  C_13 
ROOT
HETATM    1  C   UNK N   1      34.032  15.310   7.351  0.00  0.00     0.053 C 
HETATM    2  C   UNK N   1      34.585  15.363   8.794  0.00  0.00     0.279 C 
HETATM    3  N   UNK N   1      34.345  16.651   9.457  0.00  0.00     0.084 N 
HETATM    4  C   UNK N   1      35.208  16.708  10.623  0.00  0.00     0.309 C 
HETATM    5  C   UNK N   1      34.714  17.763   8.580  0.00  0.00     0.275 C 
HETATM    6  C   UNK N   1      33.845  17.794   7.310  0.00  0.00     0.074 C 
HETATM    7  C   UNK N   1      33.045  16.485   7.091  0.00  0.00     0.104 C 
ENDROOT
BRANCH   7   8
HETATM    8  O   UNK N   1      31.993  16.365   8.002  0.00  0.00    -0.305 OA
BRANCH   8   9
HETATM    9  C   UNK N   1      31.014  17.287   8.228  0.00  0.00     0.259 C 
HETATM   10  O   UNK N   1      31.265  18.352   8.776  0.00  0.00    -0.265 OA
BRANCH   9  11
HETATM   11  C   UNK N   1      29.617  17.002   7.795  0.00  0.00     0.106 C 
HETATM   12  C   UNK N   1      29.272  17.880   6.603  0.00  0.00     0.015 C 
ENDBRANCH   9  11
ENDBRANCH   8   9
ENDBRANCH   7   8
BRANCH   7  13
HETATM   13  C   UNK N   1      32.437  16.450   5.687  0.00  0.00    -0.023 A 
HETATM   14  C   UNK N   1      31.684  15.337   5.276  0.00  0.00     0.010 A 
HETATM   15  C   UNK N   1      31.166  15.265   3.980  0.00  0.00     0.001 A 
HETATM   16  C   UNK N   1      31.395  16.304   3.076  0.00  0.00     0.000 A 
HETATM   17  C   UNK N   1      32.141  17.416   3.467  0.00  0.00     0.001 A 
HETATM   18  C   UNK N   1      32.663  17.486   4.761  0.00  0.00     0.010 A 
ENDBRANCH   7  13
BRANCH   1  19
HETATM   19  C   UNK N   1      35.218  15.331   6.377  0.00  0.00     0.005 C 
HETATM   20  C   UNK N   1      35.220  14.102   5.488  0.00  0.00     0.005 C 
ENDBRANCH   1  19
TORSDOF 5
ENDMDL
MODEL 5
REMARK VINA RESULT:      -5.6      8.247     10.957
REMARK  5 active torsions:
REMARK  status: ('A' for Active; 'I' for Inactive)
REMARK    1  A    between atoms: C_3  and  C_2 
REMARK    2  A    between atoms: C_9  and  O_10 
REMARK    3  A    between atoms: C_9  and  C_15 
REMARK    4  A    between atoms: O_10  and  C_11 
REMARK    5  A    between atoms: C_11  and  C_13 
ROOT
HETATM    1  C   UNK N   1      32.260  16.966   4.747  0.00  0.00     0.053 C 
HETATM    2  C   UNK N   1      31.179  16.830   3.650  0.00  0.00     0.279 C 
HETATM    3  N   UNK N   1      29.978  16.121   4.110  0.00  0.00     0.084 N 
HETATM    4  C   UNK N   1      29.222  15.736   2.933  0.00  0.00     0.309 C 
HETATM    5  C   UNK N   1      30.340  14.894   4.822  0.00  0.00     0.275 C 
HETATM    6  C   UNK N   1      31.145  15.197   6.098  0.00  0.00     0.074 C 
HETATM    7  C   UNK N   1      31.670  16.653   6.153  0.00  0.00     0.104 C 
ENDROOT
BRANCH   7   8
HETATM    8  O   UNK N   1      30.639  17.565   6.393  0.00  0.00    -0.305 OA
BRANCH   8   9
HETATM    9  C   UNK N   1      29.767  17.538   7.441  0.00  0.00     0.259 C 
HETATM   10  O   UNK N   1      28.723  16.902   7.376  0.00  0.00    -0.265 OA
BRANCH   9  11
HETATM   11  C   UNK N   1      30.089  18.284   8.689  0.00  0.00     0.106 C 
HETATM   12  C   UNK N   1      29.198  17.787   9.815  0.00  0.00     0.015 C 
ENDBRANCH   9  11
ENDBRANCH   8   9
ENDBRANCH   7   8
BRANCH   7  13
HETATM   13  C   UNK N   1      32.694  16.818   7.278  0.00  0.00    -0.023 A 
HETATM   14  C   UNK N   1      33.498  17.970   7.331  0.00  0.00     0.010 A 
HETATM   15  C   UNK N   1      34.475  18.114   8.320  0.00  0.00     0.001 A 
HETATM   16  C   UNK N   1      34.662  17.107   9.269  0.00  0.00     0.000 A 
HETATM   17  C   UNK N   1      33.874  15.957   9.230  0.00  0.00     0.001 A 
HETATM   18  C   UNK N   1      32.900  15.811   8.239  0.00  0.00     0.010 A 
ENDBRANCH   7  13
BRANCH   1  19
HETATM   19  C   UNK N   1      33.428  16.035   4.395  0.00  0.00     0.005 C 
HETATM   20  C   UNK N   1      33.443  15.708   2.914  0.00  0.00     0.005 C 
ENDBRANCH   1  19
TORSDOF 5
ENDMDL
MODEL 6
REMARK VINA RESULT:      -5.5      7.988     11.109
REMARK  5 active torsions:
REMARK  status: ('A' for Active; 'I' for Inactive)
REMARK    1  A    between atoms: C_3  and  C_2 
REMARK    2  A    between atoms: C_9  and  O_10 
REMARK    3  A    between atoms: C_9  and  C_15 
REMARK    4  A    between atoms: O_10  and  C_11 
REMARK    5  A    between atoms: C_11  and  C_13 
ROOT
HETATM    1  C   UNK N   1      31.759  17.661   7.776  0.00  0.00     0.053 C 
HETATM    2  C   UNK N   1      33.008  17.867   8.664  0.00  0.00     0.279 C 
HETATM    3  N   UNK N   1      33.969  16.760   8.571  0.00  0.00     0.084 N 
HETATM    4  C   UNK N   1      34.883  16.883   9.692  0.00  0.00     0.309 C 
HETATM    5  C   UNK N   1      33.289  15.470   8.696  0.00  0.00     0.275 C 
HETATM    6  C   UNK N   1      32.295  15.241   7.543  0.00  0.00     0.074 C 
HETATM    7  C   UNK N   1      31.996  16.528   6.735  0.00  0.00     0.104 C 
ENDROOT
BRANCH   7   8
HETATM    8  O   UNK N   1      33.081  16.904   5.940  0.00  0.00    -0.305 OA
BRANCH   8   9
HETATM    9  C   UNK N   1      33.906  16.061   5.254  0.00  0.00     0.259 C 
HETATM   10  O   UNK N   1      35.050  15.851   5.634  0.00  0.00    -0.265 OA
BRANCH   9  11
HETATM   11  C   UNK N   1      33.408  15.378   4.028  0.00  0.00     0.106 C 
HETATM   12  C   UNK N   1      33.118  16.417   2.956  0.00  0.00     0.015 C 
ENDBRANCH   9  11
ENDBRANCH   8   9
ENDBRANCH   7   8
BRANCH   7  13
HETATM   13  C   UNK N   1      30.800  16.318   5.804  0.00  0.00    -0.023 A 
HETATM   14  C   UNK N   1      30.276  17.402   5.079  0.00  0.00     0.010 A 
HETATM   15  C   UNK N   1      29.152  17.240   4.265  0.00  0.00     0.001 A 
HETATM   16  C   UNK N   1      28.536  15.991   4.164  0.00  0.00     0.000 A 
HETATM   17  C   UNK N   1      29.043  14.904   4.877  0.00  0.00     0.001 A 
HETATM   18  C   UNK N   1      30.163  15.067   5.695  0.00  0.00     0.010 A 
ENDBRANCH   7  13
BRANCH   1  19
HETATM   19  C   UNK N   1      30.561  17.362   8.688  0.00  0.00     0.005 C 
HETATM   20  C   UNK N   1      30.030  18.629   9.331  0.00  0.00     0.005 C 
ENDBRANCH   1  19
TORSDOF 5
ENDMDL
MODEL 7
REMARK VINA RESULT:      -5.5     22.711     26.071
REMARK  5 active torsions:
REMARK  status: ('A' for Active; 'I' for Inactive)
REMARK    1  A    between atoms: C_3  and  C_2 
REMARK    2  A    between atoms: C_9  and  O_10 
REMARK    3  A    between atoms: C_9  and  C_15 
REMARK    4  A    between atoms: O_10  and  C_11 
REMARK    5  A    between atoms: C_11  and  C_13 
ROOT
HETATM    1  C   UNK N   1      27.313  26.463  -6.618  0.00  0.00     0.053 C 
HETATM    2  C   UNK N   1      27.295  27.807  -5.854  0.00  0.00     0.279 C 
HETATM    3  N   UNK N   1      26.504  27.756  -4.617  0.00  0.00     0.084 N 
HETATM    4  C   UNK N   1      26.260  29.124  -4.200  0.00  0.00     0.309 C 
HETATM    5  C   UNK N   1      25.204  27.129  -4.858  0.00  0.00     0.275 C 
HETATM    6  C   UNK N   1      25.357  25.662  -5.301  0.00  0.00     0.074 C 
HETATM    7  C   UNK N   1      26.806  25.302  -5.714  0.00  0.00     0.104 C 
ENDROOT
BRANCH   7   8
HETATM    8  O   UNK N   1      27.655  25.224  -4.607  0.00  0.00    -0.305 OA
BRANCH   8   9
HETATM    9  C   UNK N   1      27.628  24.265  -3.638  0.00  0.00     0.259 C 
HETATM   10  O   UNK N   1      26.629  24.090  -2.952  0.00  0.00    -0.265 OA
BRANCH   9  11
HETATM   11  C   UNK N   1      28.826  23.410  -3.412  0.00  0.00     0.106 C 
HETATM   12  C   UNK N   1      28.899  23.025  -1.944  0.00  0.00     0.015 C 
ENDBRANCH   9  11
ENDBRANCH   8   9
ENDBRANCH   7   8
BRANCH   7  13
HETATM   13  C   UNK N   1      26.846  23.942  -6.415  0.00  0.00    -0.023 A 
HETATM   14  C   UNK N   1      28.046  23.483  -6.987  0.00  0.00     0.010 A 
HETATM   15  C   UNK N   1      28.089  22.269  -7.676  0.00  0.00     0.001 A 
HETATM   16  C   UNK N   1      26.933  21.496  -7.806  0.00  0.00     0.000 A 
HETATM   17  C   UNK N   1      25.734  21.937  -7.245  0.00  0.00     0.001 A 
HETATM   18  C   UNK N   1      25.689  23.154  -6.560  0.00  0.00     0.010 A 
ENDBRANCH   7  13
BRANCH   1  19
HETATM   19  C   UNK N   1      26.463  26.616  -7.887  0.00  0.00     0.005 C 
HETATM   20  C   UNK N   1      27.303  26.435  -9.136  0.00  0.00     0.005 C 
ENDBRANCH   1  19
TORSDOF 5
ENDMDL
MODEL 8
REMARK VINA RESULT:      -5.4     22.806     26.110
REMARK  5 active torsions:
REMARK  status: ('A' for Active; 'I' for Inactive)
REMARK    1  A    between atoms: C_3  and  C_2 
REMARK    2  A    between atoms: C_9  and  O_10 
REMARK    3  A    between atoms: C_9  and  C_15 
REMARK    4  A    between atoms: O_10  and  C_11 
REMARK    5  A    between atoms: C_11  and  C_13 
ROOT
HETATM    1  C   UNK N   1      25.848  24.982  -6.964  0.00  0.00     0.053 C 
HETATM    2  C   UNK N   1      25.926  23.559  -7.563  0.00  0.00     0.279 C 
HETATM    3  N   UNK N   1      27.176  22.863  -7.234  0.00  0.00     0.084 N 
HETATM    4  C   UNK N   1      27.292  21.728  -8.131  0.00  0.00     0.309 C 
HETATM    5  C   UNK N   1      28.331  23.730  -7.469  0.00  0.00     0.275 C 
HETATM    6  C   UNK N   1      28.304  24.969  -6.555  0.00  0.00     0.074 C 
HETATM    7  C   UNK N   1      26.933  25.185  -5.867  0.00  0.00     0.104 C 
ENDROOT
BRANCH   7   8
HETATM    8  O   UNK N   1      26.704  24.239  -4.864  0.00  0.00    -0.305 OA
BRANCH   8   9
HETATM    9  C   UNK N   1      27.336  24.176  -3.658  0.00  0.00     0.259 C 
HETATM   10  O   UNK N   1      26.720  24.341  -2.613  0.00  0.00    -0.265 OA
BRANCH   9  11
HETATM   11  C   UNK N   1      28.797  23.893  -3.604  0.00  0.00     0.106 C 
HETATM   12  C   UNK N   1      29.107  23.085  -2.355  0.00  0.00     0.015 C 
ENDBRANCH   9  11
ENDBRANCH   8   9
ENDBRANCH   7   8
BRANCH   7  13
HETATM   13  C   UNK N   1      26.867  26.567  -5.214  0.00  0.00    -0.023 A 
HETATM   14  C   UNK N   1      25.667  27.010  -4.629  0.00  0.00     0.010 A 
HETATM   15  C   UNK N   1      25.573  28.289  -4.075  0.00  0.00     0.001 A 
HETATM   16  C   UNK N   1      26.676  29.144  -4.098  0.00  0.00     0.000 A 
HETATM   17  C   UNK N   1      27.874  28.721  -4.674  0.00  0.00     0.001 A 
HETATM   18  C   UNK N   1      27.967  27.444  -5.233  0.00  0.00     0.010 A 
ENDBRANCH   7  13
BRANCH   1  19
HETATM   19  C   UNK N   1      25.990  25.997  -8.107  0.00  0.00     0.005 C 
HETATM   20  C   UNK N   1      25.611  25.380  -9.440  0.00  0.00     0.005 C 
ENDBRANCH   1  19
TORSDOF 5
ENDMDL
MODEL 9
REMARK VINA RESULT:      -5.4     21.569     24.421
REMARK  5 active torsions:
REMARK  status: ('A' for Active; 'I' for Inactive)
REMARK    1  A    between atoms: C_3  and  C_2 
REMARK    2  A    between atoms: C_9  and  O_10 
REMARK    3  A    between atoms: C_9  and  C_15 
REMARK    4  A    between atoms: O_10  and  C_11 
REMARK    5  A    between atoms: C_11  and  C_13 
ROOT
HETATM    1  C   UNK N   1      29.969  26.501  -3.919  0.00  0.00     0.053 C 
HETATM    2  C   UNK N   1      29.393  27.903  -4.226  0.00  0.00     0.279 C 
HETATM    3  N   UNK N   1      28.326  27.878  -5.235  0.00  0.00     0.084 N 
HETATM    4  C   UNK N   1      28.134  29.240  -5.699  0.00  0.00     0.309 C 
HETATM    5  C   UNK N   1      28.721  27.071  -6.390  0.00  0.00     0.275 C 
HETATM    6  C   UNK N   1      28.944  25.598  -6.001  0.00  0.00     0.074 C 
HETATM    7  C   UNK N   1      29.037  25.383  -4.469  0.00  0.00     0.104 C 
ENDROOT
BRANCH   7   8
HETATM    8  O   UNK N   1      27.792  25.526  -3.851  0.00  0.00    -0.305 OA
BRANCH   8   9
HETATM    9  C   UNK N   1      26.769  24.626  -3.884  0.00  0.00     0.259 C 
HETATM   10  O   UNK N   1      26.503  23.938  -2.907  0.00  0.00    -0.265 OA
BRANCH   9  11
HETATM   11  C   UNK N   1      25.953  24.479  -5.121  0.00  0.00     0.106 C 
HETATM   12  C   UNK N   1      25.302  25.811  -5.455  0.00  0.00     0.015 C 
ENDBRANCH   9  11
ENDBRANCH   8   9
ENDBRANCH   7   8
BRANCH   7  13
HETATM   13  C   UNK N   1      29.544  23.975  -4.150  0.00  0.00    -0.023 A 
HETATM   14  C   UNK N   1      30.031  23.680  -2.864  0.00  0.00     0.010 A 
HETATM   15  C   UNK N   1      30.547  22.416  -2.570  0.00  0.00     0.001 A 
HETATM   16  C   UNK N   1      30.585  21.428  -3.557  0.00  0.00     0.000 A 
HETATM   17  C   UNK N   1      30.106  21.705  -4.838  0.00  0.00     0.001 A 
HETATM   18  C   UNK N   1      29.595  22.970  -5.134  0.00  0.00     0.010 A 
ENDBRANCH   7  13
BRANCH   1  19
HETATM   19  C   UNK N   1      31.381  26.416  -4.514  0.00  0.00     0.005 C 
HETATM   20  C   UNK N   1      32.063  27.771  -4.508  0.00  0.00     0.005 C 
ENDBRANCH   1  19
TORSDOF 5
ENDMDL
