MODEL 1
REMARK VINA RESULT:      -7.2      0.000      0.000
REMARK  2 active torsions:
REMARK  status: ('A' for Active; 'I' for Inactive)
REMARK    1  A    between atoms: C_10  and  O_11 
REMARK    2  A    between atoms: C_18  and  O_20 
ROOT
HETATM    1  C   UNK N   1      27.898  23.805  -8.895  0.00  0.00     0.018 C 
HETATM    2  C   UNK N   1      26.475  23.515  -8.438  0.00  0.00    -0.014 C 
HETATM    3  C   UNK N   1      25.557  24.695  -8.801  0.00  0.00     0.012 C 
HETATM    4  C   UNK N   1      25.963  25.989  -8.071  0.00  0.00     0.007 C 
HETATM    5  C   UNK N   1      26.583  25.753  -6.675  0.00  0.00     0.002 C 
HETATM    6  C   UNK N   1      26.042  24.444  -6.060  0.00  0.00    -0.005 C 
HETATM    7  C   UNK N   1      26.415  23.230  -6.929  0.00  0.00     0.001 C 
HETATM    8  C   UNK N   1      25.378  22.125  -6.733  0.00  0.00     0.008 C 
HETATM    9  C   UNK N   1      24.890  21.744  -8.122  0.00  0.00     0.033 C 
HETATM   10  C   UNK N   1      26.004  22.202  -9.033  0.00  0.00     0.126 C 
HETATM   11  C   UNK N   1      26.539  24.202  -4.632  0.00  0.00     0.006 C 
HETATM   12  C   UNK N   1      26.311  25.416  -3.740  0.00  0.00     0.006 C 
HETATM   13  C   UNK N   1      27.001  26.614  -4.377  0.00  0.00     0.000 C 
HETATM   14  C   UNK N   1      26.373  26.968  -5.742  0.00  0.00    -0.019 C 
HETATM   15  C   UNK N   1      27.043  28.199  -6.313  0.00  0.00    -0.018 C 
HETATM   16  C   UNK N   1      27.802  29.029  -5.572  0.00  0.00     0.001 C 
HETATM   17  C   UNK N   1      27.985  28.861  -4.080  0.00  0.00     0.141 C 
HETATM   18  C   UNK N   1      27.040  27.825  -3.466  0.00  0.00     0.041 C 
HETATM   19  C   UNK N   1      24.880  27.282  -5.593  0.00  0.00     0.020 C 
ENDROOT
BRANCH  10  20
HETATM   20  O   UNK N   1      25.573  22.328 -10.356  0.00  0.00    -0.395 OA
HETATM   21  H   UNK N   1      25.982  22.905 -11.019  0.00  0.00     0.210 HD
ENDBRANCH  10  20
BRANCH  17  22
HETATM   22  O   UNK N   1      27.793  30.086  -3.442  0.00  0.00    -0.392 OA
HETATM   23  H   UNK N   1      28.034  30.950  -3.812  0.00  0.00     0.210 HD
ENDBRANCH  17  22
TORSDOF 2
ENDMDL
MODEL 2
REMARK VINA RESULT:      -7.1     13.784     15.649
REMARK  2 active torsions:
REMARK  status: ('A' for Active; 'I' for Inactive)
REMARK    1  A    between atoms: C_10  and  O_11 
REMARK    2  A    between atoms: C_18  and  O_20 
ROOT
HETATM    1  C   UNK N   1      27.846  18.591   4.726  0.00  0.00     0.018 C 
HETATM    2  C   UNK N   1      28.078  17.134   4.352  0.00  0.00    -0.014 C 
HETATM    3  C   UNK N   1      28.054  16.258   5.617  0.00  0.00     0.012 C 
HETATM    4  C   UNK N   1      29.193  16.615   6.590  0.00  0.00     0.007 C 
HETATM    5  C   UNK N   1      30.477  17.119   5.892  0.00  0.00     0.002 C 
HETATM    6  C   UNK N   1      30.590  16.520   4.475  0.00  0.00    -0.005 C 
HETATM    7  C   UNK N   1      29.403  16.951   3.595  0.00  0.00     0.001 C 
HETATM    8  C   UNK N   1      29.153  15.892   2.522  0.00  0.00     0.008 C 
HETATM    9  C   UNK N   1      27.684  15.514   2.629  0.00  0.00     0.033 C 
HETATM   10  C   UNK N   1      27.055  16.700   3.319  0.00  0.00     0.126 C 
HETATM   11  C   UNK N   1      31.895  16.899   3.766  0.00  0.00     0.006 C 
HETATM   12  C   UNK N   1      33.114  16.610   4.632  0.00  0.00     0.006 C 
HETATM   13  C   UNK N   1      32.954  17.360   5.948  0.00  0.00     0.000 C 
HETATM   14  C   UNK N   1      31.737  16.846   6.746  0.00  0.00    -0.019 C 
HETATM   15  C   UNK N   1      31.648  17.569   8.072  0.00  0.00    -0.018 C 
HETATM   16  C   UNK N   1      32.673  18.273   8.591  0.00  0.00     0.001 C 
HETATM   17  C   UNK N   1      34.038  18.335   7.943  0.00  0.00     0.141 C 
HETATM   18  C   UNK N   1      34.210  17.336   6.797  0.00  0.00     0.041 C 
HETATM   19  C   UNK N   1      31.870  15.349   7.045  0.00  0.00     0.020 C 
ENDROOT
BRANCH  10  20
HETATM   20  O   UNK N   1      25.818  16.378   3.883  0.00  0.00    -0.395 OA
HETATM   21  H   UNK N   1      25.377  16.888   4.580  0.00  0.00     0.210 HD
ENDBRANCH  10  20
BRANCH  17  22
HETATM   22  O   UNK N   1      35.024  18.103   8.900  0.00  0.00    -0.392 OA
HETATM   23  H   UNK N   1      35.427  18.784   9.461  0.00  0.00     0.210 HD
ENDBRANCH  17  22
TORSDOF 2
ENDMDL
MODEL 3
REMARK VINA RESULT:      -7.1      4.243      6.133
REMARK  2 active torsions:
REMARK  status: ('A' for Active; 'I' for Inactive)
REMARK    1  A    between atoms: C_10  and  O_11 
REMARK    2  A    between atoms: C_18  and  O_20 
ROOT
HETATM    1  C   UNK N   1      25.842  23.362  -6.127  0.00  0.00     0.018 C 
HETATM    2  C   UNK N   1      26.489  24.633  -5.594  0.00  0.00    -0.014 C 
HETATM    3  C   UNK N   1      27.702  25.007  -6.463  0.00  0.00     0.012 C 
HETATM    4  C   UNK N   1      28.806  23.934  -6.408  0.00  0.00     0.007 C 
HETATM    5  C   UNK N   1      28.887  23.189  -5.055  0.00  0.00     0.002 C 
HETATM    6  C   UNK N   1      28.381  24.093  -3.911  0.00  0.00    -0.005 C 
HETATM    7  C   UNK N   1      26.906  24.479  -4.123  0.00  0.00     0.001 C 
HETATM    8  C   UNK N   1      26.629  25.821  -3.446  0.00  0.00     0.008 C 
HETATM    9  C   UNK N   1      26.007  26.715  -4.507  0.00  0.00     0.033 C 
HETATM   10  C   UNK N   1      25.457  25.742  -5.522  0.00  0.00     0.126 C 
HETATM   11  C   UNK N   1      28.530  23.450  -2.529  0.00  0.00     0.006 C 
HETATM   12  C   UNK N   1      29.943  22.932  -2.295  0.00  0.00     0.006 C 
HETATM   13  C   UNK N   1      30.282  21.950  -3.408  0.00  0.00     0.000 C 
HETATM   14  C   UNK N   1      30.309  22.645  -4.786  0.00  0.00    -0.019 C 
HETATM   15  C   UNK N   1      30.710  21.652  -5.856  0.00  0.00    -0.018 C 
HETATM   16  C   UNK N   1      31.288  20.468  -5.575  0.00  0.00     0.001 C 
HETATM   17  C   UNK N   1      31.672  20.054  -4.171  0.00  0.00     0.141 C 
HETATM   18  C   UNK N   1      31.573  21.195  -3.155  0.00  0.00     0.041 C 
HETATM   19  C   UNK N   1      31.334  23.784  -4.805  0.00  0.00     0.020 C 
ENDROOT
BRANCH  10  20
HETATM   20  O   UNK N   1      25.228  26.353  -6.757  0.00  0.00    -0.395 OA
HETATM   21  H   UNK N   1      25.707  26.147  -7.575  0.00  0.00     0.210 HD
ENDBRANCH  10  20
BRANCH  17  22
HETATM   22  O   UNK N   1      32.974  19.556  -4.169  0.00  0.00    -0.392 OA
HETATM   23  H   UNK N   1      33.453  19.245  -4.953  0.00  0.00     0.210 HD
ENDBRANCH  17  22
TORSDOF 2
ENDMDL
MODEL 4
REMARK VINA RESULT:      -7.0     27.512     29.552
REMARK  2 active torsions:
REMARK  status: ('A' for Active; 'I' for Inactive)
REMARK    1  A    between atoms: C_10  and  O_11 
REMARK    2  A    between atoms: C_18  and  O_20 
ROOT
HETATM    1  C   UNK N   1      33.698  10.993  14.334  0.00  0.00     0.018 C 
HETATM    2  C   UNK N   1      35.137  11.431  14.568  0.00  0.00    -0.014 C 
HETATM    3  C   UNK N   1      36.024  10.201  14.826  0.00  0.00     0.012 C 
HETATM    4  C   UNK N   1      35.614   9.451  16.107  0.00  0.00     0.007 C 
HETATM    5  C   UNK N   1      35.034  10.366  17.210  0.00  0.00     0.002 C 
HETATM    6  C   UNK N   1      35.614  11.791  17.087  0.00  0.00    -0.005 C 
HETATM    7  C   UNK N   1      35.241  12.425  15.735  0.00  0.00     0.001 C 
HETATM    8  C   UNK N   1      36.303  13.452  15.344  0.00  0.00     0.008 C 
HETATM    9  C   UNK N   1      36.761  13.080  13.942  0.00  0.00     0.033 C 
HETATM   10  C   UNK N   1      35.617  12.263  13.394  0.00  0.00     0.126 C 
HETATM   11  C   UNK N   1      35.159  12.724  18.214  0.00  0.00     0.006 C 
HETATM   12  C   UNK N   1      35.387  12.106  19.587  0.00  0.00     0.006 C 
HETATM   13  C   UNK N   1      34.659  10.770  19.638  0.00  0.00     0.000 C 
HETATM   14  C   UNK N   1      35.245   9.768  18.620  0.00  0.00    -0.019 C 
HETATM   15  C   UNK N   1      34.539   8.435  18.744  0.00  0.00    -0.018 C 
HETATM   16  C   UNK N   1      33.785   8.104  19.810  0.00  0.00     0.001 C 
HETATM   17  C   UNK N   1      33.643   8.994  21.024  0.00  0.00     0.141 C 
HETATM   18  C   UNK N   1      34.622  10.171  21.030  0.00  0.00     0.041 C 
HETATM   19  C   UNK N   1      36.736   9.527  18.885  0.00  0.00     0.020 C 
ENDROOT
BRANCH  10  20
HETATM   20  O   UNK N   1      36.011  11.485  12.302  0.00  0.00    -0.395 OA
HETATM   21  H   UNK N   1      36.765  11.681  11.725  0.00  0.00     0.210 HD
ENDBRANCH  10  20
BRANCH  17  22
HETATM   22  O   UNK N   1      33.829   8.242  22.183  0.00  0.00    -0.392 OA
HETATM   23  H   UNK N   1      33.145   7.706  22.615  0.00  0.00     0.210 HD
ENDBRANCH  17  22
TORSDOF 2
ENDMDL
MODEL 5
REMARK VINA RESULT:      -6.9     14.366     16.355
REMARK  2 active torsions:
REMARK  status: ('A' for Active; 'I' for Inactive)
REMARK    1  A    between atoms: C_10  and  O_11 
REMARK    2  A    between atoms: C_18  and  O_20 
ROOT
HETATM    1  C   UNK N   1      33.390  17.191   5.897  0.00  0.00     0.018 C 
HETATM    2  C   UNK N   1      32.663  16.097   6.666  0.00  0.00    -0.014 C 
HETATM    3  C   UNK N   1      31.609  15.434   5.763  0.00  0.00     0.012 C 
HETATM    4  C   UNK N   1      30.512  16.425   5.331  0.00  0.00     0.007 C 
HETATM    5  C   UNK N   1      30.211  17.522   6.379  0.00  0.00     0.002 C 
HETATM    6  C   UNK N   1      30.521  17.007   7.800  0.00  0.00    -0.005 C 
HETATM    7  C   UNK N   1      32.010  16.645   7.944  0.00  0.00     0.001 C 
HETATM    8  C   UNK N   1      32.171  15.568   9.016  0.00  0.00     0.008 C 
HETATM    9  C   UNK N   1      32.958  14.437   8.371  0.00  0.00     0.033 C 
HETATM   10  C   UNK N   1      33.669  15.105   7.219  0.00  0.00     0.126 C 
HETATM   11  C   UNK N   1      30.148  18.011   8.896  0.00  0.00     0.006 C 
HETATM   12  C   UNK N   1      28.716  18.508   8.743  0.00  0.00     0.006 C 
HETATM   13  C   UNK N   1      28.565  19.113   7.355  0.00  0.00     0.000 C 
HETATM   14  C   UNK N   1      28.764  18.053   6.251  0.00  0.00    -0.019 C 
HETATM   15  C   UNK N   1      28.545  18.678   4.890  0.00  0.00    -0.018 C 
HETATM   16  C   UNK N   1      27.930  19.865   4.721  0.00  0.00     0.001 C 
HETATM   17  C   UNK N   1      27.321  20.644   5.866  0.00  0.00     0.141 C 
HETATM   18  C   UNK N   1      27.252  19.848   7.171  0.00  0.00     0.041 C 
HETATM   19  C   UNK N   1      27.755  16.909   6.402  0.00  0.00     0.020 C 
ENDROOT
BRANCH  10  20
HETATM   20  O   UNK N   1      34.096  14.176   6.265  0.00  0.00    -0.395 OA
HETATM   21  H   UNK N   1      34.676  13.421   6.448  0.00  0.00     0.210 HD
ENDBRANCH  10  20
BRANCH  17  22
HETATM   22  O   UNK N   1      26.037  21.062   5.519  0.00  0.00    -0.392 OA
HETATM   23  H   UNK N   1      25.240  20.911   6.051  0.00  0.00     0.210 HD
ENDBRANCH  17  22
TORSDOF 2
ENDMDL
MODEL 6
REMARK VINA RESULT:      -6.7     28.005     30.123
REMARK  2 active torsions:
REMARK  status: ('A' for Active; 'I' for Inactive)
REMARK    1  A    between atoms: C_10  and  O_11 
REMARK    2  A    between atoms: C_18  and  O_20 
ROOT
HETATM    1  C   UNK N   1      37.534   9.420  20.127  0.00  0.00     0.018 C 
HETATM    2  C   UNK N   1      36.011   9.433  20.111  0.00  0.00    -0.014 C 
HETATM    3  C   UNK N   1      35.493   8.563  18.953  0.00  0.00     0.012 C 
HETATM    4  C   UNK N   1      35.920   9.113  17.579  0.00  0.00     0.007 C 
HETATM    5  C   UNK N   1      36.049  10.653  17.534  0.00  0.00     0.002 C 
HETATM    6  C   UNK N   1      35.104  11.303  18.567  0.00  0.00    -0.005 C 
HETATM    7  C   UNK N   1      35.462  10.864  19.998  0.00  0.00     0.001 C 
HETATM    8  C   UNK N   1      34.213  10.924  20.877  0.00  0.00     0.008 C 
HETATM    9  C   UNK N   1      34.083   9.557  21.529  0.00  0.00     0.033 C 
HETATM   10  C   UNK N   1      35.480   8.990  21.460  0.00  0.00     0.126 C 
HETATM   11  C   UNK N   1      35.107  12.833  18.503  0.00  0.00     0.006 C 
HETATM   12  C   UNK N   1      34.878  13.341  17.086  0.00  0.00     0.006 C 
HETATM   13  C   UNK N   1      35.948  12.742  16.184  0.00  0.00     0.000 C 
HETATM   14  C   UNK N   1      35.826  11.205  16.107  0.00  0.00    -0.019 C 
HETATM   15  C   UNK N   1      36.864  10.652  15.155  0.00  0.00    -0.018 C 
HETATM   16  C   UNK N   1      37.526  11.421  14.268  0.00  0.00     0.001 C 
HETATM   17  C   UNK N   1      37.232  12.893  14.077  0.00  0.00     0.141 C 
HETATM   18  C   UNK N   1      35.963  13.355  14.797  0.00  0.00     0.041 C 
HETATM   19  C   UNK N   1      34.448  10.790  15.579  0.00  0.00     0.020 C 
ENDROOT
BRANCH  10  20
HETATM   20  O   UNK N   1      35.485   7.601  21.617  0.00  0.00    -0.395 OA
HETATM   21  H   UNK N   1      35.207   6.966  20.938  0.00  0.00     0.210 HD
ENDBRANCH  10  20
BRANCH  17  22
HETATM   22  O   UNK N   1      37.112  13.176  12.718  0.00  0.00    -0.392 OA
HETATM   23  H   UNK N   1      36.827  14.027  12.349  0.00  0.00     0.210 HD
ENDBRANCH  17  22
TORSDOF 2
ENDMDL
MODEL 7
REMARK VINA RESULT:      -6.6     11.728     13.758
REMARK  2 active torsions:
REMARK  status: ('A' for Active; 'I' for Inactive)
REMARK    1  A    between atoms: C_10  and  O_11 
REMARK    2  A    between atoms: C_18  and  O_20 
ROOT
HETATM    1  C   UNK N   1      26.419  16.376   2.863  0.00  0.00     0.018 C 
HETATM    2  C   UNK N   1      26.514  17.371   4.011  0.00  0.00    -0.014 C 
HETATM    3  C   UNK N   1      25.640  16.900   5.186  0.00  0.00     0.012 C 
HETATM    4  C   UNK N   1      24.146  16.851   4.813  0.00  0.00     0.007 C 
HETATM    5  C   UNK N   1      23.726  17.915   3.772  0.00  0.00     0.002 C 
HETATM    6  C   UNK N   1      24.642  19.154   3.869  0.00  0.00    -0.005 C 
HETATM    7  C   UNK N   1      26.105  18.784   3.567  0.00  0.00     0.001 C 
HETATM    8  C   UNK N   1      27.036  19.757   4.289  0.00  0.00     0.008 C 
HETATM    9  C   UNK N   1      28.004  18.905   5.095  0.00  0.00     0.033 C 
HETATM   10  C   UNK N   1      27.967  17.564   4.402  0.00  0.00     0.126 C 
HETATM   11  C   UNK N   1      24.215  20.289   2.934  0.00  0.00     0.006 C 
HETATM   12  C   UNK N   1      22.739  20.629   3.093  0.00  0.00     0.006 C 
HETATM   13  C   UNK N   1      21.928  19.365   2.844  0.00  0.00     0.000 C 
HETATM   14  C   UNK N   1      22.229  18.282   3.902  0.00  0.00    -0.019 C 
HETATM   15  C   UNK N   1      21.361  17.067   3.659  0.00  0.00    -0.018 C 
HETATM   16  C   UNK N   1      20.269  17.095   2.870  0.00  0.00     0.001 C 
HETATM   17  C   UNK N   1      19.755  18.363   2.223  0.00  0.00     0.141 C 
HETATM   18  C   UNK N   1      20.438  19.629   2.746  0.00  0.00     0.041 C 
HETATM   19  C   UNK N   1      21.921  18.795   5.313  0.00  0.00     0.020 C 
ENDROOT
BRANCH  10  20
HETATM   20  O   UNK N   1      28.449  16.542   5.224  0.00  0.00    -0.395 OA
HETATM   21  H   UNK N   1      27.936  16.102   5.919  0.00  0.00     0.210 HD
ENDBRANCH  10  20
BRANCH  17  22
HETATM   22  O   UNK N   1      18.381  18.470   2.427  0.00  0.00    -0.392 OA
HETATM   23  H   UNK N   1      17.718  17.847   2.091  0.00  0.00     0.210 HD
ENDBRANCH  17  22
TORSDOF 2
ENDMDL
MODEL 8
REMARK VINA RESULT:      -6.5     11.938     13.739
REMARK  2 active torsions:
REMARK  status: ('A' for Active; 'I' for Inactive)
REMARK    1  A    between atoms: C_10  and  O_11 
REMARK    2  A    between atoms: C_18  and  O_20 
ROOT
HETATM    1  C   UNK N   1      21.387  18.307   5.670  0.00  0.00     0.018 C 
HETATM    2  C   UNK N   1      21.577  18.310   4.159  0.00  0.00    -0.014 C 
HETATM    3  C   UNK N   1      22.163  16.964   3.701  0.00  0.00     0.012 C 
HETATM    4  C   UNK N   1      23.565  16.714   4.288  0.00  0.00     0.007 C 
HETATM    5  C   UNK N   1      24.389  18.004   4.512  0.00  0.00     0.002 C 
HETATM    6  C   UNK N   1      23.957  19.098   3.513  0.00  0.00    -0.005 C 
HETATM    7  C   UNK N   1      22.476  19.471   3.708  0.00  0.00     0.001 C 
HETATM    8  C   UNK N   1      21.902  19.984   2.388  0.00  0.00     0.008 C 
HETATM    9  C   UNK N   1      20.653  19.160   2.116  0.00  0.00     0.033 C 
HETATM   10  C   UNK N   1      20.262  18.639   3.478  0.00  0.00     0.126 C 
HETATM   11  C   UNK N   1      24.805  20.369   3.612  0.00  0.00     0.006 C 
HETATM   12  C   UNK N   1      26.296  20.062   3.548  0.00  0.00     0.006 C 
HETATM   13  C   UNK N   1      26.629  19.078   4.661  0.00  0.00     0.000 C 
HETATM   14  C   UNK N   1      25.910  17.728   4.456  0.00  0.00    -0.019 C 
HETATM   15  C   UNK N   1      26.314  16.758   5.545  0.00  0.00    -0.018 C 
HETATM   16  C   UNK N   1      27.391  16.949   6.331  0.00  0.00     0.001 C 
HETATM   17  C   UNK N   1      28.350  18.104   6.144  0.00  0.00     0.141 C 
HETATM   18  C   UNK N   1      28.121  18.876   4.842  0.00  0.00     0.041 C 
HETATM   19  C   UNK N   1      26.295  17.100   3.112  0.00  0.00     0.020 C 
ENDROOT
BRANCH  10  20
HETATM   20  O   UNK N   1      19.407  17.537   3.386  0.00  0.00    -0.395 OA
HETATM   21  H   UNK N   1      18.851  17.330   2.620  0.00  0.00     0.210 HD
ENDBRANCH  10  20
BRANCH  17  22
HETATM   22  O   UNK N   1      29.662  17.634   6.169  0.00  0.00    -0.392 OA
HETATM   23  H   UNK N   1      30.000  16.960   6.779  0.00  0.00     0.210 HD
ENDBRANCH  17  22
TORSDOF 2
ENDMDL
MODEL 9
REMARK VINA RESULT:      -6.5     26.922     28.948
REMARK  2 active torsions:
REMARK  status: ('A' for Active; 'I' for Inactive)
REMARK    1  A    between atoms: C_10  and  O_11 
REMARK    2  A    between atoms: C_18  and  O_20 
ROOT
HETATM    1  C   UNK N   1      37.131  14.218  15.316  0.00  0.00     0.018 C 
HETATM    2  C   UNK N   1      36.395  13.210  14.445  0.00  0.00    -0.014 C 
HETATM    3  C   UNK N   1      34.951  13.038  14.948  0.00  0.00     0.012 C 
HETATM    4  C   UNK N   1      34.901  12.457  16.374  0.00  0.00     0.007 C 
HETATM    5  C   UNK N   1      36.069  11.497  16.701  0.00  0.00     0.002 C 
HETATM    6  C   UNK N   1      36.581  10.816  15.414  0.00  0.00    -0.005 C 
HETATM    7  C   UNK N   1      37.120  11.856  14.415  0.00  0.00     0.001 C 
HETATM    8  C   UNK N   1      36.982  11.315  12.992  0.00  0.00     0.008 C 
HETATM    9  C   UNK N   1      36.232  12.377  12.203  0.00  0.00     0.033 C 
HETATM   10  C   UNK N   1      36.461  13.643  12.993  0.00  0.00     0.126 C 
HETATM   11  C   UNK N   1      37.671   9.774  15.680  0.00  0.00     0.006 C 
HETATM   12  C   UNK N   1      37.251   8.777  16.753  0.00  0.00     0.006 C 
HETATM   13  C   UNK N   1      36.898   9.553  18.015  0.00  0.00     0.000 C 
HETATM   14  C   UNK N   1      35.678  10.472  17.790  0.00  0.00    -0.019 C 
HETATM   15  C   UNK N   1      35.320  11.177  19.080  0.00  0.00    -0.018 C 
HETATM   16  C   UNK N   1      35.777  10.778  20.283  0.00  0.00     0.001 C 
HETATM   17  C   UNK N   1      36.619   9.535  20.470  0.00  0.00     0.141 C 
HETATM   18  C   UNK N   1      36.688   8.656  19.219  0.00  0.00     0.041 C 
HETATM   19  C   UNK N   1      34.454   9.660  17.352  0.00  0.00     0.020 C 
ENDROOT
BRANCH  10  20
HETATM   20  O   UNK N   1      35.523  14.629  12.676  0.00  0.00    -0.395 OA
HETATM   21  H   UNK N   1      35.738  15.502  12.314  0.00  0.00     0.210 HD
ENDBRANCH  10  20
BRANCH  17  22
HETATM   22  O   UNK N   1      36.115   8.781  21.529  0.00  0.00    -0.392 OA
HETATM   23  H   UNK N   1      35.266   8.311  21.522  0.00  0.00     0.210 HD
ENDBRANCH  17  22
TORSDOF 2
ENDMDL
