REMARK  2 active torsions:
REMARK  status: ('A' for Active; 'I' for Inactive)
REMARK    1  A    between atoms: C_10  and  O_11 
REMARK    2  A    between atoms: C_16  and  O_20 
ROOT
HETATM    1  C   UNK N   1       4.998   1.769  -1.956  0.00  0.00     0.018 C 
HETATM    2  C   UNK N   1       4.993   1.519  -0.455  0.00  0.00    -0.014 C 
HETATM    3  C   UNK N   1       3.996   2.506   0.198  0.00  0.00     0.012 C 
HETATM    4  C   UNK N   1       2.746   1.859   0.807  0.00  0.00     0.006 C 
HETATM    5  C   UNK N   1       2.183   0.751  -0.085  0.00  0.00    -0.002 C 
HETATM    6  C   UNK N   1       3.240  -0.346  -0.390  0.00  0.00    -0.005 C 
HETATM    7  C   UNK N   1       4.699   0.063  -0.115  0.00  0.00     0.001 C 
HETATM    8  C   UNK N   1       5.152  -0.075   1.336  0.00  0.00     0.008 C 
HETATM    9  C   UNK N   1       6.253   0.974   1.511  0.00  0.00     0.033 C 
HETATM   10  C   UNK N   1       6.370   1.706   0.174  0.00  0.00     0.126 C 
HETATM   11  C   UNK N   1       2.910  -1.724   0.180  0.00  0.00     0.009 C 
HETATM   12  C   UNK N   1       1.536  -2.186  -0.291  0.00  0.00     0.034 C 
HETATM   13  C   UNK N   1       0.480  -1.147  -0.044  0.00  0.00    -0.077 C 
HETATM   14  C   UNK N   1      -0.803  -1.476  -0.262  0.00  0.00     0.007 C 
HETATM   15  C   UNK N   1      -1.959  -0.555   0.046  0.00  0.00     0.141 C 
HETATM   16  C   UNK N   1      -1.553   0.672   0.865  0.00  0.00     0.036 C 
HETATM   17  C   UNK N   1      -0.242   1.248   0.358  0.00  0.00     0.012 C 
HETATM   18  C   UNK N   1       0.875   0.211   0.518  0.00  0.00     0.019 C 
ENDROOT
BRANCH  10  19
HETATM   19  O   UNK N   1       7.354   1.063  -0.586  0.00  0.00    -0.395 OA
HETATM   20  H   UNK N   1       7.310   0.250  -1.113  0.00  0.00     0.210 HD
ENDBRANCH  10  19
BRANCH  15  21
HETATM   21  O   UNK N   1      -2.588  -0.173  -1.138  0.00  0.00    -0.392 OA
HETATM   22  H   UNK N   1      -2.576   0.339  -1.962  0.00  0.00     0.210 HD
ENDBRANCH  15  21
TORSDOF 2
