MODEL 1
REMARK VINA RESULT:      -5.6      0.000      0.000
REMARK  4 active torsions:
REMARK  status: ('A' for Active; 'I' for Inactive)
REMARK    1  A    between atoms: C_15  and  C_4 
REMARK    2  A    between atoms: C_16  and  C_14 
REMARK    3  A    between atoms: O_19  and  C_15 
REMARK    4  A    between atoms: C_16  and  O_19 
ROOT
HETATM    1  C   UNK N   1      24.785  26.991  -5.869  0.00  0.00     0.015 C 
HETATM    2  C   UNK N   1      26.691  29.889  -3.413  0.00  0.00     0.309 C 
HETATM    3  C   UNK N   1      27.788  27.097  -5.626  0.00  0.00     0.074 C 
HETATM    4  C   UNK N   1      27.865  28.311  -4.690  0.00  0.00     0.275 C 
HETATM    5  C   UNK N   1      25.735  27.772  -3.715  0.00  0.00     0.279 C 
HETATM    6  C   UNK N   1      25.568  26.553  -4.630  0.00  0.00     0.050 C 
HETATM    7  C   UNK N   1      26.975  25.965  -4.967  0.00  0.00     0.104 C 
HETATM    8  N   UNK N   1      26.526  28.814  -4.375  0.00  0.00     0.084 N 
ENDROOT
BRANCH   7   9
HETATM    9  C   UNK N   1      26.898  24.761  -5.924  0.00  0.00    -0.023 A 
HETATM   10  C   UNK N   1      27.862  24.592  -6.934  0.00  0.00     0.010 A 
HETATM   11  C   UNK N   1      27.790  23.519  -7.827  0.00  0.00     0.001 A 
HETATM   12  C   UNK N   1      26.742  22.604  -7.734  0.00  0.00     0.000 A 
HETATM   13  C   UNK N   1      25.765  22.762  -6.750  0.00  0.00     0.001 A 
HETATM   14  C   UNK N   1      25.842  23.832  -5.854  0.00  0.00     0.010 A 
ENDBRANCH   7   9
BRANCH   7  15
HETATM   15  O   UNK N   1      27.567  25.648  -3.740  0.00  0.00    -0.305 OA
BRANCH  15  16
HETATM   16  C   UNK N   1      27.782  24.428  -3.173  0.00  0.00     0.259 C 
HETATM   17  O   UNK N   1      26.914  23.870  -2.525  0.00  0.00    -0.265 OA
BRANCH  16  18
HETATM   18  C   UNK N   1      29.129  23.777  -3.273  0.00  0.00     0.106 C 
HETATM   19  C   UNK N   1      30.223  24.770  -3.625  0.00  0.00     0.015 C 
ENDBRANCH  16  18
ENDBRANCH  15  16
ENDBRANCH   7  15
TORSDOF 4
ENDMDL
MODEL 2
REMARK VINA RESULT:      -5.3      1.724      4.686
REMARK  4 active torsions:
REMARK  status: ('A' for Active; 'I' for Inactive)
REMARK    1  A    between atoms: C_15  and  C_4 
REMARK    2  A    between atoms: C_16  and  C_14 
REMARK    3  A    between atoms: O_19  and  C_15 
REMARK    4  A    between atoms: C_16  and  O_19 
ROOT
HETATM    1  C   UNK N   1      26.782  26.305  -7.545  0.00  0.00     0.015 C 
HETATM    2  C   UNK N   1      26.111  22.131  -7.983  0.00  0.00     0.309 C 
HETATM    3  C   UNK N   1      25.649  24.662  -5.285  0.00  0.00     0.074 C 
HETATM    4  C   UNK N   1      25.601  23.319  -6.026  0.00  0.00     0.275 C 
HETATM    5  C   UNK N   1      27.486  23.932  -7.386  0.00  0.00     0.279 C 
HETATM    6  C   UNK N   1      27.588  25.306  -6.713  0.00  0.00     0.050 C 
HETATM    7  C   UNK N   1      27.094  25.194  -5.236  0.00  0.00     0.104 C 
HETATM    8  N   UNK N   1      26.099  23.459  -7.396  0.00  0.00     0.084 N 
ENDROOT
BRANCH   7   9
HETATM    9  C   UNK N   1      27.122  26.547  -4.501  0.00  0.00    -0.023 A 
HETATM   10  C   UNK N   1      25.936  27.097  -3.979  0.00  0.00     0.010 A 
HETATM   11  C   UNK N   1      25.941  28.336  -3.333  0.00  0.00     0.001 A 
HETATM   12  C   UNK N   1      27.130  29.055  -3.210  0.00  0.00     0.000 A 
HETATM   13  C   UNK N   1      28.314  28.535  -3.735  0.00  0.00     0.001 A 
HETATM   14  C   UNK N   1      28.309  27.293  -4.376  0.00  0.00     0.010 A 
ENDBRANCH   7   9
BRANCH   7  15
HETATM   15  O   UNK N   1      27.904  24.228  -4.629  0.00  0.00    -0.305 OA
BRANCH  15  16
HETATM   16  C   UNK N   1      28.023  23.902  -3.311  0.00  0.00     0.259 C 
HETATM   17  O   UNK N   1      27.062  23.937  -2.563  0.00  0.00    -0.265 OA
BRANCH  16  18
HETATM   18  C   UNK N   1      29.365  23.563  -2.736  0.00  0.00     0.106 C 
HETATM   19  C   UNK N   1      30.475  24.422  -3.319  0.00  0.00     0.015 C 
ENDBRANCH  16  18
ENDBRANCH  15  16
ENDBRANCH   7  15
TORSDOF 4
ENDMDL
MODEL 3
REMARK VINA RESULT:      -5.3     13.754     16.245
REMARK  4 active torsions:
REMARK  status: ('A' for Active; 'I' for Inactive)
REMARK    1  A    between atoms: C_15  and  C_4 
REMARK    2  A    between atoms: C_16  and  C_14 
REMARK    3  A    between atoms: O_19  and  C_15 
REMARK    4  A    between atoms: C_16  and  O_19 
ROOT
HETATM    1  C   UNK N   1      34.196  16.711   6.083  0.00  0.00     0.015 C 
HETATM    2  C   UNK N   1      35.313  16.813  10.182  0.00  0.00     0.309 C 
HETATM    3  C   UNK N   1      32.412  15.545   8.215  0.00  0.00     0.074 C 
HETATM    4  C   UNK N   1      33.328  15.830   9.413  0.00  0.00     0.275 C 
HETATM    5  C   UNK N   1      34.247  17.767   8.327  0.00  0.00     0.279 C 
HETATM    6  C   UNK N   1      33.385  17.540   7.080  0.00  0.00     0.050 C 
HETATM    7  C   UNK N   1      32.043  16.859   7.499  0.00  0.00     0.104 C 
HETATM    8  N   UNK N   1      34.560  16.494   8.983  0.00  0.00     0.084 N 
ENDROOT
BRANCH   7   9
HETATM    9  C   UNK N   1      31.135  16.553   6.294  0.00  0.00    -0.023 A 
HETATM   10  C   UNK N   1      30.576  15.272   6.130  0.00  0.00     0.010 A 
HETATM   11  C   UNK N   1      29.772  14.972   5.027  0.00  0.00     0.001 A 
HETATM   12  C   UNK N   1      29.525  15.945   4.059  0.00  0.00     0.000 A 
HETATM   13  C   UNK N   1      30.082  17.217   4.193  0.00  0.00     0.001 A 
HETATM   14  C   UNK N   1      30.882  17.517   5.299  0.00  0.00     0.010 A 
ENDBRANCH   7   9
BRANCH   7  15
HETATM   15  O   UNK N   1      31.445  17.718   8.427  0.00  0.00    -0.305 OA
BRANCH  15  16
HETATM   16  C   UNK N   1      30.171  17.720   8.910  0.00  0.00     0.259 C 
HETATM   17  O   UNK N   1      29.809  16.904   9.739  0.00  0.00    -0.265 OA
BRANCH  16  18
HETATM   18  C   UNK N   1      29.161  18.687   8.370  0.00  0.00     0.106 C 
HETATM   19  C   UNK N   1      28.045  17.991   7.611  0.00  0.00     0.015 C 
ENDBRANCH  16  18
ENDBRANCH  15  16
ENDBRANCH   7  15
TORSDOF 4
ENDMDL
MODEL 4
REMARK VINA RESULT:      -5.2     21.879     24.662
REMARK  4 active torsions:
REMARK  status: ('A' for Active; 'I' for Inactive)
REMARK    1  A    between atoms: C_15  and  C_4 
REMARK    2  A    between atoms: C_16  and  C_14 
REMARK    3  A    between atoms: O_19  and  C_15 
REMARK    4  A    between atoms: C_16  and  O_19 
ROOT
HETATM    1  C   UNK N   1      37.749  12.690  10.724  0.00  0.00     0.015 C 
HETATM    2  C   UNK N   1      35.290  16.118  11.243  0.00  0.00     0.309 C 
HETATM    3  C   UNK N   1      36.852  13.567  13.466  0.00  0.00     0.074 C 
HETATM    4  C   UNK N   1      36.074  14.814  13.027  0.00  0.00     0.275 C 
HETATM    5  C   UNK N   1      35.545  13.814  10.907  0.00  0.00     0.279 C 
HETATM    6  C   UNK N   1      36.323  12.540  11.257  0.00  0.00     0.050 C 
HETATM    7  C   UNK N   1      36.263  12.308  12.801  0.00  0.00     0.104 C 
HETATM    8  N   UNK N   1      36.129  14.981  11.573  0.00  0.00     0.084 N 
ENDROOT
BRANCH   7   9
HETATM    9  C   UNK N   1      37.063  11.068  13.242  0.00  0.00    -0.023 A 
HETATM   10  C   UNK N   1      38.015  11.165  14.274  0.00  0.00     0.010 A 
HETATM   11  C   UNK N   1      38.767  10.055  14.667  0.00  0.00     0.001 A 
HETATM   12  C   UNK N   1      38.592   8.830  14.024  0.00  0.00     0.000 A 
HETATM   13  C   UNK N   1      37.665   8.716  12.987  0.00  0.00     0.001 A 
HETATM   14  C   UNK N   1      36.909   9.825  12.598  0.00  0.00     0.010 A 
ENDBRANCH   7   9
BRANCH   7  15
HETATM   15  O   UNK N   1      34.906  12.225  13.128  0.00  0.00    -0.305 OA
BRANCH  15  16
HETATM   16  C   UNK N   1      34.320  11.924  14.321  0.00  0.00     0.259 C 
HETATM   17  O   UNK N   1      34.166  12.774  15.181  0.00  0.00    -0.265 OA
BRANCH  16  18
HETATM   18  C   UNK N   1      33.917  10.514  14.629  0.00  0.00     0.106 C 
HETATM   19  C   UNK N   1      34.610   9.975  15.868  0.00  0.00     0.015 C 
ENDBRANCH  16  18
ENDBRANCH  15  16
ENDBRANCH   7  15
TORSDOF 4
ENDMDL
MODEL 5
REMARK VINA RESULT:      -5.2     14.072     16.886
REMARK  4 active torsions:
REMARK  status: ('A' for Active; 'I' for Inactive)
REMARK    1  A    between atoms: C_15  and  C_4 
REMARK    2  A    between atoms: C_16  and  C_14 
REMARK    3  A    between atoms: O_19  and  C_15 
REMARK    4  A    between atoms: C_16  and  O_19 
ROOT
HETATM    1  C   UNK N   1      31.765  14.920   9.911  0.00  0.00     0.015 C 
HETATM    2  C   UNK N   1      35.986  15.368  10.131  0.00  0.00     0.309 C 
HETATM    3  C   UNK N   1      33.142  17.328   8.730  0.00  0.00     0.074 C 
HETATM    4  C   UNK N   1      34.573  16.957   9.143  0.00  0.00     0.275 C 
HETATM    5  C   UNK N   1      34.063  14.611   9.028  0.00  0.00     0.279 C 
HETATM    6  C   UNK N   1      32.608  14.895   8.635  0.00  0.00     0.050 C 
HETATM    7  C   UNK N   1      32.545  16.231   7.828  0.00  0.00     0.104 C 
HETATM    8  N   UNK N   1      34.594  15.686   9.871  0.00  0.00     0.084 N 
ENDROOT
BRANCH   7   9
HETATM    9  C   UNK N   1      31.106  16.614   7.433  0.00  0.00    -0.023 A 
HETATM   10  C   UNK N   1      30.402  15.852   6.483  0.00  0.00     0.010 A 
HETATM   11  C   UNK N   1      29.106  16.203   6.095  0.00  0.00     0.001 A 
HETATM   12  C   UNK N   1      28.496  17.331   6.641  0.00  0.00     0.000 A 
HETATM   13  C   UNK N   1      29.183  18.110   7.574  0.00  0.00     0.001 A 
HETATM   14  C   UNK N   1      30.477  17.756   7.965  0.00  0.00     0.010 A 
ENDBRANCH   7   9
BRANCH   7  15
HETATM   15  O   UNK N   1      33.384  16.056   6.723  0.00  0.00    -0.305 OA
BRANCH  15  16
HETATM   16  C   UNK N   1      33.661  16.915   5.702  0.00  0.00     0.259 C 
HETATM   17  O   UNK N   1      34.190  17.993   5.910  0.00  0.00    -0.265 OA
BRANCH  16  18
HETATM   18  C   UNK N   1      33.249  16.579   4.301  0.00  0.00     0.106 C 
HETATM   19  C   UNK N   1      32.138  17.482   3.795  0.00  0.00     0.015 C 
ENDBRANCH  16  18
ENDBRANCH  15  16
ENDBRANCH   7  15
TORSDOF 4
ENDMDL
MODEL 6
REMARK VINA RESULT:      -5.2      2.315      5.079
REMARK  4 active torsions:
REMARK  status: ('A' for Active; 'I' for Inactive)
REMARK    1  A    between atoms: C_15  and  C_4 
REMARK    2  A    between atoms: C_16  and  C_14 
REMARK    3  A    between atoms: O_19  and  C_15 
REMARK    4  A    between atoms: C_16  and  O_19 
ROOT
HETATM    1  C   UNK N   1      31.162  26.363  -3.646  0.00  0.00     0.015 C 
HETATM    2  C   UNK N   1      32.074  22.268  -4.325  0.00  0.00     0.309 C 
HETATM    3  C   UNK N   1      29.931  24.851  -5.946  0.00  0.00     0.074 C 
HETATM    4  C   UNK N   1      30.641  23.513  -5.702  0.00  0.00     0.275 C 
HETATM    5  C   UNK N   1      30.757  23.936  -3.339  0.00  0.00     0.279 C 
HETATM    6  C   UNK N   1      30.074  25.299  -3.498  0.00  0.00     0.050 C 
HETATM    7  C   UNK N   1      29.094  25.245  -4.713  0.00  0.00     0.104 C 
HETATM    8  N   UNK N   1      31.527  23.596  -4.538  0.00  0.00     0.084 N 
ENDROOT
BRANCH   7   9
HETATM    9  C   UNK N   1      28.399  26.595  -4.971  0.00  0.00    -0.023 A 
HETATM   10  C   UNK N   1      28.167  27.036  -6.286  0.00  0.00     0.010 A 
HETATM   11  C   UNK N   1      27.561  28.271  -6.535  0.00  0.00     0.001 A 
HETATM   12  C   UNK N   1      27.190  29.093  -5.472  0.00  0.00     0.000 A 
HETATM   13  C   UNK N   1      27.426  28.682  -4.160  0.00  0.00     0.001 A 
HETATM   14  C   UNK N   1      28.027  27.445  -3.911  0.00  0.00     0.010 A 
ENDBRANCH   7   9
BRANCH   7  15
HETATM   15  O   UNK N   1      28.192  24.212  -4.438  0.00  0.00    -0.305 OA
BRANCH  15  16
HETATM   16  C   UNK N   1      26.940  24.275  -3.903  0.00  0.00     0.259 C 
HETATM   17  O   UNK N   1      26.767  24.250  -2.698  0.00  0.00    -0.265 OA
BRANCH  16  18
HETATM   18  C   UNK N   1      25.738  24.301  -4.799  0.00  0.00     0.106 C 
HETATM   19  C   UNK N   1      26.061  23.837  -6.209  0.00  0.00     0.015 C 
ENDBRANCH  16  18
ENDBRANCH  15  16
ENDBRANCH   7  15
TORSDOF 4
ENDMDL
MODEL 7
REMARK VINA RESULT:      -5.1      2.318      5.279
REMARK  4 active torsions:
REMARK  status: ('A' for Active; 'I' for Inactive)
REMARK    1  A    between atoms: C_15  and  C_4 
REMARK    2  A    between atoms: C_16  and  C_14 
REMARK    3  A    between atoms: O_19  and  C_15 
REMARK    4  A    between atoms: C_16  and  O_19 
ROOT
HETATM    1  C   UNK N   1      30.115  25.408  -3.703  0.00  0.00     0.015 C 
HETATM    2  C   UNK N   1      31.098  21.940  -5.955  0.00  0.00     0.309 C 
HETATM    3  C   UNK N   1      28.844  24.877  -6.385  0.00  0.00     0.074 C 
HETATM    4  C   UNK N   1      29.593  23.576  -6.701  0.00  0.00     0.275 C 
HETATM    5  C   UNK N   1      29.776  23.042  -4.366  0.00  0.00     0.279 C 
HETATM    6  C   UNK N   1      29.057  24.334  -3.962  0.00  0.00     0.050 C 
HETATM    7  C   UNK N   1      28.039  24.728  -5.079  0.00  0.00     0.104 C 
HETATM    8  N   UNK N   1      30.514  23.225  -5.618  0.00  0.00     0.084 N 
ENDROOT
BRANCH   7   9
HETATM    9  C   UNK N   1      27.305  26.046  -4.771  0.00  0.00    -0.023 A 
HETATM   10  C   UNK N   1      26.603  26.204  -3.563  0.00  0.00     0.010 A 
HETATM   11  C   UNK N   1      25.910  27.384  -3.281  0.00  0.00     0.001 A 
HETATM   12  C   UNK N   1      25.895  28.423  -4.211  0.00  0.00     0.000 A 
HETATM   13  C   UNK N   1      26.572  28.282  -5.423  0.00  0.00     0.001 A 
HETATM   14  C   UNK N   1      27.269  27.103  -5.701  0.00  0.00     0.010 A 
ENDBRANCH   7   9
BRANCH   7  15
HETATM   15  O   UNK N   1      27.171  23.640  -5.214  0.00  0.00    -0.305 OA
BRANCH  15  16
HETATM   16  C   UNK N   1      26.113  23.475  -6.057  0.00  0.00     0.259 C 
HETATM   17  O   UNK N   1      25.082  24.106  -5.907  0.00  0.00    -0.265 OA
BRANCH  16  18
HETATM   18  C   UNK N   1      26.174  22.452  -7.151  0.00  0.00     0.106 C 
HETATM   19  C   UNK N   1      24.883  21.660  -7.270  0.00  0.00     0.015 C 
ENDBRANCH  16  18
ENDBRANCH  15  16
ENDBRANCH   7  15
TORSDOF 4
ENDMDL
MODEL 8
REMARK VINA RESULT:      -5.1     14.145     17.062
REMARK  4 active torsions:
REMARK  status: ('A' for Active; 'I' for Inactive)
REMARK    1  A    between atoms: C_15  and  C_4 
REMARK    2  A    between atoms: C_16  and  C_14 
REMARK    3  A    between atoms: O_19  and  C_15 
REMARK    4  A    between atoms: C_16  and  O_19 
ROOT
HETATM    1  C   UNK N   1      34.873  13.868   4.321  0.00  0.00     0.015 C 
HETATM    2  C   UNK N   1      37.249  12.768   7.669  0.00  0.00     0.309 C 
HETATM    3  C   UNK N   1      33.862  14.230   7.138  0.00  0.00     0.074 C 
HETATM    4  C   UNK N   1      35.082  13.643   7.860  0.00  0.00     0.275 C 
HETATM    5  C   UNK N   1      36.546  14.348   6.089  0.00  0.00     0.279 C 
HETATM    6  C   UNK N   1      35.378  14.938   5.290  0.00  0.00     0.050 C 
HETATM    7  C   UNK N   1      34.279  15.441   6.280  0.00  0.00     0.104 C 
HETATM    8  N   UNK N   1      36.100  13.212   6.900  0.00  0.00     0.084 N 
ENDROOT
BRANCH   7   9
HETATM    9  C   UNK N   1      33.045  16.008   5.553  0.00  0.00    -0.023 A 
HETATM   10  C   UNK N   1      33.178  17.095   4.669  0.00  0.00     0.010 A 
HETATM   11  C   UNK N   1      32.064  17.638   4.024  0.00  0.00     0.001 A 
HETATM   12  C   UNK N   1      30.794  17.113   4.262  0.00  0.00     0.000 A 
HETATM   13  C   UNK N   1      30.638  16.045   5.148  0.00  0.00     0.001 A 
HETATM   14  C   UNK N   1      31.754  15.499   5.789  0.00  0.00     0.010 A 
ENDBRANCH   7   9
BRANCH   7  15
HETATM   15  O   UNK N   1      34.903  16.379   7.108  0.00  0.00    -0.305 OA
BRANCH  15  16
HETATM   16  C   UNK N   1      34.371  17.457   7.750  0.00  0.00     0.259 C 
HETATM   17  O   UNK N   1      34.770  18.586   7.528  0.00  0.00    -0.265 OA
BRANCH  16  18
HETATM   18  C   UNK N   1      33.325  17.263   8.807  0.00  0.00     0.106 C 
HETATM   19  C   UNK N   1      32.028  17.979   8.470  0.00  0.00     0.015 C 
ENDBRANCH  16  18
ENDBRANCH  15  16
ENDBRANCH   7  15
TORSDOF 4
ENDMDL
MODEL 9
REMARK VINA RESULT:      -5.1      2.127      4.043
REMARK  4 active torsions:
REMARK  status: ('A' for Active; 'I' for Inactive)
REMARK    1  A    between atoms: C_15  and  C_4 
REMARK    2  A    between atoms: C_16  and  C_14 
REMARK    3  A    between atoms: O_19  and  C_15 
REMARK    4  A    between atoms: C_16  and  O_19 
ROOT
HETATM    1  C   UNK N   1      30.703  25.347  -6.550  0.00  0.00     0.015 C 
HETATM    2  C   UNK N   1      29.369  29.189  -5.318  0.00  0.00     0.309 C 
HETATM    3  C   UNK N   1      30.442  26.044  -3.629  0.00  0.00     0.074 C 
HETATM    4  C   UNK N   1      29.987  27.498  -3.816  0.00  0.00     0.275 C 
HETATM    5  C   UNK N   1      28.935  26.964  -5.909  0.00  0.00     0.279 C 
HETATM    6  C   UNK N   1      29.371  25.498  -5.813  0.00  0.00     0.050 C 
HETATM    7  C   UNK N   1      29.449  25.082  -4.309  0.00  0.00     0.104 C 
HETATM    8  N   UNK N   1      29.899  27.840  -5.237  0.00  0.00     0.084 N 
ENDROOT
BRANCH   7   9
HETATM    9  C   UNK N   1      29.927  23.630  -4.123  0.00  0.00    -0.023 A 
HETATM   10  C   UNK N   1      30.722  23.279  -3.016  0.00  0.00     0.010 A 
HETATM   11  C   UNK N   1      31.185  21.971  -2.848  0.00  0.00     0.001 A 
HETATM   12  C   UNK N   1      30.874  20.994  -3.793  0.00  0.00     0.000 A 
HETATM   13  C   UNK N   1      30.101  21.324  -4.907  0.00  0.00     0.001 A 
HETATM   14  C   UNK N   1      29.633  22.631  -5.071  0.00  0.00     0.010 A 
ENDBRANCH   7   9
BRANCH   7  15
HETATM   15  O   UNK N   1      28.175  25.308  -3.778  0.00  0.00    -0.305 OA
BRANCH  15  16
HETATM   16  C   UNK N   1      27.144  24.435  -3.601  0.00  0.00     0.259 C 
HETATM   17  O   UNK N   1      26.959  23.885  -2.529  0.00  0.00    -0.265 OA
BRANCH  16  18
HETATM   18  C   UNK N   1      26.254  24.074  -4.752  0.00  0.00     0.106 C 
HETATM   19  C   UNK N   1      25.604  25.294  -5.381  0.00  0.00     0.015 C 
ENDBRANCH  16  18
ENDBRANCH  15  16
ENDBRANCH   7  15
TORSDOF 4
ENDMDL
