MODEL 1
REMARK VINA RESULT:      -7.0      0.000      0.000
REMARK  1 active torsions:
REMARK  status: ('A' for Active; 'I' for Inactive)
REMARK    1  A    between atoms: O_19  and  C_15 
ROOT
HETATM    1  C   UNK N   1      31.587  16.996   6.965  0.00  0.00     0.024 C 
HETATM    2  C   UNK N   1      30.186  17.249   6.811  0.00  0.00    -0.004 A 
HETATM    3  C   UNK N   1      32.417  17.395   5.777  0.00  0.00     0.035 C 
HETATM    4  C   UNK N   1      29.658  17.550   8.011  0.00  0.00     0.110 A 
HETATM    5  C   UNK N   1      31.841  17.846   8.205  0.00  0.00     0.142 C 
HETATM    6  O   UNK N   1      30.649  17.692   8.929  0.00  0.00    -0.341 OA
HETATM    7  C   UNK N   1      31.829  16.563   4.584  0.00  0.00     0.232 C 
HETATM    8  C   UNK N   1      29.490  17.136   5.634  0.00  0.00    -0.046 A 
HETATM    9  C   UNK N   1      33.886  17.117   6.195  0.00  0.00     0.008 C 
HETATM   10  C   UNK N   1      30.286  16.891   4.353  0.00  0.00     0.075 C 
HETATM   11  N   UNK N   1      32.039  15.116   4.838  0.00  0.00     0.089 N 
HETATM   12  C   UNK N   1      31.737  15.475   7.255  0.00  0.00     0.048 C 
HETATM   13  C   UNK N   1      34.248  17.740   7.591  0.00  0.00     0.003 C 
HETATM   14  C   UNK N   1      33.218  17.472   8.741  0.00  0.00     0.034 C 
HETATM   15  C   UNK N   1      28.278  17.706   8.135  0.00  0.00     0.099 A 
HETATM   16  C   UNK N   1      31.338  14.648   6.035  0.00  0.00     0.273 C 
HETATM   17  C   UNK N   1      28.097  17.319   5.700  0.00  0.00     0.011 A 
HETATM   18  C   UNK N   1      27.485  17.580   6.962  0.00  0.00     0.040 A 
HETATM   19  C   UNK N   1      31.556  14.325   3.712  0.00  0.00     0.310 C 
ENDROOT
BRANCH  15  20
HETATM   20  O   UNK N   1      27.713  17.982   9.322  0.00  0.00    -0.358 OA
HETATM   21  H   UNK N   1      28.189  18.302  10.063  0.00  0.00     0.217 HD
ENDBRANCH  15  20
TORSDOF 1
ENDMDL
MODEL 2
REMARK VINA RESULT:      -6.8      8.058      9.830
REMARK  1 active torsions:
REMARK  status: ('A' for Active; 'I' for Inactive)
REMARK    1  A    between atoms: O_19  and  C_15 
ROOT
HETATM    1  C   UNK N   1      22.017  13.430   8.804  0.00  0.00     0.024 C 
HETATM    2  C   UNK N   1      21.725  14.560   7.976  0.00  0.00    -0.004 A 
HETATM    3  C   UNK N   1      23.444  13.363   9.271  0.00  0.00     0.035 C 
HETATM    4  C   UNK N   1      20.452  14.944   8.186  0.00  0.00     0.110 A 
HETATM    5  C   UNK N   1      21.017  13.699   9.925  0.00  0.00     0.142 C 
HETATM    6  O   UNK N   1      19.931  14.256   9.234  0.00  0.00    -0.341 OA
HETATM    7  C   UNK N   1      24.292  13.319   7.951  0.00  0.00     0.232 C 
HETATM    8  C   UNK N   1      22.591  15.115   7.068  0.00  0.00    -0.046 A 
HETATM    9  C   UNK N   1      23.509  12.129  10.210  0.00  0.00     0.008 C 
HETATM   10  C   UNK N   1      24.032  14.609   7.052  0.00  0.00     0.075 C 
HETATM   11  N   UNK N   1      23.983  12.074   7.205  0.00  0.00     0.089 N 
HETATM   12  C   UNK N   1      21.647  12.164   7.981  0.00  0.00     0.048 C 
HETATM   13  C   UNK N   1      22.376  12.136  11.299  0.00  0.00     0.003 C 
HETATM   14  C   UNK N   1      20.931  12.437  10.774  0.00  0.00     0.034 C 
HETATM   15  C   UNK N   1      19.897  15.946   7.392  0.00  0.00     0.099 A 
HETATM   16  C   UNK N   1      22.582  12.003   6.784  0.00  0.00     0.273 C 
HETATM   17  C   UNK N   1      22.087  16.155   6.264  0.00  0.00     0.011 A 
HETATM   18  C   UNK N   1      20.726  16.555   6.410  0.00  0.00     0.040 A 
HETATM   19  C   UNK N   1      24.805  11.980   6.006  0.00  0.00     0.310 C 
ENDROOT
BRANCH  15  20
HETATM   20  O   UNK N   1      18.623  16.337   7.556  0.00  0.00    -0.358 OA
HETATM   21  H   UNK N   1      18.049  16.551   6.847  0.00  0.00     0.217 HD
ENDBRANCH  15  20
TORSDOF 1
ENDMDL
MODEL 3
REMARK VINA RESULT:      -6.8      2.187      4.388
REMARK  1 active torsions:
REMARK  status: ('A' for Active; 'I' for Inactive)
REMARK    1  A    between atoms: O_19  and  C_15 
ROOT
HETATM    1  C   UNK N   1      30.727  17.194   7.085  0.00  0.00     0.024 C 
HETATM    2  C   UNK N   1      31.445  17.264   5.849  0.00  0.00    -0.004 A 
HETATM    3  C   UNK N   1      31.276  18.082   8.165  0.00  0.00     0.035 C 
HETATM    4  C   UNK N   1      30.588  17.070   4.829  0.00  0.00     0.110 A 
HETATM    5  C   UNK N   1      29.352  17.621   6.579  0.00  0.00     0.142 C 
HETATM    6  O   UNK N   1      29.312  17.057   5.296  0.00  0.00    -0.341 OA
HETATM    7  C   UNK N   1      32.759  17.604   8.356  0.00  0.00     0.232 C 
HETATM    8  C   UNK N   1      32.801  17.435   5.735  0.00  0.00    -0.046 A 
HETATM    9  C   UNK N   1      30.306  17.914   9.365  0.00  0.00     0.008 C 
HETATM   10  C   UNK N   1      33.592  17.747   7.004  0.00  0.00     0.075 C 
HETATM   11  N   UNK N   1      32.770  16.206   8.848  0.00  0.00     0.089 N 
HETATM   12  C   UNK N   1      30.750  15.705   7.533  0.00  0.00     0.048 C 
HETATM   13  C   UNK N   1      28.800  18.095   8.957  0.00  0.00     0.003 C 
HETATM   14  C   UNK N   1      28.344  17.311   7.679  0.00  0.00     0.034 C 
HETATM   15  C   UNK N   1      31.079  16.962   3.529  0.00  0.00     0.099 A 
HETATM   16  C   UNK N   1      32.167  15.270   7.897  0.00  0.00     0.273 C 
HETATM   17  C   UNK N   1      33.343  17.368   4.438  0.00  0.00     0.011 A 
HETATM   18  C   UNK N   1      32.480  17.105   3.333  0.00  0.00     0.040 A 
HETATM   19  C   UNK N   1      34.137  15.761   9.093  0.00  0.00     0.310 C 
ENDROOT
BRANCH  15  20
HETATM   20  O   UNK N   1      30.257  16.745   2.490  0.00  0.00    -0.358 OA
HETATM   21  H   UNK N   1      30.545  16.692   1.601  0.00  0.00     0.217 HD
ENDBRANCH  15  20
TORSDOF 1
ENDMDL
MODEL 4
REMARK VINA RESULT:      -6.8     10.656     12.638
REMARK  1 active torsions:
REMARK  status: ('A' for Active; 'I' for Inactive)
REMARK    1  A    between atoms: O_19  and  C_15 
ROOT
HETATM    1  C   UNK N   1      35.346  11.168  15.550  0.00  0.00     0.024 C 
HETATM    2  C   UNK N   1      35.257  11.516  16.936  0.00  0.00    -0.004 A 
HETATM    3  C   UNK N   1      34.650   9.884  15.193  0.00  0.00     0.035 C 
HETATM    4  C   UNK N   1      35.230  12.856  17.053  0.00  0.00     0.110 A 
HETATM    5  C   UNK N   1      34.685  12.409  14.957  0.00  0.00     0.142 C 
HETATM    6  O   UNK N   1      35.112  13.424  15.825  0.00  0.00    -0.341 OA
HETATM    7  C   UNK N   1      35.345   8.796  16.085  0.00  0.00     0.232 C 
HETATM    8  C   UNK N   1      35.266  10.619  17.974  0.00  0.00    -0.046 A 
HETATM    9  C   UNK N   1      34.798   9.754  13.653  0.00  0.00     0.008 C 
HETATM   10  C   UNK N   1      35.189   9.132  17.636  0.00  0.00     0.075 C 
HETATM   11  N   UNK N   1      36.773   8.678  15.702  0.00  0.00     0.089 N 
HETATM   12  C   UNK N   1      36.860  11.088  15.204  0.00  0.00     0.048 C 
HETATM   13  C   UNK N   1      34.371  11.061  12.892  0.00  0.00     0.003 C 
HETATM   14  C   UNK N   1      34.958  12.399  13.458  0.00  0.00     0.034 C 
HETATM   15  C   UNK N   1      35.280  13.436  18.320  0.00  0.00     0.099 A 
HETATM   16  C   UNK N   1      37.520   9.917  15.928  0.00  0.00     0.273 C 
HETATM   17  C   UNK N   1      35.281  11.155  19.275  0.00  0.00     0.011 A 
HETATM   18  C   UNK N   1      35.314  12.571  19.448  0.00  0.00     0.040 A 
HETATM   19  C   UNK N   1      37.424   7.628  16.475  0.00  0.00     0.310 C 
ENDROOT
BRANCH  15  20
HETATM   20  O   UNK N   1      35.280  14.770  18.475  0.00  0.00    -0.358 OA
HETATM   21  H   UNK N   1      34.503  15.293  18.481  0.00  0.00     0.217 HD
ENDBRANCH  15  20
TORSDOF 1
ENDMDL
MODEL 5
REMARK VINA RESULT:      -6.6     12.446     14.339
REMARK  1 active torsions:
REMARK  status: ('A' for Active; 'I' for Inactive)
REMARK    1  A    between atoms: O_19  and  C_15 
ROOT
HETATM    1  C   UNK N   1      28.005  23.940  -5.220  0.00  0.00     0.024 C 
HETATM    2  C   UNK N   1      28.969  23.029  -4.681  0.00  0.00    -0.004 A 
HETATM    3  C   UNK N   1      27.094  23.332  -6.249  0.00  0.00     0.035 C 
HETATM    4  C   UNK N   1      29.217  23.357  -3.399  0.00  0.00     0.110 A 
HETATM    5  C   UNK N   1      27.297  24.323  -3.924  0.00  0.00     0.142 C 
HETATM    6  O   UNK N   1      28.346  24.317  -2.993  0.00  0.00    -0.341 OA
HETATM    7  C   UNK N   1      28.058  22.811  -7.374  0.00  0.00     0.232 C 
HETATM    8  C   UNK N   1      29.585  22.027  -5.386  0.00  0.00    -0.046 A 
HETATM    9  C   UNK N   1      26.093  24.457  -6.624  0.00  0.00     0.008 C 
HETATM   10  C   UNK N   1      29.090  21.739  -6.801  0.00  0.00     0.075 C 
HETATM   11  N   UNK N   1      28.764  23.960  -7.992  0.00  0.00     0.089 N 
HETATM   12  C   UNK N   1      28.803  25.130  -5.826  0.00  0.00     0.048 C 
HETATM   13  C   UNK N   1      25.437  25.129  -5.364  0.00  0.00     0.003 C 
HETATM   14  C   UNK N   1      26.427  25.539  -4.220  0.00  0.00     0.034 C 
HETATM   15  C   UNK N   1      30.224  22.692  -2.702  0.00  0.00     0.099 A 
HETATM   16  C   UNK N   1      29.613  24.678  -7.039  0.00  0.00     0.273 C 
HETATM   17  C   UNK N   1      30.587  21.302  -4.714  0.00  0.00     0.011 A 
HETATM   18  C   UNK N   1      30.925  21.654  -3.374  0.00  0.00     0.040 A 
HETATM   19  C   UNK N   1      29.619  23.506  -9.083  0.00  0.00     0.310 C 
ENDROOT
BRANCH  15  20
HETATM   20  O   UNK N   1      30.516  23.010  -1.430  0.00  0.00    -0.358 OA
HETATM   21  H   UNK N   1      30.782  23.864  -1.156  0.00  0.00     0.217 HD
ENDBRANCH  15  20
TORSDOF 1
ENDMDL
MODEL 6
REMARK VINA RESULT:      -6.5      1.117      1.257
REMARK  1 active torsions:
REMARK  status: ('A' for Active; 'I' for Inactive)
REMARK    1  A    between atoms: O_19  and  C_15 
ROOT
HETATM    1  C   UNK N   1      31.994  16.826   6.785  0.00  0.00     0.024 C 
HETATM    2  C   UNK N   1      30.712  17.160   6.242  0.00  0.00    -0.004 A 
HETATM    3  C   UNK N   1      33.139  17.568   6.156  0.00  0.00     0.035 C 
HETATM    4  C   UNK N   1      29.784  17.065   7.212  0.00  0.00     0.110 A 
HETATM    5  C   UNK N   1      31.738  17.213   8.239  0.00  0.00     0.142 C 
HETATM    6  O   UNK N   1      30.390  16.866   8.412  0.00  0.00    -0.341 OA
HETATM    7  C   UNK N   1      33.065  17.193   4.633  0.00  0.00     0.232 C 
HETATM    8  C   UNK N   1      30.469  17.462   4.927  0.00  0.00    -0.046 A 
HETATM    9  C   UNK N   1      34.399  17.121   6.946  0.00  0.00     0.008 C 
HETATM   10  C   UNK N   1      31.670  17.628   3.997  0.00  0.00     0.075 C 
HETATM   11  N   UNK N   1      33.301  15.739   4.468  0.00  0.00     0.089 N 
HETATM   12  C   UNK N   1      32.169  15.291   6.609  0.00  0.00     0.048 C 
HETATM   13  C   UNK N   1      34.210  17.238   8.502  0.00  0.00     0.003 C 
HETATM   14  C   UNK N   1      32.879  16.640   9.071  0.00  0.00     0.034 C 
HETATM   15  C   UNK N   1      28.436  17.215   6.891  0.00  0.00     0.099 A 
HETATM   16  C   UNK N   1      32.280  14.924   5.130  0.00  0.00     0.273 C 
HETATM   17  C   UNK N   1      29.125  17.657   4.558  0.00  0.00     0.011 A 
HETATM   18  C   UNK N   1      28.102  17.508   5.540  0.00  0.00     0.040 A 
HETATM   19  C   UNK N   1      33.300  15.378   3.056  0.00  0.00     0.310 C 
ENDROOT
BRANCH  15  20
HETATM   20  O   UNK N   1      27.481  17.103   7.828  0.00  0.00    -0.358 OA
HETATM   21  H   UNK N   1      27.658  16.975   8.739  0.00  0.00     0.217 HD
ENDBRANCH  15  20
TORSDOF 1
ENDMDL
MODEL 7
REMARK VINA RESULT:      -6.5      2.297      3.887
REMARK  1 active torsions:
REMARK  status: ('A' for Active; 'I' for Inactive)
REMARK    1  A    between atoms: O_19  and  C_15 
ROOT
HETATM    1  C   UNK N   1      32.478  16.305   5.387  0.00  0.00     0.024 C 
HETATM    2  C   UNK N   1      31.219  16.771   5.882  0.00  0.00    -0.004 A 
HETATM    3  C   UNK N   1      33.009  15.094   6.101  0.00  0.00     0.035 C 
HETATM    4  C   UNK N   1      30.514  17.304   4.866  0.00  0.00     0.110 A 
HETATM    5  C   UNK N   1      32.073  16.036   3.940  0.00  0.00     0.142 C 
HETATM    6  O   UNK N   1      31.147  17.060   3.689  0.00  0.00    -0.341 OA
HETATM    7  C   UNK N   1      33.132  15.540   7.600  0.00  0.00     0.232 C 
HETATM    8  C   UNK N   1      30.828  16.736   7.197  0.00  0.00    -0.046 A 
HETATM    9  C   UNK N   1      34.316  14.719   5.352  0.00  0.00     0.008 C 
HETATM   10  C   UNK N   1      31.720  15.991   8.188  0.00  0.00     0.075 C 
HETATM   11  N   UNK N   1      34.133  16.628   7.714  0.00  0.00     0.089 N 
HETATM   12  C   UNK N   1      33.473  17.494   5.505  0.00  0.00     0.048 C 
HETATM   13  C   UNK N   1      34.119  14.630   3.796  0.00  0.00     0.003 C 
HETATM   14  C   UNK N   1      33.353  15.829   3.139  0.00  0.00     0.034 C 
HETATM   15  C   UNK N   1      29.305  17.945   5.129  0.00  0.00     0.099 A 
HETATM   16  C   UNK N   1      33.746  17.829   6.970  0.00  0.00     0.273 C 
HETATM   17  C   UNK N   1      29.597  17.341   7.509  0.00  0.00     0.011 A 
HETATM   18  C   UNK N   1      28.844  17.971   6.474  0.00  0.00     0.040 A 
HETATM   19  C   UNK N   1      34.310  17.016   9.108  0.00  0.00     0.310 C 
ENDROOT
BRANCH  15  20
HETATM   20  O   UNK N   1      28.588  18.509   4.144  0.00  0.00    -0.358 OA
HETATM   21  H   UNK N   1      27.653  18.474   4.096  0.00  0.00     0.217 HD
ENDBRANCH  15  20
TORSDOF 1
ENDMDL
MODEL 8
REMARK VINA RESULT:      -6.5     13.728     15.479
REMARK  1 active torsions:
REMARK  status: ('A' for Active; 'I' for Inactive)
REMARK    1  A    between atoms: O_19  and  C_15 
ROOT
HETATM    1  C   UNK N   1      27.013  25.290  -5.425  0.00  0.00     0.024 C 
HETATM    2  C   UNK N   1      27.022  24.136  -6.272  0.00  0.00    -0.004 A 
HETATM    3  C   UNK N   1      28.372  25.879  -5.176  0.00  0.00     0.035 C 
HETATM    4  C   UNK N   1      25.884  24.106  -6.990  0.00  0.00     0.110 A 
HETATM    5  C   UNK N   1      26.101  26.183  -6.261  0.00  0.00     0.142 C 
HETATM    6  O   UNK N   1      25.196  25.263  -6.811  0.00  0.00    -0.341 OA
HETATM    7  C   UNK N   1      29.195  24.715  -4.519  0.00  0.00     0.232 C 
HETATM    8  C   UNK N   1      28.009  23.182  -6.293  0.00  0.00    -0.046 A 
HETATM    9  C   UNK N   1      28.116  27.150  -4.321  0.00  0.00     0.008 C 
HETATM   10  C   UNK N   1      29.277  23.449  -5.484  0.00  0.00     0.075 C 
HETATM   11  N   UNK N   1      28.592  24.357  -3.213  0.00  0.00     0.089 N 
HETATM   12  C   UNK N   1      26.346  24.859  -4.088  0.00  0.00     0.048 C 
HETATM   13  C   UNK N   1      27.010  28.081  -4.937  0.00  0.00     0.003 C 
HETATM   14  C   UNK N   1      25.692  27.363  -5.388  0.00  0.00     0.034 C 
HETATM   15  C   UNK N   1      25.606  23.000  -7.792  0.00  0.00     0.099 A 
HETATM   16  C   UNK N   1      27.223  23.854  -3.344  0.00  0.00     0.273 C 
HETATM   17  C   UNK N   1      27.791  22.061  -7.113  0.00  0.00     0.011 A 
HETATM   18  C   UNK N   1      26.572  21.958  -7.847  0.00  0.00     0.040 A 
HETATM   19  C   UNK N   1      29.377  23.320  -2.555  0.00  0.00     0.310 C 
ENDROOT
BRANCH  15  20
HETATM   20  O   UNK N   1      24.469  22.924  -8.502  0.00  0.00    -0.358 OA
HETATM   21  H   UNK N   1      24.430  22.629  -9.390  0.00  0.00     0.217 HD
ENDBRANCH  15  20
TORSDOF 1
ENDMDL
MODEL 9
REMARK VINA RESULT:      -6.4      9.091     11.198
REMARK  1 active torsions:
REMARK  status: ('A' for Active; 'I' for Inactive)
REMARK    1  A    between atoms: O_19  and  C_15 
ROOT
HETATM    1  C   UNK N   1      35.847  11.814  14.954  0.00  0.00     0.024 C 
HETATM    2  C   UNK N   1      36.524  12.156  13.740  0.00  0.00    -0.004 A 
HETATM    3  C   UNK N   1      36.623  10.890  15.850  0.00  0.00     0.035 C 
HETATM    4  C   UNK N   1      36.181  13.407  13.381  0.00  0.00     0.110 A 
HETATM    5  C   UNK N   1      35.672  13.218  15.525  0.00  0.00     0.142 C 
HETATM    6  O   UNK N   1      35.459  13.990  14.373  0.00  0.00    -0.341 OA
HETATM    7  C   UNK N   1      36.877   9.611  14.976  0.00  0.00     0.232 C 
HETATM    8  C   UNK N   1      37.338  11.313  13.028  0.00  0.00    -0.046 A 
HETATM    9  C   UNK N   1      35.750  10.729  17.124  0.00  0.00     0.008 C 
HETATM   10  C   UNK N   1      37.696   9.967  13.655  0.00  0.00     0.075 C 
HETATM   11  N   UNK N   1      35.581   8.969  14.648  0.00  0.00     0.089 N 
HETATM   12  C   UNK N   1      34.490  11.174  14.545  0.00  0.00     0.048 C 
HETATM   13  C   UNK N   1      35.281  12.107  17.715  0.00  0.00     0.003 C 
HETATM   14  C   UNK N   1      34.683  13.122  16.681  0.00  0.00     0.034 C 
HETATM   15  C   UNK N   1      36.612  13.914  12.156  0.00  0.00     0.099 A 
HETATM   16  C   UNK N   1      34.711   9.834  13.848  0.00  0.00     0.273 C 
HETATM   17  C   UNK N   1      37.828  11.791  11.799  0.00  0.00     0.011 A 
HETATM   18  C   UNK N   1      37.443  13.088  11.349  0.00  0.00     0.040 A 
HETATM   19  C   UNK N   1      35.796   7.744  13.889  0.00  0.00     0.310 C 
ENDROOT
BRANCH  15  20
HETATM   20  O   UNK N   1      36.269  15.148  11.754  0.00  0.00    -0.358 OA
HETATM   21  H   UNK N   1      36.702  15.609  11.062  0.00  0.00     0.217 HD
ENDBRANCH  15  20
TORSDOF 1
ENDMDL
