MODEL 1
REMARK VINA RESULT:      -6.8      0.000      0.000
REMARK  6 active torsions:
REMARK  status: ('A' for Active; 'I' for Inactive)
REMARK    1  A    between atoms: O_1  and  C_4 
REMARK    2  A    between atoms: O_1  and  C_14 
REMARK    3  A    between atoms: N_3  and  C_10 
REMARK    4  A    between atoms: C_4  and  C_9 
REMARK    5  A    between atoms: C_10  and  C_11 
REMARK    6  A    between atoms: C_11  and  C_15 
ROOT
HETATM    1  N   UNK N   1      28.746  24.217  -3.723  0.00  0.00    -0.412 N 
HETATM    2  C   UNK N   1      26.534  25.265  -5.383  0.00  0.00     0.101 C 
HETATM    3  C   UNK N   1      27.828  24.699  -5.992  0.00  0.00     0.063 C 
HETATM    4  C   UNK N   1      26.274  24.470  -4.099  0.00  0.00     0.063 C 
HETATM    5  C   UNK N   1      29.017  24.806  -5.040  0.00  0.00     0.120 C 
HETATM    6  C   UNK N   1      27.445  24.522  -3.107  0.00  0.00     0.120 C 
ENDROOT
BRANCH   2   7
HETATM    7  O   UNK N   1      25.465  24.998  -6.237  0.00  0.00    -0.305 OA
BRANCH   7   8
HETATM    8  C   UNK N   1      25.550  24.657  -7.555  0.00  0.00     0.255 C 
HETATM    9  O   UNK N   1      25.328  23.514  -7.927  0.00  0.00    -0.266 OA
HETATM   10  C   UNK N   1      25.927  25.691  -8.557  0.00  0.00     0.126 C 
ENDBRANCH   7   8
ENDBRANCH   2   7
BRANCH   2  11
HETATM   11  C   UNK N   1      26.619  26.775  -5.083  0.00  0.00    -0.023 A 
HETATM   12  C   UNK N   1      27.384  27.629  -5.899  0.00  0.00     0.010 A 
HETATM   13  C   UNK N   1      27.446  29.001  -5.639  0.00  0.00     0.001 A 
HETATM   14  C   UNK N   1      26.737  29.544  -4.565  0.00  0.00     0.000 A 
HETATM   15  C   UNK N   1      25.970  28.713  -3.749  0.00  0.00     0.001 A 
HETATM   16  C   UNK N   1      25.912  27.341  -4.006  0.00  0.00     0.010 A 
ENDBRANCH   2  11
BRANCH   1  17
HETATM   17  C   UNK N   1      29.196  22.832  -3.600  0.00  0.00     0.121 C 
BRANCH  17  18
HETATM   18  C   UNK N   1      30.372  22.646  -2.649  0.00  0.00     0.058 C 
BRANCH  18  19
HETATM   19  C   UNK N   1      31.338  21.672  -3.240  0.00  0.00    -0.057 A 
HETATM   20  C   UNK N   1      32.647  21.574  -2.743  0.00  0.00     0.007 A 
HETATM   21  C   UNK N   1      33.550  20.673  -3.316  0.00  0.00     0.001 A 
HETATM   22  C   UNK N   1      33.148  19.863  -4.381  0.00  0.00     0.000 A 
HETATM   23  C   UNK N   1      31.842  19.952  -4.872  0.00  0.00     0.001 A 
HETATM   24  C   UNK N   1      30.939  20.858  -4.305  0.00  0.00     0.007 A 
ENDBRANCH  18  19
ENDBRANCH  17  18
ENDBRANCH   1  17
TORSDOF 6
ENDMDL
MODEL 2
REMARK VINA RESULT:      -6.6     11.499     15.737
REMARK  6 active torsions:
REMARK  status: ('A' for Active; 'I' for Inactive)
REMARK    1  A    between atoms: O_1  and  C_4 
REMARK    2  A    between atoms: O_1  and  C_14 
REMARK    3  A    between atoms: N_3  and  C_10 
REMARK    4  A    between atoms: C_4  and  C_9 
REMARK    5  A    between atoms: C_10  and  C_11 
REMARK    6  A    between atoms: C_11  and  C_15 
ROOT
HETATM    1  N   UNK N   1      30.999  16.526   5.124  0.00  0.00    -0.412 N 
HETATM    2  C   UNK N   1      33.689  16.890   6.298  0.00  0.00     0.101 C 
HETATM    3  C   UNK N   1      33.332  17.376   4.883  0.00  0.00     0.063 C 
HETATM    4  C   UNK N   1      32.415  17.027   7.139  0.00  0.00     0.063 C 
HETATM    5  C   UNK N   1      32.186  16.579   4.264  0.00  0.00     0.120 C 
HETATM    6  C   UNK N   1      31.219  16.262   6.555  0.00  0.00     0.120 C 
ENDROOT
BRANCH   2   7
HETATM    7  O   UNK N   1      34.629  17.752   6.860  0.00  0.00    -0.305 OA
BRANCH   7   8
HETATM    8  C   UNK N   1      34.664  18.176   8.155  0.00  0.00     0.255 C 
HETATM    9  O   UNK N   1      34.710  19.367   8.429  0.00  0.00    -0.266 OA
HETATM   10  C   UNK N   1      34.653  17.173   9.256  0.00  0.00     0.126 C 
ENDBRANCH   7   8
ENDBRANCH   2   7
BRANCH   2  11
HETATM   11  C   UNK N   1      34.207  15.438   6.324  0.00  0.00    -0.023 A 
HETATM   12  C   UNK N   1      35.282  15.042   5.506  0.00  0.00     0.010 A 
HETATM   13  C   UNK N   1      35.765  13.731   5.544  0.00  0.00     0.001 A 
HETATM   14  C   UNK N   1      35.187  12.796   6.405  0.00  0.00     0.000 A 
HETATM   15  C   UNK N   1      34.124  13.171   7.225  0.00  0.00     0.001 A 
HETATM   16  C   UNK N   1      33.639  14.480   7.185  0.00  0.00     0.010 A 
ENDBRANCH   2  11
BRANCH   1  17
HETATM   17  C   UNK N   1      30.008  17.557   4.815  0.00  0.00     0.121 C 
BRANCH  17  18
HETATM   18  C   UNK N   1      28.737  17.462   5.650  0.00  0.00     0.058 C 
BRANCH  18  19
HETATM   19  C   UNK N   1      28.028  18.776   5.623  0.00  0.00    -0.057 A 
HETATM   20  C   UNK N   1      27.549  19.305   4.415  0.00  0.00     0.007 A 
HETATM   21  C   UNK N   1      26.903  20.545   4.398  0.00  0.00     0.001 A 
HETATM   22  C   UNK N   1      26.727  21.257   5.587  0.00  0.00     0.000 A 
HETATM   23  C   UNK N   1      27.195  20.728   6.794  0.00  0.00     0.001 A 
HETATM   24  C   UNK N   1      27.847  19.491   6.812  0.00  0.00     0.007 A 
ENDBRANCH  18  19
ENDBRANCH  17  18
ENDBRANCH   1  17
TORSDOF 6
ENDMDL
MODEL 3
REMARK VINA RESULT:      -6.6     14.509     15.819
REMARK  6 active torsions:
REMARK  status: ('A' for Active; 'I' for Inactive)
REMARK    1  A    between atoms: O_1  and  C_4 
REMARK    2  A    between atoms: O_1  and  C_14 
REMARK    3  A    between atoms: N_3  and  C_10 
REMARK    4  A    between atoms: C_4  and  C_9 
REMARK    5  A    between atoms: C_10  and  C_11 
REMARK    6  A    between atoms: C_11  and  C_15 
ROOT
HETATM    1  N   UNK N   1      20.458  15.700   6.472  0.00  0.00    -0.412 N 
HETATM    2  C   UNK N   1      21.585  16.062   3.762  0.00  0.00     0.101 C 
HETATM    3  C   UNK N   1      22.469  15.936   5.014  0.00  0.00     0.063 C 
HETATM    4  C   UNK N   1      20.348  15.191   4.014  0.00  0.00     0.063 C 
HETATM    5  C   UNK N   1      21.746  16.377   6.285  0.00  0.00     0.120 C 
HETATM    6  C   UNK N   1      19.589  15.574   5.292  0.00  0.00     0.120 C 
ENDROOT
BRANCH   2   7
HETATM    7  O   UNK N   1      22.247  15.502   2.670  0.00  0.00    -0.305 OA
BRANCH   7   8
HETATM    8  C   UNK N   1      21.664  14.936   1.575  0.00  0.00     0.255 C 
HETATM    9  O   UNK N   1      21.128  15.625   0.718  0.00  0.00    -0.266 OA
HETATM   10  C   UNK N   1      21.671  13.455   1.423  0.00  0.00     0.126 C 
ENDBRANCH   7   8
ENDBRANCH   2   7
BRANCH   2  11
HETATM   11  C   UNK N   1      21.176  17.516   3.456  0.00  0.00    -0.023 A 
HETATM   12  C   UNK N   1      22.116  18.561   3.539  0.00  0.00     0.010 A 
HETATM   13  C   UNK N   1      21.751  19.877   3.242  0.00  0.00     0.001 A 
HETATM   14  C   UNK N   1      20.443  20.170   2.849  0.00  0.00     0.000 A 
HETATM   15  C   UNK N   1      19.500  19.147   2.757  0.00  0.00     0.001 A 
HETATM   16  C   UNK N   1      19.864  17.832   3.058  0.00  0.00     0.010 A 
ENDBRANCH   2  11
BRANCH   1  17
HETATM   17  C   UNK N   1      20.540  14.516   7.327  0.00  0.00     0.121 C 
BRANCH  17  18
HETATM   18  C   UNK N   1      20.384  14.815   8.813  0.00  0.00     0.058 C 
BRANCH  18  19
HETATM   19  C   UNK N   1      21.190  13.836   9.602  0.00  0.00    -0.057 A 
HETATM   20  C   UNK N   1      22.568  13.697   9.375  0.00  0.00     0.007 A 
HETATM   21  C   UNK N   1      23.309  12.763  10.107  0.00  0.00     0.001 A 
HETATM   22  C   UNK N   1      22.679  11.971  11.070  0.00  0.00     0.000 A 
HETATM   23  C   UNK N   1      21.308  12.114  11.305  0.00  0.00     0.001 A 
HETATM   24  C   UNK N   1      20.563  13.043  10.570  0.00  0.00     0.007 A 
ENDBRANCH  18  19
ENDBRANCH  17  18
ENDBRANCH   1  17
TORSDOF 6
ENDMDL
MODEL 4
REMARK VINA RESULT:      -6.6      2.142      7.089
REMARK  6 active torsions:
REMARK  status: ('A' for Active; 'I' for Inactive)
REMARK    1  A    between atoms: O_1  and  C_4 
REMARK    2  A    between atoms: O_1  and  C_14 
REMARK    3  A    between atoms: N_3  and  C_10 
REMARK    4  A    between atoms: C_4  and  C_9 
REMARK    5  A    between atoms: C_10  and  C_11 
REMARK    6  A    between atoms: C_11  and  C_15 
ROOT
HETATM    1  N   UNK N   1      26.385  24.085  -4.933  0.00  0.00    -0.412 N 
HETATM    2  C   UNK N   1      29.290  24.625  -5.061  0.00  0.00     0.101 C 
HETATM    3  C   UNK N   1      28.406  24.552  -6.318  0.00  0.00     0.063 C 
HETATM    4  C   UNK N   1      28.409  25.198  -3.944  0.00  0.00     0.063 C 
HETATM    5  C   UNK N   1      27.166  23.687  -6.109  0.00  0.00     0.120 C 
HETATM    6  C   UNK N   1      27.133  24.381  -3.700  0.00  0.00     0.120 C 
ENDROOT
BRANCH   2   7
HETATM    7  O   UNK N   1      30.315  25.546  -5.269  0.00  0.00    -0.305 OA
BRANCH   7   8
HETATM    8  C   UNK N   1      31.510  25.301  -5.877  0.00  0.00     0.255 C 
HETATM    9  O   UNK N   1      31.581  25.129  -7.086  0.00  0.00    -0.266 OA
HETATM   10  C   UNK N   1      32.751  25.233  -5.056  0.00  0.00     0.126 C 
ENDBRANCH   7   8
ENDBRANCH   2   7
BRANCH   2  11
HETATM   11  C   UNK N   1      29.871  23.258  -4.651  0.00  0.00    -0.023 A 
HETATM   12  C   UNK N   1      30.307  23.026  -3.333  0.00  0.00     0.010 A 
HETATM   13  C   UNK N   1      30.815  21.780  -2.955  0.00  0.00     0.001 A 
HETATM   14  C   UNK N   1      30.889  20.742  -3.887  0.00  0.00     0.000 A 
HETATM   15  C   UNK N   1      30.457  20.951  -5.196  0.00  0.00     0.001 A 
HETATM   16  C   UNK N   1      29.953  22.198  -5.574  0.00  0.00     0.010 A 
ENDBRANCH   2  11
BRANCH   1  17
HETATM   17  C   UNK N   1      25.288  25.000  -5.243  0.00  0.00     0.121 C 
BRANCH  17  18
HETATM   18  C   UNK N   1      25.605  25.992  -6.354  0.00  0.00     0.058 C 
BRANCH  18  19
HETATM   19  C   UNK N   1      26.103  27.266  -5.755  0.00  0.00    -0.057 A 
HETATM   20  C   UNK N   1      25.549  27.759  -4.563  0.00  0.00     0.007 A 
HETATM   21  C   UNK N   1      26.009  28.964  -4.021  0.00  0.00     0.001 A 
HETATM   22  C   UNK N   1      27.026  29.675  -4.662  0.00  0.00     0.000 A 
HETATM   23  C   UNK N   1      27.586  29.182  -5.845  0.00  0.00     0.001 A 
HETATM   24  C   UNK N   1      27.123  27.981  -6.392  0.00  0.00     0.007 A 
ENDBRANCH  18  19
ENDBRANCH  17  18
ENDBRANCH   1  17
TORSDOF 6
ENDMDL
MODEL 5
REMARK VINA RESULT:      -6.6      1.757      2.661
REMARK  6 active torsions:
REMARK  status: ('A' for Active; 'I' for Inactive)
REMARK    1  A    between atoms: O_1  and  C_4 
REMARK    2  A    between atoms: O_1  and  C_14 
REMARK    3  A    between atoms: N_3  and  C_10 
REMARK    4  A    between atoms: C_4  and  C_9 
REMARK    5  A    between atoms: C_10  and  C_11 
REMARK    6  A    between atoms: C_11  and  C_15 
ROOT
HETATM    1  N   UNK N   1      28.776  24.267  -4.293  0.00  0.00    -0.412 N 
HETATM    2  C   UNK N   1      26.525  25.436  -5.814  0.00  0.00     0.101 C 
HETATM    3  C   UNK N   1      27.828  24.976  -6.489  0.00  0.00     0.063 C 
HETATM    4  C   UNK N   1      26.295  24.495  -4.626  0.00  0.00     0.063 C 
HETATM    5  C   UNK N   1      29.021  25.006  -5.536  0.00  0.00     0.120 C 
HETATM    6  C   UNK N   1      27.472  24.466  -3.640  0.00  0.00     0.120 C 
ENDROOT
BRANCH   2   7
HETATM    7  O   UNK N   1      25.457  25.239  -6.687  0.00  0.00    -0.305 OA
BRANCH   7   8
HETATM    8  C   UNK N   1      25.543  24.979  -8.023  0.00  0.00     0.255 C 
HETATM    9  O   UNK N   1      25.370  23.849  -8.459  0.00  0.00    -0.266 OA
HETATM   10  C   UNK N   1      25.862  26.085  -8.967  0.00  0.00     0.126 C 
ENDBRANCH   7   8
ENDBRANCH   2   7
BRANCH   2  11
HETATM   11  C   UNK N   1      26.573  26.904  -5.346  0.00  0.00    -0.023 A 
HETATM   12  C   UNK N   1      25.864  27.320  -4.204  0.00  0.00     0.010 A 
HETATM   13  C   UNK N   1      25.924  28.647  -3.767  0.00  0.00     0.001 A 
HETATM   14  C   UNK N   1      26.700  29.578  -4.461  0.00  0.00     0.000 A 
HETATM   15  C   UNK N   1      27.413  29.183  -5.592  0.00  0.00     0.001 A 
HETATM   16  C   UNK N   1      27.350  27.858  -6.030  0.00  0.00     0.010 A 
ENDBRANCH   2  11
BRANCH   1  17
HETATM   17  C   UNK N   1      29.262  22.888  -4.328  0.00  0.00     0.121 C 
BRANCH  17  18
HETATM   18  C   UNK N   1      30.349  22.642  -5.366  0.00  0.00     0.058 C 
BRANCH  18  19
HETATM   19  C   UNK N   1      29.918  21.547  -6.286  0.00  0.00    -0.057 A 
HETATM   20  C   UNK N   1      28.715  21.647  -7.001  0.00  0.00     0.007 A 
HETATM   21  C   UNK N   1      28.311  20.606  -7.845  0.00  0.00     0.001 A 
HETATM   22  C   UNK N   1      29.110  19.468  -7.982  0.00  0.00     0.000 A 
HETATM   23  C   UNK N   1      30.314  19.370  -7.277  0.00  0.00     0.001 A 
HETATM   24  C   UNK N   1      30.716  20.406  -6.428  0.00  0.00     0.007 A 
ENDBRANCH  18  19
ENDBRANCH  17  18
ENDBRANCH   1  17
TORSDOF 6
ENDMDL
MODEL 6
REMARK VINA RESULT:      -6.5      1.683      3.414
REMARK  6 active torsions:
REMARK  status: ('A' for Active; 'I' for Inactive)
REMARK    1  A    between atoms: O_1  and  C_4 
REMARK    2  A    between atoms: O_1  and  C_14 
REMARK    3  A    between atoms: N_3  and  C_10 
REMARK    4  A    between atoms: C_4  and  C_9 
REMARK    5  A    between atoms: C_10  and  C_11 
REMARK    6  A    between atoms: C_11  and  C_15 
ROOT
HETATM    1  N   UNK N   1      29.466  24.456  -4.194  0.00  0.00    -0.412 N 
HETATM    2  C   UNK N   1      27.180  26.326  -4.355  0.00  0.00     0.101 C 
HETATM    3  C   UNK N   1      27.076  24.951  -3.673  0.00  0.00     0.063 C 
HETATM    4  C   UNK N   1      28.613  26.819  -4.123  0.00  0.00     0.063 C 
HETATM    5  C   UNK N   1      28.089  23.949  -4.224  0.00  0.00     0.120 C 
HETATM    6  C   UNK N   1      29.679  25.843  -4.638  0.00  0.00     0.120 C 
ENDROOT
BRANCH   2   7
HETATM    7  O   UNK N   1      26.340  27.228  -3.704  0.00  0.00    -0.305 OA
BRANCH   7   8
HETATM    8  C   UNK N   1      26.667  28.489  -3.301  0.00  0.00     0.255 C 
HETATM    9  O   UNK N   1      27.130  28.697  -2.188  0.00  0.00    -0.266 OA
HETATM   10  C   UNK N   1      26.450  29.635  -4.227  0.00  0.00     0.126 C 
ENDBRANCH   7   8
ENDBRANCH   2   7
BRANCH   2  11
HETATM   11  C   UNK N   1      26.855  26.279  -5.861  0.00  0.00    -0.023 A 
HETATM   12  C   UNK N   1      27.539  27.107  -6.771  0.00  0.00     0.010 A 
HETATM   13  C   UNK N   1      27.259  27.050  -8.139  0.00  0.00     0.001 A 
HETATM   14  C   UNK N   1      26.298  26.160  -8.622  0.00  0.00     0.000 A 
HETATM   15  C   UNK N   1      25.614  25.329  -7.735  0.00  0.00     0.001 A 
HETATM   16  C   UNK N   1      25.890  25.388  -6.367  0.00  0.00     0.010 A 
ENDBRANCH   2  11
BRANCH   1  17
HETATM   17  C   UNK N   1      30.211  24.051  -3.003  0.00  0.00     0.121 C 
BRANCH  17  18
HETATM   18  C   UNK N   1      29.982  22.602  -2.593  0.00  0.00     0.058 C 
BRANCH  18  19
HETATM   19  C   UNK N   1      30.991  21.731  -3.268  0.00  0.00    -0.057 A 
HETATM   20  C   UNK N   1      30.631  20.948  -4.376  0.00  0.00     0.007 A 
HETATM   21  C   UNK N   1      31.579  20.121  -4.988  0.00  0.00     0.001 A 
HETATM   22  C   UNK N   1      32.887  20.078  -4.501  0.00  0.00     0.000 A 
HETATM   23  C   UNK N   1      33.250  20.863  -3.402  0.00  0.00     0.001 A 
HETATM   24  C   UNK N   1      32.303  21.686  -2.784  0.00  0.00     0.007 A 
ENDBRANCH  18  19
ENDBRANCH  17  18
ENDBRANCH   1  17
TORSDOF 6
ENDMDL
MODEL 7
REMARK VINA RESULT:      -6.5     18.265     22.070
REMARK  6 active torsions:
REMARK  status: ('A' for Active; 'I' for Inactive)
REMARK    1  A    between atoms: O_1  and  C_4 
REMARK    2  A    between atoms: O_1  and  C_14 
REMARK    3  A    between atoms: N_3  and  C_10 
REMARK    4  A    between atoms: C_4  and  C_9 
REMARK    5  A    between atoms: C_10  and  C_11 
REMARK    6  A    between atoms: C_11  and  C_15 
ROOT
HETATM    1  N   UNK N   1      36.253  11.865  12.792  0.00  0.00    -0.412 N 
HETATM    2  C   UNK N   1      36.072  13.934  10.687  0.00  0.00     0.101 C 
HETATM    3  C   UNK N   1      35.180  13.949  11.939  0.00  0.00     0.063 C 
HETATM    4  C   UNK N   1      37.416  13.335  11.118  0.00  0.00     0.063 C 
HETATM    5  C   UNK N   1      34.985  12.556  12.534  0.00  0.00     0.120 C 
HETATM    6  C   UNK N   1      37.283  11.939  11.743  0.00  0.00     0.120 C 
ENDROOT
BRANCH   2   7
HETATM    7  O   UNK N   1      36.332  15.244  10.289  0.00  0.00    -0.305 OA
BRANCH   7   8
HETATM    8  C   UNK N   1      35.422  16.255  10.190  0.00  0.00     0.255 C 
HETATM    9  O   UNK N   1      35.285  17.072  11.089  0.00  0.00    -0.266 OA
HETATM   10  C   UNK N   1      34.573  16.361   8.971  0.00  0.00     0.126 C 
ENDBRANCH   7   8
ENDBRANCH   2   7
BRANCH   2  11
HETATM   11  C   UNK N   1      35.464  13.129   9.522  0.00  0.00    -0.023 A 
HETATM   12  C   UNK N   1      36.262  12.712   8.440  0.00  0.00     0.010 A 
HETATM   13  C   UNK N   1      35.715  11.964   7.393  0.00  0.00     0.001 A 
HETATM   14  C   UNK N   1      34.363  11.615   7.414  0.00  0.00     0.000 A 
HETATM   15  C   UNK N   1      33.558  12.016   8.479  0.00  0.00     0.001 A 
HETATM   16  C   UNK N   1      34.103  12.766   9.523  0.00  0.00     0.010 A 
ENDBRANCH   2  11
BRANCH   1  17
HETATM   17  C   UNK N   1      36.734  12.020  14.164  0.00  0.00     0.121 C 
BRANCH  17  18
HETATM   18  C   UNK N   1      35.626  12.234  15.187  0.00  0.00     0.058 C 
BRANCH  18  19
HETATM   19  C   UNK N   1      35.963  13.409  16.045  0.00  0.00    -0.057 A 
HETATM   20  C   UNK N   1      35.323  13.599  17.279  0.00  0.00     0.007 A 
HETATM   21  C   UNK N   1      35.632  14.714  18.066  0.00  0.00     0.001 A 
HETATM   22  C   UNK N   1      36.585  15.636  17.627  0.00  0.00     0.000 A 
HETATM   23  C   UNK N   1      37.231  15.444  16.402  0.00  0.00     0.001 A 
HETATM   24  C   UNK N   1      36.919  14.334  15.610  0.00  0.00     0.007 A 
ENDBRANCH  18  19
ENDBRANCH  17  18
ENDBRANCH   1  17
TORSDOF 6
ENDMDL
MODEL 8
REMARK VINA RESULT:      -6.5     11.107     13.611
REMARK  6 active torsions:
REMARK  status: ('A' for Active; 'I' for Inactive)
REMARK    1  A    between atoms: O_1  and  C_4 
REMARK    2  A    between atoms: O_1  and  C_14 
REMARK    3  A    between atoms: N_3  and  C_10 
REMARK    4  A    between atoms: C_4  and  C_9 
REMARK    5  A    between atoms: C_10  and  C_11 
REMARK    6  A    between atoms: C_11  and  C_15 
ROOT
HETATM    1  N   UNK N   1      29.622  15.924   4.733  0.00  0.00    -0.412 N 
HETATM    2  C   UNK N   1      28.217  18.029   6.265  0.00  0.00     0.101 C 
HETATM    3  C   UNK N   1      28.036  16.530   6.561  0.00  0.00     0.063 C 
HETATM    4  C   UNK N   1      29.664  18.205   5.788  0.00  0.00     0.063 C 
HETATM    5  C   UNK N   1      28.314  15.656   5.340  0.00  0.00     0.120 C 
HETATM    6  C   UNK N   1      30.011  17.335   4.572  0.00  0.00     0.120 C 
ENDROOT
BRANCH   2   7
HETATM    7  O   UNK N   1      28.100  18.752   7.450  0.00  0.00    -0.305 OA
BRANCH   7   8
HETATM    8  C   UNK N   1      28.465  18.328   8.694  0.00  0.00     0.255 C 
HETATM    9  O   UNK N   1      27.681  17.720   9.409  0.00  0.00    -0.266 OA
HETATM   10  C   UNK N   1      29.837  18.617   9.194  0.00  0.00     0.126 C 
ENDBRANCH   7   8
ENDBRANCH   2   7
BRANCH   2  11
HETATM   11  C   UNK N   1      27.226  18.560   5.211  0.00  0.00    -0.023 A 
HETATM   12  C   UNK N   1      25.990  17.921   4.998  0.00  0.00     0.010 A 
HETATM   13  C   UNK N   1      25.082  18.413   4.056  0.00  0.00     0.001 A 
HETATM   14  C   UNK N   1      25.391  19.557   3.317  0.00  0.00     0.000 A 
HETATM   15  C   UNK N   1      26.608  20.205   3.517  0.00  0.00     0.001 A 
HETATM   16  C   UNK N   1      27.518  19.711   4.455  0.00  0.00     0.010 A 
ENDBRANCH   2  11
BRANCH   1  17
HETATM   17  C   UNK N   1      30.678  15.027   5.202  0.00  0.00     0.121 C 
BRANCH  17  18
HETATM   18  C   UNK N   1      32.087  15.566   4.991  0.00  0.00     0.058 C 
BRANCH  18  19
HETATM   19  C   UNK N   1      32.581  16.174   6.263  0.00  0.00    -0.057 A 
HETATM   20  C   UNK N   1      32.167  15.667   7.505  0.00  0.00     0.007 A 
HETATM   21  C   UNK N   1      32.621  16.255   8.690  0.00  0.00     0.001 A 
HETATM   22  C   UNK N   1      33.493  17.346   8.639  0.00  0.00     0.000 A 
HETATM   23  C   UNK N   1      33.914  17.847   7.403  0.00  0.00     0.001 A 
HETATM   24  C   UNK N   1      33.456  17.264   6.217  0.00  0.00     0.007 A 
ENDBRANCH  18  19
ENDBRANCH  17  18
ENDBRANCH   1  17
TORSDOF 6
ENDMDL
MODEL 9
REMARK VINA RESULT:      -6.5     14.845     16.438
REMARK  6 active torsions:
REMARK  status: ('A' for Active; 'I' for Inactive)
REMARK    1  A    between atoms: O_1  and  C_4 
REMARK    2  A    between atoms: O_1  and  C_14 
REMARK    3  A    between atoms: N_3  and  C_10 
REMARK    4  A    between atoms: C_4  and  C_9 
REMARK    5  A    between atoms: C_10  and  C_11 
REMARK    6  A    between atoms: C_11  and  C_15 
ROOT
HETATM    1  N   UNK N   1      21.443  15.032   6.443  0.00  0.00    -0.412 N 
HETATM    2  C   UNK N   1      20.341  16.604   4.194  0.00  0.00     0.101 C 
HETATM    3  C   UNK N   1      19.448  15.957   5.266  0.00  0.00     0.063 C 
HETATM    4  C   UNK N   1      21.644  17.002   4.897  0.00  0.00     0.063 C 
HETATM    5  C   UNK N   1      20.105  14.742   5.917  0.00  0.00     0.120 C 
HETATM    6  C   UNK N   1      22.342  15.824   5.589  0.00  0.00     0.120 C 
ENDROOT
BRANCH   2   7
HETATM    7  O   UNK N   1      19.751  17.788   3.753  0.00  0.00    -0.305 OA
BRANCH   7   8
HETATM    8  C   UNK N   1      20.404  18.927   3.385  0.00  0.00     0.255 C 
HETATM    9  O   UNK N   1      20.680  19.790   4.207  0.00  0.00    -0.266 OA
HETATM   10  C   UNK N   1      20.779  19.129   1.959  0.00  0.00     0.126 C 
ENDBRANCH   7   8
ENDBRANCH   2   7
BRANCH   2  11
HETATM   11  C   UNK N   1      20.627  15.670   3.002  0.00  0.00    -0.023 A 
HETATM   12  C   UNK N   1      19.591  14.927   2.404  0.00  0.00     0.010 A 
HETATM   13  C   UNK N   1      19.846  14.094   1.311  0.00  0.00     0.001 A 
HETATM   14  C   UNK N   1      21.138  13.996   0.792  0.00  0.00     0.000 A 
HETATM   15  C   UNK N   1      22.176  14.727   1.368  0.00  0.00     0.001 A 
HETATM   16  C   UNK N   1      21.922  15.557   2.463  0.00  0.00     0.010 A 
ENDBRANCH   2  11
BRANCH   1  17
HETATM   17  C   UNK N   1      21.449  15.380   7.863  0.00  0.00     0.121 C 
BRANCH  17  18
HETATM   18  C   UNK N   1      20.422  14.618   8.691  0.00  0.00     0.058 C 
BRANCH  18  19
HETATM   19  C   UNK N   1      21.128  13.696   9.631  0.00  0.00    -0.057 A 
HETATM   20  C   UNK N   1      20.415  12.998  10.617  0.00  0.00     0.007 A 
HETATM   21  C   UNK N   1      21.089  12.152  11.505  0.00  0.00     0.001 A 
HETATM   22  C   UNK N   1      22.474  11.996  11.405  0.00  0.00     0.000 A 
HETATM   23  C   UNK N   1      23.186  12.683  10.417  0.00  0.00     0.001 A 
HETATM   24  C   UNK N   1      22.515  13.534   9.533  0.00  0.00     0.007 A 
ENDBRANCH  18  19
ENDBRANCH  17  18
ENDBRANCH   1  17
TORSDOF 6
ENDMDL
