MODEL 1
REMARK VINA RESULT:      -7.7      0.000      0.000
REMARK  2 active torsions:
REMARK  status: ('A' for Active; 'I' for Inactive)
REMARK    1  A    between atoms: C_5  and  O_22 
REMARK    2  A    between atoms: C_18  and  O_20 
ROOT
HETATM    1  C   UNK N   1      27.052  24.336  -3.623  0.00  0.00     0.020 C 
HETATM    2  C   UNK N   1      27.461  25.272  -4.756  0.00  0.00    -0.017 C 
HETATM    3  C   UNK N   1      27.026  26.680  -4.309  0.00  0.00     0.017 C 
HETATM    4  C   UNK N   1      26.741  27.603  -5.484  0.00  0.00     0.037 C 
HETATM    5  C   UNK N   1      25.615  27.009  -6.327  0.00  0.00     0.141 C 
HETATM    6  C   UNK N   1      25.929  25.597  -6.730  0.00  0.00     0.008 C 
HETATM    7  C   UNK N   1      26.769  24.813  -6.029  0.00  0.00    -0.072 C 
HETATM    8  C   UNK N   1      27.119  23.462  -6.561  0.00  0.00     0.035 C 
HETATM    9  C   UNK N   1      28.622  23.440  -6.841  0.00  0.00     0.010 C 
HETATM   10  C   UNK N   1      29.463  23.838  -5.614  0.00  0.00    -0.004 C 
HETATM   11  C   UNK N   1      28.996  25.201  -5.011  0.00  0.00     0.002 C 
HETATM   12  C   UNK N   1      29.778  25.585  -3.732  0.00  0.00     0.007 C 
HETATM   13  C   UNK N   1      30.880  24.592  -3.355  0.00  0.00     0.013 C 
HETATM   14  C   UNK N   1      30.389  23.129  -3.342  0.00  0.00    -0.009 C 
HETATM   15  C   UNK N   1      29.475  22.763  -4.522  0.00  0.00     0.001 C 
HETATM   16  C   UNK N   1      29.904  21.366  -4.987  0.00  0.00     0.009 C 
HETATM   17  C   UNK N   1      30.877  20.865  -3.924  0.00  0.00     0.038 C 
HETATM   18  C   UNK N   1      31.557  22.130  -3.445  0.00  0.00     0.062 C 
HETATM   19  C   UNK N   1      32.598  22.533  -4.491  0.00  0.00     0.046 C 
HETATM   20  C   UNK N   1      29.574  22.877  -2.074  0.00  0.00     0.018 C 
ENDROOT
BRANCH  18  21
HETATM   21  O   UNK N   1      32.199  21.940  -2.220  0.00  0.00    -0.389 OA
HETATM   22  H   UNK N   1      31.773  22.017  -1.352  0.00  0.00     0.210 HD
ENDBRANCH  18  21
BRANCH   5  23
HETATM   23  O   UNK N   1      24.401  27.050  -5.638  0.00  0.00    -0.392 OA
HETATM   24  H   UNK N   1      23.699  27.596  -5.248  0.00  0.00     0.210 HD
ENDBRANCH   5  23
TORSDOF 2
ENDMDL
MODEL 2
REMARK VINA RESULT:      -7.1     21.517     24.945
REMARK  2 active torsions:
REMARK  status: ('A' for Active; 'I' for Inactive)
REMARK    1  A    between atoms: C_5  and  O_22 
REMARK    2  A    between atoms: C_18  and  O_20 
ROOT
HETATM    1  C   UNK N   1      34.229  10.564  15.567  0.00  0.00     0.020 C 
HETATM    2  C   UNK N   1      35.495  10.788  16.388  0.00  0.00    -0.017 C 
HETATM    3  C   UNK N   1      35.709   9.487  17.184  0.00  0.00     0.017 C 
HETATM    4  C   UNK N   1      36.469   9.715  18.482  0.00  0.00     0.037 C 
HETATM    5  C   UNK N   1      35.678  10.679  19.363  0.00  0.00     0.141 C 
HETATM    6  C   UNK N   1      35.352  11.945  18.623  0.00  0.00     0.008 C 
HETATM    7  C   UNK N   1      35.278  12.000  17.280  0.00  0.00    -0.072 C 
HETATM    8  C   UNK N   1      35.066  13.321  16.616  0.00  0.00     0.035 C 
HETATM    9  C   UNK N   1      36.294  13.618  15.754  0.00  0.00     0.010 C 
HETATM   10  C   UNK N   1      36.609  12.490  14.755  0.00  0.00    -0.004 C 
HETATM   11  C   UNK N   1      36.710  11.101  15.466  0.00  0.00     0.002 C 
HETATM   12  C   UNK N   1      36.952   9.941  14.472  0.00  0.00     0.007 C 
HETATM   13  C   UNK N   1      37.102  10.389  13.016  0.00  0.00     0.013 C 
HETATM   14  C   UNK N   1      35.975  11.341  12.564  0.00  0.00    -0.009 C 
HETATM   15  C   UNK N   1      35.602  12.411  13.602  0.00  0.00     0.001 C 
HETATM   16  C   UNK N   1      35.396  13.718  12.827  0.00  0.00     0.009 C 
HETATM   17  C   UNK N   1      35.415  13.323  11.353  0.00  0.00     0.038 C 
HETATM   18  C   UNK N   1      36.374  12.151  11.315  0.00  0.00     0.062 C 
HETATM   19  C   UNK N   1      37.799  12.702  11.389  0.00  0.00     0.046 C 
HETATM   20  C   UNK N   1      34.703  10.536  12.301  0.00  0.00     0.018 C 
ENDROOT
BRANCH  18  21
HETATM   21  O   UNK N   1      36.237  11.410  10.139  0.00  0.00    -0.389 OA
HETATM   22  H   UNK N   1      36.401  11.751   9.246  0.00  0.00     0.210 HD
ENDBRANCH  18  21
BRANCH   5  23
HETATM   23  O   UNK N   1      34.504  10.082  19.827  0.00  0.00    -0.392 OA
HETATM   24  H   UNK N   1      33.905   9.926  20.575  0.00  0.00     0.210 HD
ENDBRANCH   5  23
TORSDOF 2
ENDMDL
MODEL 3
REMARK VINA RESULT:      -6.8      3.475      5.317
REMARK  2 active torsions:
REMARK  status: ('A' for Active; 'I' for Inactive)
REMARK    1  A    between atoms: C_5  and  O_22 
REMARK    2  A    between atoms: C_18  and  O_20 
ROOT
HETATM    1  C   UNK N   1      28.513  27.114  -4.493  0.00  0.00     0.020 C 
HETATM    2  C   UNK N   1      27.734  28.292  -5.070  0.00  0.00    -0.017 C 
HETATM    3  C   UNK N   1      28.762  29.423  -5.250  0.00  0.00     0.017 C 
HETATM    4  C   UNK N   1      28.130  30.804  -5.178  0.00  0.00     0.037 C 
HETATM    5  C   UNK N   1      27.470  30.983  -3.813  0.00  0.00     0.141 C 
HETATM    6  C   UNK N   1      26.512  29.864  -3.525  0.00  0.00     0.008 C 
HETATM    7  C   UNK N   1      26.622  28.650  -4.097  0.00  0.00    -0.072 C 
HETATM    8  C   UNK N   1      25.561  27.629  -3.848  0.00  0.00     0.035 C 
HETATM    9  C   UNK N   1      24.893  27.307  -5.186  0.00  0.00     0.010 C 
HETATM   10  C   UNK N   1      25.901  26.873  -6.266  0.00  0.00    -0.004 C 
HETATM   11  C   UNK N   1      27.062  27.907  -6.421  0.00  0.00     0.002 C 
HETATM   12  C   UNK N   1      28.127  27.456  -7.449  0.00  0.00     0.007 C 
HETATM   13  C   UNK N   1      27.801  26.131  -8.143  0.00  0.00     0.013 C 
HETATM   14  C   UNK N   1      27.414  25.015  -7.150  0.00  0.00    -0.009 C 
HETATM   15  C   UNK N   1      26.479  25.475  -6.020  0.00  0.00     0.001 C 
HETATM   16  C   UNK N   1      25.439  24.364  -5.834  0.00  0.00     0.009 C 
HETATM   17  C   UNK N   1      25.938  23.196  -6.681  0.00  0.00     0.038 C 
HETATM   18  C   UNK N   1      26.639  23.875  -7.839  0.00  0.00     0.062 C 
HETATM   19  C   UNK N   1      25.571  24.381  -8.810  0.00  0.00     0.046 C 
HETATM   20  C   UNK N   1      28.674  24.478  -6.471  0.00  0.00     0.018 C 
ENDROOT
BRANCH  18  21
HETATM   21  O   UNK N   1      27.486  22.996  -8.518  0.00  0.00    -0.389 OA
HETATM   22  H   UNK N   1      28.174  22.454  -8.100  0.00  0.00     0.210 HD
ENDBRANCH  18  21
BRANCH   5  23
HETATM   23  O   UNK N   1      28.431  31.062  -2.802  0.00  0.00    -0.392 OA
HETATM   24  H   UNK N   1      29.167  30.634  -2.338  0.00  0.00     0.210 HD
ENDBRANCH   5  23
TORSDOF 2
ENDMDL
MODEL 4
REMARK VINA RESULT:      -6.8     11.430     13.654
REMARK  2 active torsions:
REMARK  status: ('A' for Active; 'I' for Inactive)
REMARK    1  A    between atoms: C_5  and  O_22 
REMARK    2  A    between atoms: C_18  and  O_20 
ROOT
HETATM    1  C   UNK N   1      30.362  14.674   5.805  0.00  0.00     0.020 C 
HETATM    2  C   UNK N   1      29.927  15.974   5.136  0.00  0.00    -0.017 C 
HETATM    3  C   UNK N   1      28.398  16.037   5.305  0.00  0.00     0.017 C 
HETATM    4  C   UNK N   1      27.722  16.846   4.208  0.00  0.00     0.037 C 
HETATM    5  C   UNK N   1      28.019  16.202   2.856  0.00  0.00     0.141 C 
HETATM    6  C   UNK N   1      29.497  16.024   2.653  0.00  0.00     0.008 C 
HETATM    7  C   UNK N   1      30.362  15.931   3.680  0.00  0.00    -0.072 C 
HETATM    8  C   UNK N   1      31.827  15.874   3.394  0.00  0.00     0.035 C 
HETATM    9  C   UNK N   1      32.477  17.112   4.015  0.00  0.00     0.010 C 
HETATM   10  C   UNK N   1      32.164  17.261   5.515  0.00  0.00    -0.004 C 
HETATM   11  C   UNK N   1      30.627  17.199   5.793  0.00  0.00     0.002 C 
HETATM   12  C   UNK N   1      30.293  17.273   7.302  0.00  0.00     0.007 C 
HETATM   13  C   UNK N   1      31.518  17.449   8.204  0.00  0.00     0.013 C 
HETATM   14  C   UNK N   1      32.644  16.443   7.887  0.00  0.00    -0.009 C 
HETATM   15  C   UNK N   1      32.891  16.230   6.384  0.00  0.00     0.001 C 
HETATM   16  C   UNK N   1      34.412  16.175   6.197  0.00  0.00     0.009 C 
HETATM   17  C   UNK N   1      34.993  16.114   7.607  0.00  0.00     0.038 C 
HETATM   18  C   UNK N   1      34.006  16.915   8.430  0.00  0.00     0.062 C 
HETATM   19  C   UNK N   1      34.270  18.400   8.172  0.00  0.00     0.046 C 
HETATM   20  C   UNK N   1      32.280  15.074   8.460  0.00  0.00     0.018 C 
ENDROOT
BRANCH  18  21
HETATM   21  O   UNK N   1      34.147  16.662   9.795  0.00  0.00    -0.389 OA
HETATM   22  H   UNK N   1      34.833  16.100  10.188  0.00  0.00     0.210 HD
ENDBRANCH  18  21
BRANCH   5  23
HETATM   23  O   UNK N   1      27.370  14.971   2.736  0.00  0.00    -0.392 OA
HETATM   24  H   UNK N   1      26.607  14.478   2.394  0.00  0.00     0.210 HD
ENDBRANCH   5  23
TORSDOF 2
ENDMDL
MODEL 5
REMARK VINA RESULT:      -6.7     22.357     25.532
REMARK  2 active torsions:
REMARK  status: ('A' for Active; 'I' for Inactive)
REMARK    1  A    between atoms: C_5  and  O_22 
REMARK    2  A    between atoms: C_18  and  O_20 
ROOT
HETATM    1  C   UNK N   1      37.621  11.351  14.791  0.00  0.00     0.020 C 
HETATM    2  C   UNK N   1      36.285  11.864  14.263  0.00  0.00    -0.017 C 
HETATM    3  C   UNK N   1      36.294  11.567  12.752  0.00  0.00     0.017 C 
HETATM    4  C   UNK N   1      35.420  12.529  11.962  0.00  0.00     0.037 C 
HETATM    5  C   UNK N   1      35.933  13.953  12.164  0.00  0.00     0.141 C 
HETATM    6  C   UNK N   1      36.037  14.289  13.624  0.00  0.00     0.008 C 
HETATM    7  C   UNK N   1      36.187  13.348  14.575  0.00  0.00    -0.072 C 
HETATM    8  C   UNK N   1      36.163  13.756  16.012  0.00  0.00     0.035 C 
HETATM    9  C   UNK N   1      34.960  13.082  16.674  0.00  0.00     0.010 C 
HETATM   10  C   UNK N   1      34.953  11.554  16.484  0.00  0.00    -0.004 C 
HETATM   11  C   UNK N   1      35.096  11.159  14.979  0.00  0.00     0.002 C 
HETATM   12  C   UNK N   1      35.165   9.628  14.770  0.00  0.00     0.007 C 
HETATM   13  C   UNK N   1      35.022   8.816  16.060  0.00  0.00     0.013 C 
HETATM   14  C   UNK N   1      35.954   9.312  17.186  0.00  0.00    -0.009 C 
HETATM   15  C   UNK N   1      36.028  10.843  17.312  0.00  0.00     0.001 C 
HETATM   16  C   UNK N   1      36.009  11.157  18.813  0.00  0.00     0.009 C 
HETATM   17  C   UNK N   1      36.170   9.810  19.512  0.00  0.00     0.038 C 
HETATM   18  C   UNK N   1      35.480   8.842  18.574  0.00  0.00     0.062 C 
HETATM   19  C   UNK N   1      33.970   8.987  18.771  0.00  0.00     0.046 C 
HETATM   20  C   UNK N   1      37.380   8.835  16.913  0.00  0.00     0.018 C 
ENDROOT
BRANCH  18  21
HETATM   21  O   UNK N   1      35.844   7.520  18.837  0.00  0.00    -0.389 OA
HETATM   22  H   UNK N   1      36.699   7.241  19.200  0.00  0.00     0.210 HD
ENDBRANCH  18  21
BRANCH   5  23
HETATM   23  O   UNK N   1      37.172  14.128  11.544  0.00  0.00    -0.392 OA
HETATM   24  H   UNK N   1      38.034  13.745  11.315  0.00  0.00     0.210 HD
ENDBRANCH   5  23
TORSDOF 2
ENDMDL
MODEL 6
REMARK VINA RESULT:      -6.7      3.297      5.574
REMARK  2 active torsions:
REMARK  status: ('A' for Active; 'I' for Inactive)
REMARK    1  A    between atoms: C_5  and  O_22 
REMARK    2  A    between atoms: C_18  and  O_20 
ROOT
HETATM    1  C   UNK N   1      28.167  24.176  -6.810  0.00  0.00     0.020 C 
HETATM    2  C   UNK N   1      26.676  23.925  -7.014  0.00  0.00    -0.017 C 
HETATM    3  C   UNK N   1      26.457  22.437  -6.682  0.00  0.00     0.017 C 
HETATM    4  C   UNK N   1      25.262  21.845  -7.415  0.00  0.00     0.037 C 
HETATM    5  C   UNK N   1      25.490  21.961  -8.920  0.00  0.00     0.141 C 
HETATM    6  C   UNK N   1      25.800  23.377  -9.313  0.00  0.00     0.008 C 
HETATM    7  C   UNK N   1      26.326  24.269  -8.453  0.00  0.00    -0.072 C 
HETATM    8  C   UNK N   1      26.494  25.688  -8.887  0.00  0.00     0.035 C 
HETATM    9  C   UNK N   1      25.612  26.563  -7.995  0.00  0.00     0.010 C 
HETATM   10  C   UNK N   1      25.893  26.358  -6.495  0.00  0.00    -0.004 C 
HETATM   11  C   UNK N   1      25.824  24.849  -6.095  0.00  0.00     0.002 C 
HETATM   12  C   UNK N   1      26.176  24.611  -4.607  0.00  0.00     0.007 C 
HETATM   13  C   UNK N   1      26.460  25.894  -3.822  0.00  0.00     0.013 C 
HETATM   14  C   UNK N   1      27.464  26.823  -4.536  0.00  0.00    -0.009 C 
HETATM   15  C   UNK N   1      27.234  26.953  -6.050  0.00  0.00     0.001 C 
HETATM   16  C   UNK N   1      27.437  28.432  -6.397  0.00  0.00     0.009 C 
HETATM   17  C   UNK N   1      28.013  29.069  -5.135  0.00  0.00     0.038 C 
HETATM   18  C   UNK N   1      27.377  28.271  -4.016  0.00  0.00     0.062 C 
HETATM   19  C   UNK N   1      25.937  28.759  -3.845  0.00  0.00     0.046 C 
HETATM   20  C   UNK N   1      28.879  26.272  -4.363  0.00  0.00     0.018 C 
ENDROOT
BRANCH  18  21
HETATM   21  O   UNK N   1      28.058  28.441  -2.809  0.00  0.00    -0.389 OA
HETATM   22  H   UNK N   1      28.561  27.748  -2.353  0.00  0.00     0.210 HD
ENDBRANCH  18  21
BRANCH   5  23
HETATM   23  O   UNK N   1      26.521  21.115  -9.335  0.00  0.00    -0.392 OA
HETATM   24  H   UNK N   1      26.993  20.702 -10.076  0.00  0.00     0.210 HD
ENDBRANCH   5  23
TORSDOF 2
ENDMDL
MODEL 7
REMARK VINA RESULT:      -6.6      1.251      5.972
REMARK  2 active torsions:
REMARK  status: ('A' for Active; 'I' for Inactive)
REMARK    1  A    between atoms: C_5  and  O_22 
REMARK    2  A    between atoms: C_18  and  O_20 
ROOT
HETATM    1  C   UNK N   1      30.290  25.217  -3.686  0.00  0.00     0.020 C 
HETATM    2  C   UNK N   1      29.784  23.862  -4.172  0.00  0.00    -0.017 C 
HETATM    3  C   UNK N   1      30.041  22.882  -3.012  0.00  0.00     0.017 C 
HETATM    4  C   UNK N   1      30.226  21.449  -3.489  0.00  0.00     0.037 C 
HETATM    5  C   UNK N   1      31.424  21.385  -4.432  0.00  0.00     0.141 C 
HETATM    6  C   UNK N   1      31.288  22.381  -5.549  0.00  0.00     0.008 C 
HETATM    7  C   UNK N   1      30.541  23.495  -5.438  0.00  0.00    -0.072 C 
HETATM    8  C   UNK N   1      30.362  24.373  -6.633  0.00  0.00     0.035 C 
HETATM    9  C   UNK N   1      28.875  24.384  -6.992  0.00  0.00     0.010 C 
HETATM   10  C   UNK N   1      27.979  24.793  -5.809  0.00  0.00    -0.004 C 
HETATM   11  C   UNK N   1      28.272  23.931  -4.538  0.00  0.00     0.002 C 
HETATM   12  C   UNK N   1      27.435  24.373  -3.314  0.00  0.00     0.007 C 
HETATM   13  C   UNK N   1      26.457  25.513  -3.608  0.00  0.00     0.013 C 
HETATM   14  C   UNK N   1      27.120  26.698  -4.340  0.00  0.00    -0.009 C 
HETATM   15  C   UNK N   1      28.085  26.282  -5.463  0.00  0.00     0.001 C 
HETATM   16  C   UNK N   1      27.833  27.242  -6.631  0.00  0.00     0.009 C 
HETATM   17  C   UNK N   1      26.915  28.327  -6.075  0.00  0.00     0.038 C 
HETATM   18  C   UNK N   1      26.082  27.591  -5.047  0.00  0.00     0.062 C 
HETATM   19  C   UNK N   1      25.012  26.790  -5.791  0.00  0.00     0.046 C 
HETATM   20  C   UNK N   1      27.946  27.514  -3.346  0.00  0.00     0.018 C 
ENDROOT
BRANCH  18  21
HETATM   21  O   UNK N   1      25.454  28.471  -4.164  0.00  0.00    -0.389 OA
HETATM   22  H   UNK N   1      24.721  29.062  -4.397  0.00  0.00     0.210 HD
ENDBRANCH  18  21
BRANCH   5  23
HETATM   23  O   UNK N   1      32.617  21.605  -3.740  0.00  0.00    -0.392 OA
HETATM   24  H   UNK N   1      33.552  21.372  -3.626  0.00  0.00     0.210 HD
ENDBRANCH   5  23
TORSDOF 2
ENDMDL
MODEL 8
REMARK VINA RESULT:      -6.4     12.548     15.472
REMARK  2 active torsions:
REMARK  status: ('A' for Active; 'I' for Inactive)
REMARK    1  A    between atoms: C_5  and  O_22 
REMARK    2  A    between atoms: C_18  and  O_20 
ROOT
HETATM    1  C   UNK N   1      31.741  15.058   6.321  0.00  0.00     0.020 C 
HETATM    2  C   UNK N   1      32.641  16.097   5.659  0.00  0.00    -0.017 C 
HETATM    3  C   UNK N   1      31.709  17.250   5.244  0.00  0.00     0.017 C 
HETATM    4  C   UNK N   1      32.240  18.031   4.052  0.00  0.00     0.037 C 
HETATM    5  C   UNK N   1      32.381  17.089   2.858  0.00  0.00     0.141 C 
HETATM    6  C   UNK N   1      33.209  15.887   3.212  0.00  0.00     0.008 C 
HETATM    7  C   UNK N   1      33.337  15.442   4.476  0.00  0.00    -0.072 C 
HETATM    8  C   UNK N   1      34.272  14.312   4.759  0.00  0.00     0.035 C 
HETATM    9  C   UNK N   1      35.371  14.831   5.688  0.00  0.00     0.010 C 
HETATM   10  C   UNK N   1      34.812  15.482   6.967  0.00  0.00    -0.004 C 
HETATM   11  C   UNK N   1      33.749  16.580   6.639  0.00  0.00     0.002 C 
HETATM   12  C   UNK N   1      33.120  17.196   7.911  0.00  0.00     0.007 C 
HETATM   13  C   UNK N   1      33.701  16.654   9.220  0.00  0.00     0.013 C 
HETATM   14  C   UNK N   1      33.749  15.112   9.260  0.00  0.00    -0.009 C 
HETATM   15  C   UNK N   1      34.222  14.464   7.949  0.00  0.00     0.001 C 
HETATM   16  C   UNK N   1      35.162  13.319   8.343  0.00  0.00     0.009 C 
HETATM   17  C   UNK N   1      35.019  13.179   9.856  0.00  0.00     0.038 C 
HETATM   18  C   UNK N   1      34.745  14.596  10.316  0.00  0.00     0.062 C 
HETATM   19  C   UNK N   1      36.070  15.360  10.313  0.00  0.00     0.046 C 
HETATM   20  C   UNK N   1      32.347  14.566   9.527  0.00  0.00     0.018 C 
ENDROOT
BRANCH  18  21
HETATM   21  O   UNK N   1      34.210  14.626  11.606  0.00  0.00    -0.389 OA
HETATM   22  H   UNK N   1      33.391  15.083  11.857  0.00  0.00     0.210 HD
ENDBRANCH  18  21
BRANCH   5  23
HETATM   23  O   UNK N   1      31.128  16.684   2.392  0.00  0.00    -0.392 OA
HETATM   24  H   UNK N   1      30.175  16.615   2.562  0.00  0.00     0.210 HD
ENDBRANCH   5  23
TORSDOF 2
ENDMDL
MODEL 9
REMARK VINA RESULT:      -6.3      2.648      5.700
REMARK  2 active torsions:
REMARK  status: ('A' for Active; 'I' for Inactive)
REMARK    1  A    between atoms: C_5  and  O_22 
REMARK    2  A    between atoms: C_18  and  O_20 
ROOT
HETATM    1  C   UNK N   1      28.536  24.382  -7.881  0.00  0.00     0.020 C 
HETATM    2  C   UNK N   1      28.422  23.157  -6.979  0.00  0.00    -0.017 C 
HETATM    3  C   UNK N   1      29.785  22.448  -7.066  0.00  0.00     0.017 C 
HETATM    4  C   UNK N   1      29.683  20.952  -6.805  0.00  0.00     0.037 C 
HETATM    5  C   UNK N   1      28.759  20.324  -7.845  0.00  0.00     0.141 C 
HETATM    6  C   UNK N   1      27.430  21.023  -7.882  0.00  0.00     0.008 C 
HETATM    7  C   UNK N   1      27.272  22.299  -7.483  0.00  0.00    -0.072 C 
HETATM    8  C   UNK N   1      25.898  22.883  -7.439  0.00  0.00     0.035 C 
HETATM    9  C   UNK N   1      25.582  23.239  -5.986  0.00  0.00     0.010 C 
HETATM   10  C   UNK N   1      26.644  24.156  -5.352  0.00  0.00    -0.004 C 
HETATM   11  C   UNK N   1      28.084  23.572  -5.517  0.00  0.00     0.002 C 
HETATM   12  C   UNK N   1      29.176  24.513  -4.952  0.00  0.00     0.007 C 
HETATM   13  C   UNK N   1      28.626  25.784  -4.301  0.00  0.00     0.013 C 
HETATM   14  C   UNK N   1      27.602  26.519  -5.192  0.00  0.00    -0.009 C 
HETATM   15  C   UNK N   1      26.599  25.589  -5.894  0.00  0.00     0.001 C 
HETATM   16  C   UNK N   1      25.232  26.276  -5.806  0.00  0.00     0.009 C 
HETATM   17  C   UNK N   1      25.516  27.680  -5.279  0.00  0.00     0.038 C 
HETATM   18  C   UNK N   1      26.716  27.481  -4.377  0.00  0.00     0.062 C 
HETATM   19  C   UNK N   1      26.224  26.871  -3.062  0.00  0.00     0.046 C 
HETATM   20  C   UNK N   1      28.338  27.271  -6.300  0.00  0.00     0.018 C 
ENDROOT
BRANCH  18  21
HETATM   21  O   UNK N   1      27.362  28.687  -4.101  0.00  0.00    -0.389 OA
HETATM   22  H   UNK N   1      26.937  29.468  -3.712  0.00  0.00     0.210 HD
ENDBRANCH  18  21
BRANCH   5  23
HETATM   23  O   UNK N   1      29.346  20.346  -9.112  0.00  0.00    -0.392 OA
HETATM   24  H   UNK N   1      29.601  20.873  -9.886  0.00  0.00     0.210 HD
ENDBRANCH   5  23
TORSDOF 2
ENDMDL
