MODEL 1
REMARK VINA RESULT:      -7.5      0.000      0.000
REMARK  0 active torsions:
REMARK  status: ('A' for Active; 'I' for Inactive)
ROOT
HETATM    1  C   UNK N   1      31.537  24.036  -3.518  0.00  0.00     0.024 C 
HETATM    2  C   UNK N   1      30.648  22.811  -3.334  0.00  0.00     0.021 C 
HETATM    3  C   UNK N   1      29.622  23.033  -2.216  0.00  0.00     0.018 C 
HETATM    4  C   UNK N   1      28.314  23.722  -2.684  0.00  0.00     0.007 C 
HETATM    5  C   UNK N   1      28.404  24.395  -4.070  0.00  0.00    -0.002 C 
HETATM    6  C   UNK N   1      27.079  25.102  -4.426  0.00  0.00     0.019 C 
HETATM    7  C   UNK N   1      27.184  26.589  -4.136  0.00  0.00     0.017 C 
HETATM    8  C   UNK N   1      25.814  27.255  -4.245  0.00  0.00     0.079 C 
HETATM    9  C   UNK N   1      25.051  26.871  -5.488  0.00  0.00     0.130 C 
HETATM   10  O   UNK N   1      24.011  27.455  -5.743  0.00  0.00    -0.298 OA
HETATM   11  C   UNK N   1      25.509  25.775  -6.415  0.00  0.00     0.112 C 
HETATM   12  C   UNK N   1      26.579  24.889  -5.843  0.00  0.00    -0.072 C 
HETATM   13  C   UNK N   1      27.003  23.860  -6.585  0.00  0.00    -0.023 C 
HETATM   14  C   UNK N   1      27.962  22.852  -6.043  0.00  0.00     0.033 C 
HETATM   15  C   UNK N   1      29.026  23.522  -5.196  0.00  0.00    -0.001 C 
HETATM   16  C   UNK N   1      29.889  22.426  -4.581  0.00  0.00     0.006 C 
HETATM   17  C   UNK N   1      30.773  21.543  -5.438  0.00  0.00     0.013 C 
HETATM   18  C   UNK N   1      31.523  20.718  -4.392  0.00  0.00     0.079 C 
HETATM   19  C   UNK N   1      31.494  21.598  -3.184  0.00  0.00     0.135 C 
HETATM   20  O   UNK N   1      32.184  21.381  -2.201  0.00  0.00    -0.297 OA
ENDROOT
TORSDOF 0
ENDMDL
MODEL 2
REMARK VINA RESULT:      -7.4     22.356     25.776
REMARK  0 active torsions:
REMARK  status: ('A' for Active; 'I' for Inactive)
ROOT
HETATM    1  C   UNK N   1      36.738  11.046  13.311  0.00  0.00     0.024 C 
HETATM    2  C   UNK N   1      35.505  11.925  13.492  0.00  0.00     0.021 C 
HETATM    3  C   UNK N   1      34.228  11.078  13.574  0.00  0.00     0.018 C 
HETATM    4  C   UNK N   1      33.891  10.577  15.002  0.00  0.00     0.007 C 
HETATM    5  C   UNK N   1      35.055  10.683  16.011  0.00  0.00    -0.002 C 
HETATM    6  C   UNK N   1      34.648  10.109  17.384  0.00  0.00     0.019 C 
HETATM    7  C   UNK N   1      35.169   8.691  17.534  0.00  0.00     0.017 C 
HETATM    8  C   UNK N   1      34.568   8.027  18.771  0.00  0.00     0.079 C 
HETATM    9  C   UNK N   1      34.617   8.890  20.007  0.00  0.00     0.130 C 
HETATM   10  O   UNK N   1      34.295   8.402  21.078  0.00  0.00    -0.298 OA
HETATM   11  C   UNK N   1      35.024  10.339  19.968  0.00  0.00     0.112 C 
HETATM   12  C   UNK N   1      35.053  10.936  18.590  0.00  0.00    -0.072 C 
HETATM   13  C   UNK N   1      35.356  12.235  18.475  0.00  0.00    -0.023 C 
HETATM   14  C   UNK N   1      35.274  12.940  17.162  0.00  0.00     0.033 C 
HETATM   15  C   UNK N   1      35.786  12.055  16.042  0.00  0.00    -0.001 C 
HETATM   16  C   UNK N   1      35.559  12.791  14.727  0.00  0.00     0.006 C 
HETATM   17  C   UNK N   1      36.307  14.066  14.397  0.00  0.00     0.013 C 
HETATM   18  C   UNK N   1      35.861  14.345  12.961  0.00  0.00     0.079 C 
HETATM   19  C   UNK N   1      35.493  12.988  12.453  0.00  0.00     0.135 C 
HETATM   20  O   UNK N   1      35.296  12.765  11.270  0.00  0.00    -0.297 OA
ENDROOT
TORSDOF 0
ENDMDL
MODEL 3
REMARK VINA RESULT:      -7.1      1.998      2.715
REMARK  0 active torsions:
REMARK  status: ('A' for Active; 'I' for Inactive)
ROOT
HETATM    1  C   UNK N   1      30.420  24.779  -3.960  0.00  0.00     0.024 C 
HETATM    2  C   UNK N   1      29.612  23.534  -3.609  0.00  0.00     0.021 C 
HETATM    3  C   UNK N   1      28.164  23.896  -3.253  0.00  0.00     0.018 C 
HETATM    4  C   UNK N   1      27.214  23.982  -4.476  0.00  0.00     0.007 C 
HETATM    5  C   UNK N   1      27.930  24.065  -5.841  0.00  0.00    -0.002 C 
HETATM    6  C   UNK N   1      26.911  24.206  -6.990  0.00  0.00     0.019 C 
HETATM    7  C   UNK N   1      26.792  25.660  -7.410  0.00  0.00     0.017 C 
HETATM    8  C   UNK N   1      25.616  25.849  -8.365  0.00  0.00     0.079 C 
HETATM    9  C   UNK N   1      25.567  24.829  -9.475  0.00  0.00     0.130 C 
HETATM   10  O   UNK N   1      24.753  24.975 -10.372  0.00  0.00    -0.298 OA
HETATM   11  C   UNK N   1      26.466  23.621  -9.507  0.00  0.00     0.112 C 
HETATM   12  C   UNK N   1      27.167  23.339  -8.209  0.00  0.00    -0.072 C 
HETATM   13  C   UNK N   1      27.946  22.252  -8.140  0.00  0.00    -0.023 C 
HETATM   14  C   UNK N   1      28.569  21.821  -6.854  0.00  0.00     0.033 C 
HETATM   15  C   UNK N   1      29.060  23.019  -6.065  0.00  0.00    -0.001 C 
HETATM   16  C   UNK N   1      29.568  22.514  -4.720  0.00  0.00     0.006 C 
HETATM   17  C   UNK N   1      30.797  21.632  -4.622  0.00  0.00     0.013 C 
HETATM   18  C   UNK N   1      30.987  21.503  -3.110  0.00  0.00     0.079 C 
HETATM   19  C   UNK N   1      30.337  22.742  -2.582  0.00  0.00     0.135 C 
HETATM   20  O   UNK N   1      30.475  23.110  -1.427  0.00  0.00    -0.297 OA
ENDROOT
TORSDOF 0
ENDMDL
MODEL 4
REMARK VINA RESULT:      -7.0     11.421     12.838
REMARK  0 active torsions:
REMARK  status: ('A' for Active; 'I' for Inactive)
ROOT
HETATM    1  C   UNK N   1      33.069  15.474   6.142  0.00  0.00     0.024 C 
HETATM    2  C   UNK N   1      32.686  16.950   6.114  0.00  0.00     0.021 C 
HETATM    3  C   UNK N   1      32.710  17.501   4.683  0.00  0.00     0.018 C 
HETATM    4  C   UNK N   1      31.383  17.300   3.905  0.00  0.00     0.007 C 
HETATM    5  C   UNK N   1      30.417  16.277   4.538  0.00  0.00    -0.002 C 
HETATM    6  C   UNK N   1      29.154  16.099   3.669  0.00  0.00     0.019 C 
HETATM    7  C   UNK N   1      29.281  14.855   2.809  0.00  0.00     0.017 C 
HETATM    8  C   UNK N   1      28.162  14.803   1.771  0.00  0.00     0.079 C 
HETATM    9  C   UNK N   1      26.794  15.083   2.341  0.00  0.00     0.130 C 
HETATM   10  O   UNK N   1      25.816  14.927   1.627  0.00  0.00    -0.298 OA
HETATM   11  C   UNK N   1      26.587  15.575   3.750  0.00  0.00     0.112 C 
HETATM   12  C   UNK N   1      27.836  16.074   4.419  0.00  0.00    -0.072 C 
HETATM   13  C   UNK N   1      27.727  16.575   5.655  0.00  0.00    -0.023 C 
HETATM   14  C   UNK N   1      28.888  17.217   6.340  0.00  0.00     0.033 C 
HETATM   15  C   UNK N   1      30.167  16.450   6.063  0.00  0.00    -0.001 C 
HETATM   16  C   UNK N   1      31.319  17.228   6.689  0.00  0.00     0.006 C 
HETATM   17  C   UNK N   1      31.443  17.382   8.191  0.00  0.00     0.013 C 
HETATM   18  C   UNK N   1      32.787  18.097   8.336  0.00  0.00     0.079 C 
HETATM   19  C   UNK N   1      33.517  17.699   7.093  0.00  0.00     0.135 C 
HETATM   20  O   UNK N   1      34.712  17.893   6.947  0.00  0.00    -0.297 OA
ENDROOT
TORSDOF 0
ENDMDL
MODEL 5
REMARK VINA RESULT:      -6.9     20.478     23.844
REMARK  0 active torsions:
REMARK  status: ('A' for Active; 'I' for Inactive)
ROOT
HETATM    1  C   UNK N   1      34.543  10.162  15.911  0.00  0.00     0.024 C 
HETATM    2  C   UNK N   1      35.759  10.885  16.480  0.00  0.00     0.021 C 
HETATM    3  C   UNK N   1      37.064  10.279  15.948  0.00  0.00     0.018 C 
HETATM    4  C   UNK N   1      37.534  10.875  14.596  0.00  0.00     0.007 C 
HETATM    5  C   UNK N   1      36.455  11.680  13.840  0.00  0.00    -0.002 C 
HETATM    6  C   UNK N   1      36.993  12.183  12.484  0.00  0.00     0.019 C 
HETATM    7  C   UNK N   1      36.530  11.268  11.365  0.00  0.00     0.017 C 
HETATM    8  C   UNK N   1      37.253  11.606  10.062  0.00  0.00     0.079 C 
HETATM    9  C   UNK N   1      37.279  13.081   9.749  0.00  0.00     0.130 C 
HETATM   10  O   UNK N   1      37.705  13.444   8.665  0.00  0.00    -0.298 OA
HETATM   11  C   UNK N   1      36.826  14.127  10.733  0.00  0.00     0.112 C 
HETATM   12  C   UNK N   1      36.664  13.624  12.139  0.00  0.00    -0.072 C 
HETATM   13  C   UNK N   1      36.313  14.505  13.083  0.00  0.00    -0.023 C 
HETATM   14  C   UNK N   1      36.263  14.122  14.526  0.00  0.00     0.033 C 
HETATM   15  C   UNK N   1      35.687  12.729  14.693  0.00  0.00    -0.001 C 
HETATM   16  C   UNK N   1      35.781  12.362  16.169  0.00  0.00     0.006 C 
HETATM   17  C   UNK N   1      34.968  13.094  17.218  0.00  0.00     0.013 C 
HETATM   18  C   UNK N   1      35.285  12.303  18.488  0.00  0.00     0.079 C 
HETATM   19  C   UNK N   1      35.651  10.952  17.961  0.00  0.00     0.135 C 
HETATM   20  O   UNK N   1      35.756   9.976  18.685  0.00  0.00    -0.297 OA
ENDROOT
TORSDOF 0
ENDMDL
MODEL 6
REMARK VINA RESULT:      -6.7     23.149     25.411
REMARK  0 active torsions:
REMARK  status: ('A' for Active; 'I' for Inactive)
ROOT
HETATM    1  C   UNK N   1      38.154   8.992  14.435  0.00  0.00     0.024 C 
HETATM    2  C   UNK N   1      36.878   9.391  13.700  0.00  0.00     0.021 C 
HETATM    3  C   UNK N   1      35.639   8.783  14.371  0.00  0.00     0.018 C 
HETATM    4  C   UNK N   1      35.060   9.641  15.526  0.00  0.00     0.007 C 
HETATM    5  C   UNK N   1      36.011  10.739  16.049  0.00  0.00    -0.002 C 
HETATM    6  C   UNK N   1      35.376  11.500  17.232  0.00  0.00     0.019 C 
HETATM    7  C   UNK N   1      35.910  10.964  18.547  0.00  0.00     0.017 C 
HETATM    8  C   UNK N   1      35.112  11.529  19.721  0.00  0.00     0.079 C 
HETATM    9  C   UNK N   1      34.900  13.021  19.646  0.00  0.00     0.130 C 
HETATM   10  O   UNK N   1      34.401  13.592  20.602  0.00  0.00    -0.298 OA
HETATM   11  C   UNK N   1      35.255  13.830  18.426  0.00  0.00     0.112 C 
HETATM   12  C   UNK N   1      35.519  13.010  17.196  0.00  0.00    -0.072 C 
HETATM   13  C   UNK N   1      35.792  13.658  16.057  0.00  0.00    -0.023 C 
HETATM   14  C   UNK N   1      35.931  12.930  14.761  0.00  0.00     0.033 C 
HETATM   15  C   UNK N   1      36.674  11.623  14.956  0.00  0.00    -0.001 C 
HETATM   16  C   UNK N   1      36.670  10.883  13.623  0.00  0.00     0.006 C 
HETATM   17  C   UNK N   1      37.421  11.419  12.421  0.00  0.00     0.013 C 
HETATM   18  C   UNK N   1      37.241  10.299  11.396  0.00  0.00     0.079 C 
HETATM   19  C   UNK N   1      37.022   9.092  12.251  0.00  0.00     0.135 C 
HETATM   20  O   UNK N   1      37.057   7.958  11.802  0.00  0.00    -0.297 OA
ENDROOT
TORSDOF 0
ENDMDL
MODEL 7
REMARK VINA RESULT:      -6.7      1.324      6.616
REMARK  0 active torsions:
REMARK  status: ('A' for Active; 'I' for Inactive)
ROOT
HETATM    1  C   UNK N   1      26.496  25.927  -6.973  0.00  0.00     0.024 C 
HETATM    2  C   UNK N   1      26.255  26.114  -5.479  0.00  0.00     0.021 C 
HETATM    3  C   UNK N   1      25.774  24.811  -4.828  0.00  0.00     0.018 C 
HETATM    4  C   UNK N   1      26.920  23.871  -4.371  0.00  0.00     0.007 C 
HETATM    5  C   UNK N   1      28.303  24.208  -4.966  0.00  0.00    -0.002 C 
HETATM    6  C   UNK N   1      29.366  23.190  -4.503  0.00  0.00     0.019 C 
HETATM    7  C   UNK N   1      29.596  22.146  -5.581  0.00  0.00     0.017 C 
HETATM    8  C   UNK N   1      30.451  21.000  -5.046  0.00  0.00     0.079 C 
HETATM    9  C   UNK N   1      31.673  21.458  -4.290  0.00  0.00     0.130 C 
HETATM   10  O   UNK N   1      32.497  20.626  -3.945  0.00  0.00    -0.298 OA
HETATM   11  C   UNK N   1      31.905  22.900  -3.920  0.00  0.00     0.112 C 
HETATM   12  C   UNK N   1      30.694  23.777  -4.064  0.00  0.00    -0.072 C 
HETATM   13  C   UNK N   1      30.805  25.062  -3.707  0.00  0.00    -0.023 C 
HETATM   14  C   UNK N   1      29.620  25.970  -3.688  0.00  0.00     0.033 C 
HETATM   15  C   UNK N   1      28.719  25.704  -4.879  0.00  0.00    -0.001 C 
HETATM   16  C   UNK N   1      27.478  26.576  -4.726  0.00  0.00     0.006 C 
HETATM   17  C   UNK N   1      27.561  28.087  -4.809  0.00  0.00     0.013 C 
HETATM   18  C   UNK N   1      26.090  28.499  -4.738  0.00  0.00     0.079 C 
HETATM   19  C   UNK N   1      25.377  27.292  -5.259  0.00  0.00     0.135 C 
HETATM   20  O   UNK N   1      24.195  27.313  -5.563  0.00  0.00    -0.297 OA
ENDROOT
TORSDOF 0
ENDMDL
MODEL 8
REMARK VINA RESULT:      -6.7     12.550     16.388
REMARK  0 active torsions:
REMARK  status: ('A' for Active; 'I' for Inactive)
ROOT
HETATM    1  C   UNK N   1      33.857  14.536   4.363  0.00  0.00     0.024 C 
HETATM    2  C   UNK N   1      32.632  15.297   4.858  0.00  0.00     0.021 C 
HETATM    3  C   UNK N   1      31.829  14.464   5.864  0.00  0.00     0.018 C 
HETATM    4  C   UNK N   1      32.316  14.601   7.330  0.00  0.00     0.007 C 
HETATM    5  C   UNK N   1      33.716  15.230   7.486  0.00  0.00    -0.002 C 
HETATM    6  C   UNK N   1      34.140  15.273   8.969  0.00  0.00     0.019 C 
HETATM    7  C   UNK N   1      35.062  14.109   9.283  0.00  0.00     0.017 C 
HETATM    8  C   UNK N   1      35.288  13.994  10.789  0.00  0.00     0.079 C 
HETATM    9  C   UNK N   1      35.620  15.307  11.454  0.00  0.00     0.130 C 
HETATM   10  O   UNK N   1      35.959  15.304  12.626  0.00  0.00    -0.298 OA
HETATM   11  C   UNK N   1      35.526  16.627  10.734  0.00  0.00     0.112 C 
HETATM   12  C   UNK N   1      34.772  16.571   9.436  0.00  0.00    -0.072 C 
HETATM   13  C   UNK N   1      34.601  17.713   8.761  0.00  0.00    -0.023 C 
HETATM   14  C   UNK N   1      33.750  17.773   7.536  0.00  0.00     0.033 C 
HETATM   15  C   UNK N   1      33.952  16.539   6.679  0.00  0.00    -0.001 C 
HETATM   16  C   UNK N   1      32.967  16.613   5.518  0.00  0.00     0.006 C 
HETATM   17  C   UNK N   1      33.087  17.679   4.448  0.00  0.00     0.013 C 
HETATM   18  C   UNK N   1      31.996  17.272   3.457  0.00  0.00     0.079 C 
HETATM   19  C   UNK N   1      31.856  15.803   3.694  0.00  0.00     0.135 C 
HETATM   20  O   UNK N   1      31.234  15.075   2.938  0.00  0.00    -0.297 OA
ENDROOT
TORSDOF 0
ENDMDL
MODEL 9
REMARK VINA RESULT:      -6.7      1.929      2.796
REMARK  0 active torsions:
REMARK  status: ('A' for Active; 'I' for Inactive)
ROOT
HETATM    1  C   UNK N   1      30.754  22.791  -7.321  0.00  0.00     0.024 C 
HETATM    2  C   UNK N   1      29.925  21.788  -6.525  0.00  0.00     0.021 C 
HETATM    3  C   UNK N   1      30.121  21.980  -5.016  0.00  0.00     0.018 C 
HETATM    4  C   UNK N   1      29.174  23.033  -4.384  0.00  0.00     0.007 C 
HETATM    5  C   UNK N   1      28.476  23.961  -5.401  0.00  0.00    -0.002 C 
HETATM    6  C   UNK N   1      27.603  25.010  -4.680  0.00  0.00     0.019 C 
HETATM    7  C   UNK N   1      28.345  26.331  -4.582  0.00  0.00     0.017 C 
HETATM    8  C   UNK N   1      27.603  27.296  -3.660  0.00  0.00     0.079 C 
HETATM    9  C   UNK N   1      26.123  27.382  -3.938  0.00  0.00     0.130 C 
HETATM   10  O   UNK N   1      25.464  28.228  -3.356  0.00  0.00    -0.298 OA
HETATM   11  C   UNK N   1      25.421  26.447  -4.887  0.00  0.00     0.112 C 
HETATM   12  C   UNK N   1      26.224  25.238  -5.271  0.00  0.00    -0.072 C 
HETATM   13  C   UNK N   1      25.650  24.332  -6.072  0.00  0.00    -0.023 C 
HETATM   14  C   UNK N   1      26.323  23.039  -6.393  0.00  0.00     0.033 C 
HETATM   15  C   UNK N   1      27.810  23.245  -6.609  0.00  0.00    -0.001 C 
HETATM   16  C   UNK N   1      28.445  21.873  -6.809  0.00  0.00     0.006 C 
HETATM   17  C   UNK N   1      28.131  21.028  -8.027  0.00  0.00     0.013 C 
HETATM   18  C   UNK N   1      29.081  19.843  -7.856  0.00  0.00     0.079 C 
HETATM   19  C   UNK N   1      30.187  20.414  -7.027  0.00  0.00     0.135 C 
HETATM   20  O   UNK N   1      31.247  19.832  -6.863  0.00  0.00    -0.297 OA
ENDROOT
TORSDOF 0
ENDMDL
