MODEL 1
REMARK VINA RESULT:      -5.7      0.000      0.000
REMARK  5 active torsions:
REMARK  status: ('A' for Active; 'I' for Inactive)
REMARK    1  A    between atoms: C_2  and  C_1 
REMARK    2  A    between atoms: C_7  and  C_4 
REMARK    3  A    between atoms: C_10  and  C_7 
REMARK    4  A    between atoms: C_10  and  N_8 
REMARK    5  A    between atoms: N_8  and  C_15 
ROOT
HETATM    1  C   UNK N   1      22.934  12.673  10.372  0.00  0.00     0.048 A 
HETATM    2  C   UNK N   1      22.293  13.569   9.500  0.00  0.00     0.023 A 
HETATM    3  C   UNK N   1      20.914  13.794   9.606  0.00  0.00    -0.056 A 
HETATM    4  C   UNK N   1      22.186  12.015  11.357  0.00  0.00     0.016 A 
HETATM    5  C   UNK N   1      20.813  12.237  11.465  0.00  0.00     0.001 A 
HETATM    6  C   UNK N   1      20.179  13.113  10.583  0.00  0.00     0.007 A 
ENDROOT
BRANCH   3   7
HETATM    7  C   UNK N   1      20.233  14.711   8.636  0.00  0.00     0.062 C 
BRANCH   7   8
HETATM    8  C   UNK N   1      20.927  16.065   8.510  0.00  0.00     0.076 C 
HETATM    9  C   UNK N   1      21.359  16.262   7.071  0.00  0.00     0.032 C 
BRANCH   8  10
HETATM   10  N   UNK N   1      19.997  17.134   8.860  0.00  0.00    -0.417 N 
HETATM   11  H   UNK N   1      20.263  18.072   9.161  0.00  0.00     0.153 HD
BRANCH  10  12
HETATM   12  C   UNK N   1      18.630  16.653   8.713  0.00  0.00     0.110 C 
HETATM   13  C   UNK N   1      17.688  17.473   9.575  0.00  0.00     0.026 C 
ENDBRANCH  10  12
ENDBRANCH   8  10
ENDBRANCH   7   8
ENDBRANCH   3   7
BRANCH   1  14
HETATM   14  C   UNK N   1      24.406  12.406  10.228  0.00  0.00     0.417 C 
HETATM   15  F   UNK N   1      24.904  11.885  11.407  0.00  0.00    -0.166 F 
HETATM   16  F   UNK N   1      24.649  11.503   9.205  0.00  0.00    -0.166 F 
HETATM   17  F   UNK N   1      25.062  13.588   9.939  0.00  0.00    -0.166 F 
ENDBRANCH   1  14
TORSDOF 5
ENDMDL
MODEL 2
REMARK VINA RESULT:      -5.7      9.394     11.043
REMARK  5 active torsions:
REMARK  status: ('A' for Active; 'I' for Inactive)
REMARK    1  A    between atoms: C_2  and  C_1 
REMARK    2  A    between atoms: C_7  and  C_4 
REMARK    3  A    between atoms: C_10  and  C_7 
REMARK    4  A    between atoms: C_10  and  N_8 
REMARK    5  A    between atoms: N_8  and  C_15 
ROOT
HETATM    1  C   UNK N   1      33.008  17.444   6.807  0.00  0.00     0.048 A 
HETATM    2  C   UNK N   1      31.646  17.256   7.096  0.00  0.00     0.023 A 
HETATM    3  C   UNK N   1      30.704  17.195   6.061  0.00  0.00    -0.056 A 
HETATM    4  C   UNK N   1      33.419  17.557   5.472  0.00  0.00     0.016 A 
HETATM    5  C   UNK N   1      32.484  17.497   4.438  0.00  0.00     0.001 A 
HETATM    6  C   UNK N   1      31.130  17.330   4.735  0.00  0.00     0.007 A 
ENDROOT
BRANCH   3   7
HETATM    7  C   UNK N   1      29.249  17.048   6.386  0.00  0.00     0.062 C 
BRANCH   7   8
HETATM    8  C   UNK N   1      28.718  18.178   7.265  0.00  0.00     0.076 C 
HETATM    9  C   UNK N   1      27.954  19.156   6.397  0.00  0.00     0.032 C 
BRANCH   8  10
HETATM   10  N   UNK N   1      27.802  17.640   8.265  0.00  0.00    -0.417 N 
HETATM   11  H   UNK N   1      26.812  17.446   8.114  0.00  0.00     0.153 HD
BRANCH  10  12
HETATM   12  C   UNK N   1      28.521  17.423   9.513  0.00  0.00     0.110 C 
HETATM   13  C   UNK N   1      29.509  18.548   9.754  0.00  0.00     0.026 C 
ENDBRANCH  10  12
ENDBRANCH   8  10
ENDBRANCH   7   8
ENDBRANCH   3   7
BRANCH   1  14
HETATM   14  C   UNK N   1      34.008  17.549   7.923  0.00  0.00     0.417 C 
HETATM   15  F   UNK N   1      34.922  16.517   7.831  0.00  0.00    -0.166 F 
HETATM   16  F   UNK N   1      34.691  18.754   7.867  0.00  0.00    -0.166 F 
HETATM   17  F   UNK N   1      33.352  17.469   9.137  0.00  0.00    -0.166 F 
ENDBRANCH   1  14
TORSDOF 5
ENDMDL
MODEL 3
REMARK VINA RESULT:      -5.6      9.789     12.313
REMARK  5 active torsions:
REMARK  status: ('A' for Active; 'I' for Inactive)
REMARK    1  A    between atoms: C_2  and  C_1 
REMARK    2  A    between atoms: C_7  and  C_4 
REMARK    3  A    between atoms: C_10  and  C_7 
REMARK    4  A    between atoms: C_10  and  N_8 
REMARK    5  A    between atoms: N_8  and  C_15 
ROOT
HETATM    1  C   UNK N   1      30.092  17.905   8.298  0.00  0.00     0.048 A 
HETATM    2  C   UNK N   1      31.432  17.968   8.716  0.00  0.00     0.023 A 
HETATM    3  C   UNK N   1      32.463  17.596   7.844  0.00  0.00    -0.056 A 
HETATM    4  C   UNK N   1      29.795  17.480   6.996  0.00  0.00     0.016 A 
HETATM    5  C   UNK N   1      30.820  17.109   6.125  0.00  0.00     0.001 A 
HETATM    6  C   UNK N   1      32.148  17.154   6.554  0.00  0.00     0.007 A 
ENDROOT
BRANCH   3   7
HETATM    7  C   UNK N   1      33.884  17.616   8.320  0.00  0.00     0.062 C 
BRANCH   7   8
HETATM    8  C   UNK N   1      34.206  16.474   9.281  0.00  0.00     0.076 C 
HETATM    9  C   UNK N   1      35.083  15.466   8.567  0.00  0.00     0.032 C 
BRANCH   8  10
HETATM   10  N   UNK N   1      34.941  16.987  10.433  0.00  0.00    -0.417 N 
HETATM   11  H   UNK N   1      34.730  17.853  10.928  0.00  0.00     0.153 HD
BRANCH  10  12
HETATM   12  C   UNK N   1      36.023  16.070  10.764  0.00  0.00     0.110 C 
HETATM   13  C   UNK N   1      35.758  15.403  12.100  0.00  0.00     0.026 C 
ENDBRANCH  10  12
ENDBRANCH   8  10
ENDBRANCH   7   8
ENDBRANCH   3   7
BRANCH   1  14
HETATM   14  C   UNK N   1      28.987  18.267   9.250  0.00  0.00     0.417 C 
HETATM   15  F   UNK N   1      28.046  19.045   8.602  0.00  0.00    -0.166 F 
HETATM   16  F   UNK N   1      28.364  17.131   9.742  0.00  0.00    -0.166 F 
HETATM   17  F   UNK N   1      29.512  18.978  10.313  0.00  0.00    -0.166 F 
ENDBRANCH   1  14
TORSDOF 5
ENDMDL
MODEL 4
REMARK VINA RESULT:      -5.5     15.182     16.350
REMARK  5 active torsions:
REMARK  status: ('A' for Active; 'I' for Inactive)
REMARK    1  A    between atoms: C_2  and  C_1 
REMARK    2  A    between atoms: C_7  and  C_4 
REMARK    3  A    between atoms: C_10  and  C_7 
REMARK    4  A    between atoms: C_10  and  N_8 
REMARK    5  A    between atoms: N_8  and  C_15 
ROOT
HETATM    1  C   UNK N   1      35.294  10.756  18.478  0.00  0.00     0.048 A 
HETATM    2  C   UNK N   1      35.187  11.245  17.166  0.00  0.00     0.023 A 
HETATM    3  C   UNK N   1      35.110  12.623  16.929  0.00  0.00    -0.056 A 
HETATM    4  C   UNK N   1      35.337  11.658  19.549  0.00  0.00     0.016 A 
HETATM    5  C   UNK N   1      35.260  13.032  19.316  0.00  0.00     0.001 A 
HETATM    6  C   UNK N   1      35.134  13.510  18.012  0.00  0.00     0.007 A 
ENDROOT
BRANCH   3   7
HETATM    7  C   UNK N   1      34.942  13.130  15.529  0.00  0.00     0.062 C 
BRANCH   7   8
HETATM    8  C   UNK N   1      36.197  12.951  14.677  0.00  0.00     0.076 C 
HETATM    9  C   UNK N   1      35.904  13.423  13.267  0.00  0.00     0.032 C 
BRANCH   8  10
HETATM   10  N   UNK N   1      37.283  13.763  15.216  0.00  0.00    -0.417 N 
HETATM   11  H   UNK N   1      38.137  13.399  15.640  0.00  0.00     0.153 HD
BRANCH  10  12
HETATM   12  C   UNK N   1      36.958  15.173  15.055  0.00  0.00     0.110 C 
HETATM   13  C   UNK N   1      37.446  15.966  16.253  0.00  0.00     0.026 C 
ENDBRANCH  10  12
ENDBRANCH   8  10
ENDBRANCH   7   8
ENDBRANCH   3   7
BRANCH   1  14
HETATM   14  C   UNK N   1      35.336   9.275  18.730  0.00  0.00     0.417 C 
HETATM   15  F   UNK N   1      36.347   8.701  17.983  0.00  0.00    -0.166 F 
HETATM   16  F   UNK N   1      35.564   9.005  20.070  0.00  0.00    -0.166 F 
HETATM   17  F   UNK N   1      34.127   8.713  18.366  0.00  0.00    -0.166 F 
ENDBRANCH   1  14
TORSDOF 5
ENDMDL
MODEL 5
REMARK VINA RESULT:      -5.5      1.399      2.567
REMARK  5 active torsions:
REMARK  status: ('A' for Active; 'I' for Inactive)
REMARK    1  A    between atoms: C_2  and  C_1 
REMARK    2  A    between atoms: C_7  and  C_4 
REMARK    3  A    between atoms: C_10  and  C_7 
REMARK    4  A    between atoms: C_10  and  N_8 
REMARK    5  A    between atoms: N_8  and  C_15 
ROOT
HETATM    1  C   UNK N   1      22.977  12.705  10.401  0.00  0.00     0.048 A 
HETATM    2  C   UNK N   1      22.433  13.691   9.560  0.00  0.00     0.023 A 
HETATM    3  C   UNK N   1      21.060  13.970   9.593  0.00  0.00    -0.056 A 
HETATM    4  C   UNK N   1      22.137  12.012  11.283  0.00  0.00     0.016 A 
HETATM    5  C   UNK N   1      20.770  12.287  11.317  0.00  0.00     0.001 A 
HETATM    6  C   UNK N   1      20.233  13.254  10.466  0.00  0.00     0.007 A 
ENDROOT
BRANCH   3   7
HETATM    7  C   UNK N   1      20.485  14.986   8.654  0.00  0.00     0.062 C 
BRANCH   7   8
HETATM    8  C   UNK N   1      21.186  15.007   7.297  0.00  0.00     0.076 C 
HETATM    9  C   UNK N   1      20.196  14.594   6.228  0.00  0.00     0.032 C 
BRANCH   8  10
HETATM   10  N   UNK N   1      21.646  16.360   6.998  0.00  0.00    -0.417 N 
HETATM   11  H   UNK N   1      21.259  17.216   7.396  0.00  0.00     0.153 HD
BRANCH  10  12
HETATM   12  C   UNK N   1      22.745  16.297   6.045  0.00  0.00     0.110 C 
HETATM   13  C   UNK N   1      23.809  15.330   6.530  0.00  0.00     0.026 C 
ENDBRANCH  10  12
ENDBRANCH   8  10
ENDBRANCH   7   8
ENDBRANCH   3   7
BRANCH   1  14
HETATM   14  C   UNK N   1      24.442  12.382  10.333  0.00  0.00     0.417 C 
HETATM   15  F   UNK N   1      24.675  11.468   9.324  0.00  0.00    -0.166 F 
HETATM   16  F   UNK N   1      25.191  13.521  10.083  0.00  0.00    -0.166 F 
HETATM   17  F   UNK N   1      24.850  11.842  11.539  0.00  0.00    -0.166 F 
ENDBRANCH   1  14
TORSDOF 5
ENDMDL
MODEL 6
REMARK VINA RESULT:      -5.4     18.184     19.668
REMARK  5 active torsions:
REMARK  status: ('A' for Active; 'I' for Inactive)
REMARK    1  A    between atoms: C_2  and  C_1 
REMARK    2  A    between atoms: C_7  and  C_4 
REMARK    3  A    between atoms: C_10  and  C_7 
REMARK    4  A    between atoms: C_10  and  N_8 
REMARK    5  A    between atoms: N_8  and  C_15 
ROOT
HETATM    1  C   UNK N   1      25.941  26.106  -5.183  0.00  0.00     0.048 A 
HETATM    2  C   UNK N   1      26.747  25.656  -4.124  0.00  0.00     0.023 A 
HETATM    3  C   UNK N   1      27.318  24.378  -4.163  0.00  0.00    -0.056 A 
HETATM    4  C   UNK N   1      25.723  25.270  -6.287  0.00  0.00     0.016 A 
HETATM    5  C   UNK N   1      26.290  23.996  -6.328  0.00  0.00     0.001 A 
HETATM    6  C   UNK N   1      27.073  23.548  -5.263  0.00  0.00     0.007 A 
ENDROOT
BRANCH   3   7
HETATM    7  C   UNK N   1      28.131  23.890  -3.003  0.00  0.00     0.062 C 
BRANCH   7   8
HETATM    8  C   UNK N   1      29.574  23.561  -3.383  0.00  0.00     0.076 C 
HETATM    9  C   UNK N   1      30.337  24.856  -3.572  0.00  0.00     0.032 C 
BRANCH   8  10
HETATM   10  N   UNK N   1      30.210  22.805  -2.309  0.00  0.00    -0.417 N 
HETATM   11  H   UNK N   1      29.989  22.891  -1.317  0.00  0.00     0.153 HD
BRANCH  10  12
HETATM   12  C   UNK N   1      31.210  21.910  -2.875  0.00  0.00     0.110 C 
HETATM   13  C   UNK N   1      30.616  21.114  -4.021  0.00  0.00     0.026 C 
ENDBRANCH  10  12
ENDBRANCH   8  10
ENDBRANCH   7   8
ENDBRANCH   3   7
BRANCH   1  14
HETATM   14  C   UNK N   1      25.299  27.463  -5.118  0.00  0.00     0.417 C 
HETATM   15  F   UNK N   1      24.080  27.436  -5.768  0.00  0.00    -0.166 F 
HETATM   16  F   UNK N   1      25.094  27.853  -3.804  0.00  0.00    -0.166 F 
HETATM   17  F   UNK N   1      26.121  28.390  -5.731  0.00  0.00    -0.166 F 
ENDBRANCH   1  14
TORSDOF 5
ENDMDL
MODEL 7
REMARK VINA RESULT:      -5.4      9.267     10.899
REMARK  5 active torsions:
REMARK  status: ('A' for Active; 'I' for Inactive)
REMARK    1  A    between atoms: C_2  and  C_1 
REMARK    2  A    between atoms: C_7  and  C_4 
REMARK    3  A    between atoms: C_10  and  C_7 
REMARK    4  A    between atoms: C_10  and  N_8 
REMARK    5  A    between atoms: N_8  and  C_15 
ROOT
HETATM    1  C   UNK N   1      27.437  19.762   5.727  0.00  0.00     0.048 A 
HETATM    2  C   UNK N   1      28.019  19.148   6.850  0.00  0.00     0.023 A 
HETATM    3  C   UNK N   1      28.805  17.999   6.700  0.00  0.00    -0.056 A 
HETATM    4  C   UNK N   1      27.660  19.221   4.454  0.00  0.00     0.016 A 
HETATM    5  C   UNK N   1      28.443  18.076   4.301  0.00  0.00     0.001 A 
HETATM    6  C   UNK N   1      29.001  17.461   5.423  0.00  0.00     0.007 A 
ENDROOT
BRANCH   3   7
HETATM    7  C   UNK N   1      29.375  17.324   7.910  0.00  0.00     0.062 C 
BRANCH   7   8
HETATM    8  C   UNK N   1      30.383  18.195   8.658  0.00  0.00     0.076 C 
HETATM    9  C   UNK N   1      29.774  18.628   9.975  0.00  0.00     0.032 C 
BRANCH   8  10
HETATM   10  N   UNK N   1      31.590  17.425   8.941  0.00  0.00    -0.417 N 
HETATM   11  H   UNK N   1      31.635  16.598   9.537  0.00  0.00     0.153 HD
BRANCH  10  12
HETATM   12  C   UNK N   1      32.719  18.020   8.240  0.00  0.00     0.110 C 
HETATM   13  C   UNK N   1      32.842  17.434   6.846  0.00  0.00     0.026 C 
ENDBRANCH  10  12
ENDBRANCH   8  10
ENDBRANCH   7   8
ENDBRANCH   3   7
BRANCH   1  14
HETATM   14  C   UNK N   1      26.562  20.971   5.898  0.00  0.00     0.417 C 
HETATM   15  F   UNK N   1      27.323  22.119   5.786  0.00  0.00    -0.166 F 
HETATM   16  F   UNK N   1      25.566  21.003   4.936  0.00  0.00    -0.166 F 
HETATM   17  F   UNK N   1      25.970  20.937   7.146  0.00  0.00    -0.166 F 
ENDBRANCH   1  14
TORSDOF 5
ENDMDL
MODEL 8
REMARK VINA RESULT:      -5.4      8.402      9.303
REMARK  5 active torsions:
REMARK  status: ('A' for Active; 'I' for Inactive)
REMARK    1  A    between atoms: C_2  and  C_1 
REMARK    2  A    between atoms: C_7  and  C_4 
REMARK    3  A    between atoms: C_10  and  C_7 
REMARK    4  A    between atoms: C_10  and  N_8 
REMARK    5  A    between atoms: N_8  and  C_15 
ROOT
HETATM    1  C   UNK N   1      30.848  17.782   8.023  0.00  0.00     0.048 A 
HETATM    2  C   UNK N   1      29.883  17.455   7.056  0.00  0.00     0.023 A 
HETATM    3  C   UNK N   1      28.520  17.624   7.332  0.00  0.00    -0.056 A 
HETATM    4  C   UNK N   1      30.438  18.292   9.262  0.00  0.00     0.016 A 
HETATM    5  C   UNK N   1      29.081  18.462   9.539  0.00  0.00     0.001 A 
HETATM    6  C   UNK N   1      28.126  18.117   8.582  0.00  0.00     0.007 A 
ENDROOT
BRANCH   3   7
HETATM    7  C   UNK N   1      27.498  17.221   6.312  0.00  0.00     0.062 C 
BRANCH   7   8
HETATM    8  C   UNK N   1      27.215  18.318   5.288  0.00  0.00     0.076 C 
HETATM    9  C   UNK N   1      26.816  17.673   3.977  0.00  0.00     0.032 C 
BRANCH   8  10
HETATM   10  N   UNK N   1      26.107  19.150   5.746  0.00  0.00    -0.417 N 
HETATM   11  H   UNK N   1      25.275  18.810   6.228  0.00  0.00     0.153 HD
BRANCH  10  12
HETATM   12  C   UNK N   1      26.374  20.541   5.408  0.00  0.00     0.110 C 
HETATM   13  C   UNK N   1      27.513  21.080   6.254  0.00  0.00     0.026 C 
ENDBRANCH  10  12
ENDBRANCH   8  10
ENDBRANCH   7   8
ENDBRANCH   3   7
BRANCH   1  14
HETATM   14  C   UNK N   1      32.306  17.561   7.737  0.00  0.00     0.417 C 
HETATM   15  F   UNK N   1      32.497  17.391   6.379  0.00  0.00    -0.166 F 
HETATM   16  F   UNK N   1      33.065  18.640   8.161  0.00  0.00    -0.166 F 
HETATM   17  F   UNK N   1      32.738  16.429   8.402  0.00  0.00    -0.166 F 
ENDBRANCH   1  14
TORSDOF 5
ENDMDL
MODEL 9
REMARK VINA RESULT:      -5.3     19.466     21.815
REMARK  5 active torsions:
REMARK  status: ('A' for Active; 'I' for Inactive)
REMARK    1  A    between atoms: C_2  and  C_1 
REMARK    2  A    between atoms: C_7  and  C_4 
REMARK    3  A    between atoms: C_10  and  C_7 
REMARK    4  A    between atoms: C_10  and  N_8 
REMARK    5  A    between atoms: N_8  and  C_15 
ROOT
HETATM    1  C   UNK N   1      27.632  29.086  -5.856  0.00  0.00     0.048 A 
HETATM    2  C   UNK N   1      26.863  27.951  -6.164  0.00  0.00     0.023 A 
HETATM    3  C   UNK N   1      25.835  27.540  -5.306  0.00  0.00    -0.056 A 
HETATM    4  C   UNK N   1      27.353  29.813  -4.691  0.00  0.00     0.016 A 
HETATM    5  C   UNK N   1      26.329  29.405  -3.835  0.00  0.00     0.001 A 
HETATM    6  C   UNK N   1      25.583  28.265  -4.136  0.00  0.00     0.007 A 
ENDROOT
BRANCH   3   7
HETATM    7  C   UNK N   1      25.058  26.297  -5.618  0.00  0.00     0.062 C 
BRANCH   7   8
HETATM    8  C   UNK N   1      25.947  25.070  -5.807  0.00  0.00     0.076 C 
HETATM    9  C   UNK N   1      26.065  24.343  -4.484  0.00  0.00     0.032 C 
BRANCH   8  10
HETATM   10  N   UNK N   1      25.342  24.163  -6.777  0.00  0.00    -0.417 N 
HETATM   11  H   UNK N   1      24.715  23.391  -6.551  0.00  0.00     0.153 HD
BRANCH  10  12
HETATM   12  C   UNK N   1      25.772  24.533  -8.119  0.00  0.00     0.110 C 
HETATM   13  C   UNK N   1      27.273  24.750  -8.149  0.00  0.00     0.026 C 
ENDBRANCH  10  12
ENDBRANCH   8  10
ENDBRANCH   7   8
ENDBRANCH   3   7
BRANCH   1  14
HETATM   14  C   UNK N   1      28.760  29.500  -6.759  0.00  0.00     0.417 C 
HETATM   15  F   UNK N   1      29.950  28.979  -6.290  0.00  0.00    -0.166 F 
HETATM   16  F   UNK N   1      28.554  29.045  -8.052  0.00  0.00    -0.166 F 
HETATM   17  F   UNK N   1      28.846  30.879  -6.784  0.00  0.00    -0.166 F 
ENDBRANCH   1  14
TORSDOF 5
ENDMDL
