MODEL 1
REMARK VINA RESULT:      -7.4      0.000      0.000
REMARK  5 active torsions:
REMARK  status: ('A' for Active; 'I' for Inactive)
REMARK    1  A    between atoms: C_5  and  O_25 
REMARK    2  A    between atoms: C_9  and  C_17 
REMARK    3  A    between atoms: C_18  and  N_10 
REMARK    4  A    between atoms: C_20  and  C_18 
REMARK    5  A    between atoms: O_28  and  C_19 
ROOT
HETATM    1  C   UNK N   1      28.354  21.480  -7.646  0.00  0.00     0.057 C 
HETATM    2  O   UNK N   1      27.278  20.761  -8.165  0.00  0.00    -0.390 OA
HETATM    3  C   UNK N   1      29.066  22.198  -8.781  0.00  0.00     0.045 C 
HETATM    4  C   UNK N   1      29.372  20.524  -7.053  0.00  0.00     0.045 C 
HETATM    5  H   UNK N   1      26.451  20.309  -8.396  0.00  0.00     0.210 HD
ENDROOT
BRANCH   1   6
HETATM    6  C   UNK N   1      27.868  22.506  -6.597  0.00  0.00     0.057 C 
HETATM    7  C   UNK N   1      26.797  23.603  -6.978  0.00  0.00     0.094 C 
HETATM    8  C   UNK N   1      26.177  24.011  -5.602  0.00  0.00     0.178 C 
HETATM    9  C   UNK N   1      27.528  24.851  -7.593  0.00  0.00     0.042 C 
HETATM   10  C   UNK N   1      27.324  24.561  -4.697  0.00  0.00     0.031 C 
HETATM   11  O   UNK N   1      25.224  25.040  -5.673  0.00  0.00    -0.338 OA
HETATM   12  C   UNK N   1      28.706  24.587  -5.354  0.00  0.00     0.006 C 
HETATM   13  C   UNK N   1      26.906  25.983  -4.584  0.00  0.00    -0.003 C 
HETATM   14  C   UNK N   1      27.379  23.828  -3.310  0.00  0.00     0.048 C 
HETATM   15  C   UNK N   1      29.623  25.226  -4.213  0.00  0.00     0.236 C 
HETATM   16  C   UNK N   1      29.060  23.150  -5.809  0.00  0.00     0.023 C 
HETATM   17  C   UNK N   1      28.656  25.390  -6.677  0.00  0.00     0.016 C 
HETATM   18  N   UNK N   1      29.892  24.229  -3.157  0.00  0.00     0.094 N 
HETATM   19  C   UNK N   1      29.230  26.748  -3.970  0.00  0.00     0.076 C 
HETATM   20  C   UNK N   1      28.790  23.240  -2.963  0.00  0.00     0.274 C 
HETATM   21  C   UNK N   1      27.716  27.045  -4.188  0.00  0.00    -0.046 C 
HETATM   22  C   UNK N   1      27.162  28.335  -4.167  0.00  0.00     0.011 C 
HETATM   23  C   UNK N   1      25.821  28.518  -4.583  0.00  0.00     0.040 C 
HETATM   24  C   UNK N   1      25.084  27.427  -5.097  0.00  0.00     0.099 C 
HETATM   25  C   UNK N   1      25.682  26.162  -5.106  0.00  0.00     0.110 C 
BRANCH   7  26
HETATM   26  O   UNK N   1      25.733  23.094  -7.774  0.00  0.00    -0.382 OA
HETATM   27  C   UNK N   1      25.558  23.843  -8.952  0.00  0.00     0.202 C 
ENDBRANCH   7  26
BRANCH  18  28
HETATM   28  C   UNK N   1      31.168  23.558  -3.379  0.00  0.00     0.277 C 
BRANCH  28  29
HETATM   29  C   UNK N   1      31.169  22.090  -2.902  0.00  0.00     0.014 A 
HETATM   30  C   UNK N   1      32.570  21.504  -2.919  0.00  0.00     0.007 A 
HETATM   31  C   UNK N   1      31.563  21.085  -3.975  0.00  0.00     0.007 A 
ENDBRANCH  28  29
ENDBRANCH  18  28
BRANCH  24  32
HETATM   32  O   UNK N   1      23.850  27.610  -5.593  0.00  0.00    -0.358 OA
HETATM   33  H   UNK N   1      23.092  27.535  -5.047  0.00  0.00     0.217 HD
ENDBRANCH  24  32
ENDBRANCH   1   6
TORSDOF 5
ENDMDL
MODEL 2
REMARK VINA RESULT:      -7.0     15.119     17.204
REMARK  5 active torsions:
REMARK  status: ('A' for Active; 'I' for Inactive)
REMARK    1  A    between atoms: C_5  and  O_25 
REMARK    2  A    between atoms: C_9  and  C_17 
REMARK    3  A    between atoms: C_18  and  N_10 
REMARK    4  A    between atoms: C_20  and  C_18 
REMARK    5  A    between atoms: O_28  and  C_19 
ROOT
HETATM    1  C   UNK N   1      20.243  16.469   4.065  0.00  0.00     0.057 C 
HETATM    2  O   UNK N   1      18.882  16.717   4.238  0.00  0.00    -0.390 OA
HETATM    3  C   UNK N   1      21.033  17.674   4.552  0.00  0.00     0.045 C 
HETATM    4  C   UNK N   1      20.557  16.335   2.587  0.00  0.00     0.045 C 
HETATM    5  H   UNK N   1      17.926  16.735   4.404  0.00  0.00     0.210 HD
ENDROOT
BRANCH   1   6
HETATM    6  C   UNK N   1      20.672  15.208   4.848  0.00  0.00     0.057 C 
HETATM    7  C   UNK N   1      20.527  15.146   6.420  0.00  0.00     0.094 C 
HETATM    8  C   UNK N   1      20.496  13.614   6.730  0.00  0.00     0.178 C 
HETATM    9  C   UNK N   1      21.807  15.770   7.084  0.00  0.00     0.042 C 
HETATM   10  C   UNK N   1      21.828  12.986   6.212  0.00  0.00     0.031 C 
HETATM   11  O   UNK N   1      20.435  13.296   8.097  0.00  0.00    -0.338 OA
HETATM   12  C   UNK N   1      22.803  13.980   5.576  0.00  0.00     0.006 C 
HETATM   13  C   UNK N   1      22.446  12.587   7.503  0.00  0.00    -0.003 C 
HETATM   14  C   UNK N   1      21.570  11.770   5.255  0.00  0.00     0.048 C 
HETATM   15  C   UNK N   1      24.049  13.055   5.199  0.00  0.00     0.236 C 
HETATM   16  C   UNK N   1      22.084  14.692   4.404  0.00  0.00     0.023 C 
HETATM   17  C   UNK N   1      23.119  15.129   6.566  0.00  0.00     0.016 C 
HETATM   18  N   UNK N   1      23.739  12.245   4.004  0.00  0.00     0.094 N 
HETATM   19  C   UNK N   1      24.767  12.525   6.517  0.00  0.00     0.076 C 
HETATM   20  C   UNK N   1      22.295  11.890   3.870  0.00  0.00     0.274 C 
HETATM   21  C   UNK N   1      23.792  12.291   7.709  0.00  0.00    -0.046 C 
HETATM   22  C   UNK N   1      24.212  11.959   9.007  0.00  0.00     0.011 C 
HETATM   23  C   UNK N   1      23.268  11.974  10.062  0.00  0.00     0.040 C 
HETATM   24  C   UNK N   1      21.944  12.406   9.823  0.00  0.00     0.099 C 
HETATM   25  C   UNK N   1      21.576  12.735   8.514  0.00  0.00     0.110 C 
BRANCH   7  26
HETATM   26  O   UNK N   1      19.297  15.686   6.890  0.00  0.00    -0.382 OA
HETATM   27  C   UNK N   1      19.500  16.624   7.920  0.00  0.00     0.202 C 
ENDBRANCH   7  26
BRANCH  18  28
HETATM   28  C   UNK N   1      24.239  12.883   2.791  0.00  0.00     0.277 C 
BRANCH  28  29
HETATM   29  C   UNK N   1      23.221  12.855   1.631  0.00  0.00     0.014 A 
HETATM   30  C   UNK N   1      23.912  12.664   0.293  0.00  0.00     0.007 A 
HETATM   31  C   UNK N   1      23.344  14.022   0.663  0.00  0.00     0.007 A 
ENDBRANCH  28  29
ENDBRANCH  18  28
BRANCH  24  32
HETATM   32  O   UNK N   1      21.071  12.527  10.836  0.00  0.00    -0.358 OA
HETATM   33  H   UNK N   1      20.307  13.063  10.755  0.00  0.00     0.217 HD
ENDBRANCH  24  32
ENDBRANCH   1   6
TORSDOF 5
ENDMDL
MODEL 3
REMARK VINA RESULT:      -6.9     13.312     14.883
REMARK  5 active torsions:
REMARK  status: ('A' for Active; 'I' for Inactive)
REMARK    1  A    between atoms: C_5  and  O_25 
REMARK    2  A    between atoms: C_9  and  C_17 
REMARK    3  A    between atoms: C_18  and  N_10 
REMARK    4  A    between atoms: C_20  and  C_18 
REMARK    5  A    between atoms: O_28  and  C_19 
ROOT
HETATM    1  C   UNK N   1      22.436  12.203   4.082  0.00  0.00     0.057 C 
HETATM    2  O   UNK N   1      22.143  11.389   2.989  0.00  0.00    -0.390 OA
HETATM    3  C   UNK N   1      23.934  12.464   4.119  0.00  0.00     0.045 C 
HETATM    4  C   UNK N   1      22.108  11.472   5.370  0.00  0.00     0.045 C 
HETATM    5  H   UNK N   1      21.809  10.916   2.210  0.00  0.00     0.210 HD
ENDROOT
BRANCH   1   6
HETATM    6  C   UNK N   1      21.672  13.543   3.985  0.00  0.00     0.057 C 
HETATM    7  C   UNK N   1      21.754  14.426   2.677  0.00  0.00     0.094 C 
HETATM    8  C   UNK N   1      20.466  15.311   2.745  0.00  0.00     0.178 C 
HETATM    9  C   UNK N   1      23.014  15.361   2.761  0.00  0.00     0.042 C 
HETATM   10  C   UNK N   1      20.523  16.152   4.059  0.00  0.00     0.031 C 
HETATM   11  O   UNK N   1      20.344  16.244   1.703  0.00  0.00    -0.338 OA
HETATM   12  C   UNK N   1      21.778  15.934   4.909  0.00  0.00     0.006 C 
HETATM   13  C   UNK N   1      20.659  17.517   3.486  0.00  0.00    -0.003 C 
HETATM   14  C   UNK N   1      19.226  15.978   4.924  0.00  0.00     0.048 C 
HETATM   15  C   UNK N   1      21.556  16.944   6.125  0.00  0.00     0.236 C 
HETATM   16  C   UNK N   1      21.875  14.429   5.262  0.00  0.00     0.023 C 
HETATM   17  C   UNK N   1      23.050  16.196   4.066  0.00  0.00     0.016 C 
HETATM   18  N   UNK N   1      20.549  16.403   7.061  0.00  0.00     0.094 N 
HETATM   19  C   UNK N   1      21.633  18.451   5.618  0.00  0.00     0.076 C 
HETATM   20  C   UNK N   1      19.508  15.555   6.407  0.00  0.00     0.274 C 
HETATM   21  C   UNK N   1      21.103  18.649   4.166  0.00  0.00    -0.046 C 
HETATM   22  C   UNK N   1      21.199  19.858   3.459  0.00  0.00     0.011 C 
HETATM   23  C   UNK N   1      20.880  19.878   2.079  0.00  0.00     0.040 C 
HETATM   24  C   UNK N   1      20.560  18.676   1.409  0.00  0.00     0.099 C 
HETATM   25  C   UNK N   1      20.486  17.495   2.155  0.00  0.00     0.110 C 
BRANCH   7  26
HETATM   26  O   UNK N   1      21.665  13.662   1.480  0.00  0.00    -0.382 OA
HETATM   27  C   UNK N   1      22.799  13.840   0.665  0.00  0.00     0.202 C 
ENDBRANCH   7  26
BRANCH  18  28
HETATM   28  C   UNK N   1      21.185  15.696   8.167  0.00  0.00     0.277 C 
BRANCH  28  29
HETATM   29  C   UNK N   1      20.454  14.391   8.549  0.00  0.00     0.014 A 
HETATM   30  C   UNK N   1      20.896  13.888   9.912  0.00  0.00     0.007 A 
HETATM   31  C   UNK N   1      21.362  13.175   8.656  0.00  0.00     0.007 A 
ENDBRANCH  28  29
ENDBRANCH  18  28
BRANCH  24  32
HETATM   32  O   UNK N   1      20.362  18.666   0.081  0.00  0.00    -0.358 OA
HETATM   33  H   UNK N   1      20.960  19.094  -0.501  0.00  0.00     0.217 HD
ENDBRANCH  24  32
ENDBRANCH   1   6
TORSDOF 5
ENDMDL
MODEL 4
REMARK VINA RESULT:      -6.8     13.716     15.667
REMARK  5 active torsions:
REMARK  status: ('A' for Active; 'I' for Inactive)
REMARK    1  A    between atoms: C_5  and  O_25 
REMARK    2  A    between atoms: C_9  and  C_17 
REMARK    3  A    between atoms: C_18  and  N_10 
REMARK    4  A    between atoms: C_20  and  C_18 
REMARK    5  A    between atoms: O_28  and  C_19 
ROOT
HETATM    1  C   UNK N   1      21.797  14.101   1.461  0.00  0.00     0.057 C 
HETATM    2  O   UNK N   1      21.013  12.954   1.353  0.00  0.00    -0.390 OA
HETATM    3  C   UNK N   1      21.068  15.265   0.807  0.00  0.00     0.045 C 
HETATM    4  C   UNK N   1      23.083  13.921   0.677  0.00  0.00     0.045 C 
HETATM    5  H   UNK N   1      20.516  12.124   1.429  0.00  0.00     0.210 HD
ENDROOT
BRANCH   1   6
HETATM    6  C   UNK N   1      22.085  14.428   2.944  0.00  0.00     0.057 C 
HETATM    7  C   UNK N   1      21.530  13.500   4.097  0.00  0.00     0.094 C 
HETATM    8  C   UNK N   1      22.475  13.805   5.305  0.00  0.00     0.178 C 
HETATM    9  C   UNK N   1      20.072  13.952   4.470  0.00  0.00     0.042 C 
HETATM   10  C   UNK N   1      22.366  15.326   5.636  0.00  0.00     0.031 C 
HETATM   11  O   UNK N   1      22.137  13.134   6.493  0.00  0.00    -0.338 OA
HETATM   12  C   UNK N   1      21.390  16.109   4.754  0.00  0.00     0.006 C 
HETATM   13  C   UNK N   1      21.727  15.255   6.976  0.00  0.00    -0.003 C 
HETATM   14  C   UNK N   1      23.772  16.022   5.665  0.00  0.00     0.048 C 
HETATM   15  C   UNK N   1      21.476  17.584   5.360  0.00  0.00     0.236 C 
HETATM   16  C   UNK N   1      21.820  15.937   3.276  0.00  0.00     0.023 C 
HETATM   17  C   UNK N   1      19.983  15.463   4.805  0.00  0.00     0.016 C 
HETATM   18  N   UNK N   1      22.734  18.235   4.942  0.00  0.00     0.094 N 
HETATM   19  C   UNK N   1      20.858  17.619   6.826  0.00  0.00     0.076 C 
HETATM   20  C   UNK N   1      23.870  17.286   4.744  0.00  0.00     0.274 C 
HETATM   21  C   UNK N   1      21.066  16.297   7.625  0.00  0.00    -0.046 C 
HETATM   22  C   UNK N   1      20.492  16.045   8.880  0.00  0.00     0.011 C 
HETATM   23  C   UNK N   1      20.569  14.740   9.425  0.00  0.00     0.040 C 
HETATM   24  C   UNK N   1      21.136  13.689   8.670  0.00  0.00     0.099 C 
HETATM   25  C   UNK N   1      21.688  13.988   7.419  0.00  0.00     0.110 C 
BRANCH   7  26
HETATM   26  O   UNK N   1      21.662  12.113   3.811  0.00  0.00    -0.382 OA
HETATM   27  C   UNK N   1      23.009  11.704   3.825  0.00  0.00     0.202 C 
ENDBRANCH   7  26
BRANCH  18  28
HETATM   28  C   UNK N   1      22.529  19.065   3.760  0.00  0.00     0.277 C 
BRANCH  28  29
HETATM   29  C   UNK N   1      21.082  19.590   3.635  0.00  0.00     0.014 A 
HETATM   30  C   UNK N   1      20.509  19.309   2.257  0.00  0.00     0.007 A 
HETATM   31  C   UNK N   1      20.914  20.723   2.633  0.00  0.00     0.007 A 
ENDBRANCH  28  29
ENDBRANCH  18  28
BRANCH  24  32
HETATM   32  O   UNK N   1      21.117  12.428   9.131  0.00  0.00    -0.358 OA
HETATM   33  H   UNK N   1      20.340  11.906   9.082  0.00  0.00     0.217 HD
ENDBRANCH  24  32
ENDBRANCH   1   6
TORSDOF 5
ENDMDL
MODEL 5
REMARK VINA RESULT:      -6.8      2.012      4.870
REMARK  5 active torsions:
REMARK  status: ('A' for Active; 'I' for Inactive)
REMARK    1  A    between atoms: C_5  and  O_25 
REMARK    2  A    between atoms: C_9  and  C_17 
REMARK    3  A    between atoms: C_18  and  N_10 
REMARK    4  A    between atoms: C_20  and  C_18 
REMARK    5  A    between atoms: O_28  and  C_19 
ROOT
HETATM    1  C   UNK N   1      30.611  22.881  -4.148  0.00  0.00     0.057 C 
HETATM    2  O   UNK N   1      30.801  21.506  -4.269  0.00  0.00    -0.390 OA
HETATM    3  C   UNK N   1      31.772  23.603  -4.815  0.00  0.00     0.045 C 
HETATM    4  C   UNK N   1      30.658  23.281  -2.685  0.00  0.00     0.045 C 
HETATM    5  H   UNK N   1      30.775  20.542  -4.380  0.00  0.00     0.210 HD
ENDROOT
BRANCH   1   6
HETATM    6  C   UNK N   1      29.279  23.308  -4.805  0.00  0.00     0.057 C 
HETATM    7  C   UNK N   1      28.875  22.766  -6.233  0.00  0.00     0.094 C 
HETATM    8  C   UNK N   1      27.320  22.931  -6.266  0.00  0.00     0.178 C 
HETATM    9  C   UNK N   1      29.504  23.691  -7.337  0.00  0.00     0.042 C 
HETATM   10  C   UNK N   1      26.987  24.443  -6.067  0.00  0.00     0.031 C 
HETATM   11  O   UNK N   1      26.721  22.570  -7.484  0.00  0.00    -0.338 OA
HETATM   12  C   UNK N   1      28.207  25.356  -5.917  0.00  0.00     0.006 C 
HETATM   13  C   UNK N   1      26.410  24.760  -7.399  0.00  0.00    -0.003 C 
HETATM   14  C   UNK N   1      25.974  24.670  -4.890  0.00  0.00     0.048 C 
HETATM   15  C   UNK N   1      27.546  26.803  -5.776  0.00  0.00     0.236 C 
HETATM   16  C   UNK N   1      29.050  24.856  -4.718  0.00  0.00     0.023 C 
HETATM   17  C   UNK N   1      29.156  25.188  -7.129  0.00  0.00     0.016 C 
HETATM   18  N   UNK N   1      26.968  26.971  -4.427  0.00  0.00     0.094 N 
HETATM   19  C   UNK N   1      26.848  27.231  -7.141  0.00  0.00     0.076 C 
HETATM   20  C   UNK N   1      26.469  25.701  -3.819  0.00  0.00     0.274 C 
HETATM   21  C   UNK N   1      26.250  26.034  -7.940  0.00  0.00    -0.046 C 
HETATM   22  C   UNK N   1      25.712  26.149  -9.231  0.00  0.00     0.011 C 
HETATM   23  C   UNK N   1      25.388  24.973  -9.951  0.00  0.00     0.040 C 
HETATM   24  C   UNK N   1      25.690  23.704  -9.407  0.00  0.00     0.099 C 
HETATM   25  C   UNK N   1      26.234  23.641  -8.120  0.00  0.00     0.110 C 
BRANCH   7  26
HETATM   26  O   UNK N   1      29.145  21.380  -6.403  0.00  0.00    -0.382 OA
HETATM   27  C   UNK N   1      29.884  21.133  -7.576  0.00  0.00     0.202 C 
ENDBRANCH   7  26
BRANCH  18  28
HETATM   28  C   UNK N   1      27.902  27.650  -3.536  0.00  0.00     0.277 C 
BRANCH  28  29
HETATM   29  C   UNK N   1      27.304  28.915  -2.885  0.00  0.00     0.014 A 
HETATM   30  C   UNK N   1      26.342  29.618  -3.826  0.00  0.00     0.007 A 
HETATM   31  C   UNK N   1      27.711  30.216  -3.560  0.00  0.00     0.007 A 
ENDBRANCH  28  29
ENDBRANCH  18  28
BRANCH  24  32
HETATM   32  O   UNK N   1      25.486  22.588 -10.125  0.00  0.00    -0.358 OA
HETATM   33  H   UNK N   1      26.133  21.910 -10.160  0.00  0.00     0.217 HD
ENDBRANCH  24  32
ENDBRANCH   1   6
TORSDOF 5
ENDMDL
MODEL 6
REMARK VINA RESULT:      -6.8      2.469      4.726
REMARK  5 active torsions:
REMARK  status: ('A' for Active; 'I' for Inactive)
REMARK    1  A    between atoms: C_5  and  O_25 
REMARK    2  A    between atoms: C_9  and  C_17 
REMARK    3  A    between atoms: C_18  and  N_10 
REMARK    4  A    between atoms: C_20  and  C_18 
REMARK    5  A    between atoms: O_28  and  C_19 
ROOT
HETATM    1  C   UNK N   1      30.464  21.997  -4.868  0.00  0.00     0.057 C 
HETATM    2  O   UNK N   1      30.145  21.582  -3.576  0.00  0.00    -0.390 OA
HETATM    3  C   UNK N   1      29.984  20.948  -5.859  0.00  0.00     0.045 C 
HETATM    4  C   UNK N   1      31.971  22.063  -5.029  0.00  0.00     0.045 C 
HETATM    5  H   UNK N   1      29.886  21.448  -2.651  0.00  0.00     0.210 HD
ENDROOT
BRANCH   1   6
HETATM    6  C   UNK N   1      29.804  23.358  -5.183  0.00  0.00     0.057 C 
HETATM    7  C   UNK N   1      29.365  24.330  -4.018  0.00  0.00     0.094 C 
HETATM    8  C   UNK N   1      29.310  25.734  -4.705  0.00  0.00     0.178 C 
HETATM    9  C   UNK N   1      27.918  23.946  -3.539  0.00  0.00     0.042 C 
HETATM   10  C   UNK N   1      28.274  25.665  -5.870  0.00  0.00     0.031 C 
HETATM   11  O   UNK N   1      28.873  26.776  -3.871  0.00  0.00    -0.338 OA
HETATM   12  C   UNK N   1      27.579  24.310  -6.034  0.00  0.00     0.006 C 
HETATM   13  C   UNK N   1      27.234  26.589  -5.347  0.00  0.00    -0.003 C 
HETATM   14  C   UNK N   1      28.890  26.143  -7.232  0.00  0.00     0.048 C 
HETATM   15  C   UNK N   1      26.577  24.576  -7.249  0.00  0.00     0.236 C 
HETATM   16  C   UNK N   1      28.663  23.226  -6.250  0.00  0.00     0.023 C 
HETATM   17  C   UNK N   1      26.899  23.892  -4.707  0.00  0.00     0.016 C 
HETATM   18  N   UNK N   1      27.319  24.608  -8.525  0.00  0.00     0.094 N 
HETATM   19  C   UNK N   1      25.437  25.599  -6.816  0.00  0.00     0.076 C 
HETATM   20  C   UNK N   1      28.719  25.112  -8.399  0.00  0.00     0.274 C 
HETATM   21  C   UNK N   1      25.912  26.664  -5.783  0.00  0.00    -0.046 C 
HETATM   22  C   UNK N   1      25.054  27.579  -5.154  0.00  0.00     0.011 C 
HETATM   23  C   UNK N   1      25.545  28.362  -4.080  0.00  0.00     0.040 C 
HETATM   24  C   UNK N   1      26.855  28.154  -3.594  0.00  0.00     0.099 C 
HETATM   25  C   UNK N   1      27.671  27.225  -4.249  0.00  0.00     0.110 C 
BRANCH   7  26
HETATM   26  O   UNK N   1      30.325  24.421  -2.972  0.00  0.00    -0.382 OA
HETATM   27  C   UNK N   1      31.462  25.149  -3.371  0.00  0.00     0.202 C 
ENDBRANCH   7  26
BRANCH  18  28
HETATM   28  C   UNK N   1      27.286  23.307  -9.185  0.00  0.00     0.277 C 
BRANCH  28  29
HETATM   29  C   UNK N   1      26.037  22.477  -8.819  0.00  0.00     0.014 A 
HETATM   30  C   UNK N   1      26.420  21.112  -8.274  0.00  0.00     0.007 A 
HETATM   31  C   UNK N   1      25.842  21.232  -9.672  0.00  0.00     0.007 A 
ENDBRANCH  28  29
ENDBRANCH  18  28
BRANCH  24  32
HETATM   32  O   UNK N   1      27.294  28.814  -2.510  0.00  0.00    -0.358 OA
HETATM   33  H   UNK N   1      26.943  29.651  -2.278  0.00  0.00     0.217 HD
ENDBRANCH  24  32
ENDBRANCH   1   6
TORSDOF 5
ENDMDL
MODEL 7
REMARK VINA RESULT:      -6.6     12.583     15.734
REMARK  5 active torsions:
REMARK  status: ('A' for Active; 'I' for Inactive)
REMARK    1  A    between atoms: C_5  and  O_25 
REMARK    2  A    between atoms: C_9  and  C_17 
REMARK    3  A    between atoms: C_18  and  N_10 
REMARK    4  A    between atoms: C_20  and  C_18 
REMARK    5  A    between atoms: O_28  and  C_19 
ROOT
HETATM    1  C   UNK N   1      29.851  17.503   9.035  0.00  0.00     0.057 C 
HETATM    2  O   UNK N   1      30.077  16.883  10.263  0.00  0.00    -0.390 OA
HETATM    3  C   UNK N   1      30.627  18.810   8.989  0.00  0.00     0.045 C 
HETATM    4  C   UNK N   1      28.387  17.883   8.913  0.00  0.00     0.045 C 
HETATM    5  H   UNK N   1      30.240  16.314  11.032  0.00  0.00     0.210 HD
ENDROOT
BRANCH   1   6
HETATM    6  C   UNK N   1      30.293  16.587   7.871  0.00  0.00     0.057 C 
HETATM    7  C   UNK N   1      31.755  15.989   7.826  0.00  0.00     0.094 C 
HETATM    8  C   UNK N   1      31.615  14.737   6.900  0.00  0.00     0.178 C 
HETATM    9  C   UNK N   1      32.718  17.022   7.137  0.00  0.00     0.042 C 
HETATM   10  C   UNK N   1      31.106  15.219   5.505  0.00  0.00     0.031 C 
HETATM   11  O   UNK N   1      32.819  14.059   6.649  0.00  0.00    -0.338 OA
HETATM   12  C   UNK N   1      30.899  16.731   5.382  0.00  0.00     0.006 C 
HETATM   13  C   UNK N   1      32.298  14.909   4.673  0.00  0.00    -0.003 C 
HETATM   14  C   UNK N   1      29.821  14.442   5.049  0.00  0.00     0.048 C 
HETATM   15  C   UNK N   1      30.430  16.898   3.865  0.00  0.00     0.236 C 
HETATM   16  C   UNK N   1      29.897  17.179   6.475  0.00  0.00     0.023 C 
HETATM   17  C   UNK N   1      32.203  17.483   5.750  0.00  0.00     0.016 C 
HETATM   18  N   UNK N   1      29.027  16.463   3.714  0.00  0.00     0.094 N 
HETATM   19  C   UNK N   1      31.622  16.542   2.873  0.00  0.00     0.076 C 
HETATM   20  C   UNK N   1      28.625  15.375   4.655  0.00  0.00     0.274 C 
HETATM   21  C   UNK N   1      32.573  15.431   3.411  0.00  0.00    -0.046 C 
HETATM   22  C   UNK N   1      33.766  15.050   2.776  0.00  0.00     0.011 C 
HETATM   23  C   UNK N   1      34.661  14.184   3.451  0.00  0.00     0.040 C 
HETATM   24  C   UNK N   1      34.395  13.786   4.780  0.00  0.00     0.099 C 
HETATM   25  C   UNK N   1      33.196  14.199   5.374  0.00  0.00     0.110 C 
BRANCH   7  26
HETATM   26  O   UNK N   1      32.205  15.517   9.091  0.00  0.00    -0.382 OA
HETATM   27  C   UNK N   1      33.512  15.957   9.375  0.00  0.00     0.202 C 
ENDBRANCH   7  26
BRANCH  18  28
HETATM   28  C   UNK N   1      28.113  17.596   3.798  0.00  0.00     0.277 C 
BRANCH  28  29
HETATM   29  C   UNK N   1      26.744  17.223   4.408  0.00  0.00     0.014 A 
HETATM   30  C   UNK N   1      25.600  17.768   3.571  0.00  0.00     0.007 A 
HETATM   31  C   UNK N   1      25.936  18.414   4.902  0.00  0.00     0.007 A 
ENDBRANCH  28  29
ENDBRANCH  18  28
BRANCH  24  32
HETATM   32  O   UNK N   1      35.287  13.055   5.466  0.00  0.00    -0.358 OA
HETATM   33  H   UNK N   1      35.951  12.561   5.025  0.00  0.00     0.217 HD
ENDBRANCH  24  32
ENDBRANCH   1   6
TORSDOF 5
ENDMDL
MODEL 8
REMARK VINA RESULT:      -6.5     11.715     14.193
REMARK  5 active torsions:
REMARK  status: ('A' for Active; 'I' for Inactive)
REMARK    1  A    between atoms: C_5  and  O_25 
REMARK    2  A    between atoms: C_9  and  C_17 
REMARK    3  A    between atoms: C_18  and  N_10 
REMARK    4  A    between atoms: C_20  and  C_18 
REMARK    5  A    between atoms: O_28  and  C_19 
ROOT
HETATM    1  C   UNK N   1      28.000  18.520   5.777  0.00  0.00     0.057 C 
HETATM    2  O   UNK N   1      26.737  17.949   5.931  0.00  0.00    -0.390 OA
HETATM    3  C   UNK N   1      28.646  18.673   7.146  0.00  0.00     0.045 C 
HETATM    4  C   UNK N   1      27.864  19.925   5.221  0.00  0.00     0.045 C 
HETATM    5  H   UNK N   1      25.895  17.468   5.906  0.00  0.00     0.210 HD
ENDROOT
BRANCH   1   6
HETATM    6  C   UNK N   1      28.890  17.640   4.871  0.00  0.00     0.057 C 
HETATM    7  C   UNK N   1      28.298  16.360   4.158  0.00  0.00     0.094 C 
HETATM    8  C   UNK N   1      29.270  16.123   2.956  0.00  0.00     0.178 C 
HETATM    9  C   UNK N   1      28.393  15.132   5.134  0.00  0.00     0.042 C 
HETATM   10  C   UNK N   1      30.705  15.898   3.527  0.00  0.00     0.031 C 
HETATM   11  O   UNK N   1      28.984  14.979   2.192  0.00  0.00    -0.338 OA
HETATM   12  C   UNK N   1      30.803  15.941   5.055  0.00  0.00     0.006 C 
HETATM   13  C   UNK N   1      30.914  14.476   3.151  0.00  0.00    -0.003 C 
HETATM   14  C   UNK N   1      31.754  16.866   2.874  0.00  0.00     0.048 C 
HETATM   15  C   UNK N   1      32.350  15.642   5.314  0.00  0.00     0.236 C 
HETATM   16  C   UNK N   1      30.267  17.309   5.543  0.00  0.00     0.023 C 
HETATM   17  C   UNK N   1      29.826  14.917   5.684  0.00  0.00     0.016 C 
HETATM   18  N   UNK N   1      33.161  16.836   5.000  0.00  0.00     0.094 N 
HETATM   19  C   UNK N   1      32.705  14.147   4.898  0.00  0.00     0.076 C 
HETATM   20  C   UNK N   1      32.588  17.688   3.915  0.00  0.00     0.274 C 
HETATM   21  C   UNK N   1      31.868  13.618   3.695  0.00  0.00    -0.046 C 
HETATM   22  C   UNK N   1      31.907  12.290   3.241  0.00  0.00     0.011 C 
HETATM   23  C   UNK N   1      30.958  11.860   2.282  0.00  0.00     0.040 C 
HETATM   24  C   UNK N   1      29.932  12.734   1.859  0.00  0.00     0.099 C 
HETATM   25  C   UNK N   1      29.930  14.046   2.347  0.00  0.00     0.110 C 
BRANCH   7  26
HETATM   26  O   UNK N   1      27.005  16.575   3.605  0.00  0.00    -0.382 OA
HETATM   27  C   UNK N   1      26.159  15.469   3.815  0.00  0.00     0.202 C 
ENDBRANCH   7  26
BRANCH  18  28
HETATM   28  C   UNK N   1      33.428  17.621   6.200  0.00  0.00     0.277 C 
BRANCH  28  29
HETATM   29  C   UNK N   1      33.407  16.775   7.491  0.00  0.00     0.014 A 
HETATM   30  C   UNK N   1      32.508  17.396   8.545  0.00  0.00     0.007 A 
HETATM   31  C   UNK N   1      34.016  17.467   8.701  0.00  0.00     0.007 A 
ENDBRANCH  28  29
ENDBRANCH  18  28
BRANCH  24  32
HETATM   32  O   UNK N   1      28.965  12.304   1.033  0.00  0.00    -0.358 OA
HETATM   33  H   UNK N   1      28.084  12.613   1.117  0.00  0.00     0.217 HD
ENDBRANCH  24  32
ENDBRANCH   1   6
TORSDOF 5
ENDMDL
MODEL 9
REMARK VINA RESULT:      -6.4     12.710     15.221
REMARK  5 active torsions:
REMARK  status: ('A' for Active; 'I' for Inactive)
REMARK    1  A    between atoms: C_5  and  O_25 
REMARK    2  A    between atoms: C_9  and  C_17 
REMARK    3  A    between atoms: C_18  and  N_10 
REMARK    4  A    between atoms: C_20  and  C_18 
REMARK    5  A    between atoms: O_28  and  C_19 
ROOT
HETATM    1  C   UNK N   1      33.807  12.613   3.396  0.00  0.00     0.057 C 
HETATM    2  O   UNK N   1      34.737  12.019   4.248  0.00  0.00    -0.390 OA
HETATM    3  C   UNK N   1      32.591  11.707   3.280  0.00  0.00     0.045 C 
HETATM    4  C   UNK N   1      34.384  12.716   1.997  0.00  0.00     0.045 C 
HETATM    5  H   UNK N   1      35.408  11.755   4.897  0.00  0.00     0.210 HD
ENDROOT
BRANCH   1   6
HETATM    6  C   UNK N   1      33.382  13.998   3.933  0.00  0.00     0.057 C 
HETATM    7  C   UNK N   1      34.195  14.697   5.094  0.00  0.00     0.094 C 
HETATM    8  C   UNK N   1      33.842  16.212   4.934  0.00  0.00     0.178 C 
HETATM    9  C   UNK N   1      33.652  14.196   6.482  0.00  0.00     0.042 C 
HETATM   10  C   UNK N   1      32.296  16.370   5.086  0.00  0.00     0.031 C 
HETATM   11  O   UNK N   1      34.405  17.049   5.912  0.00  0.00    -0.338 OA
HETATM   12  C   UNK N   1      31.540  15.068   5.363  0.00  0.00     0.006 C 
HETATM   13  C   UNK N   1      32.238  17.146   6.352  0.00  0.00    -0.003 C 
HETATM   14  C   UNK N   1      31.663  17.133   3.870  0.00  0.00     0.048 C 
HETATM   15  C   UNK N   1      30.029  15.564   5.504  0.00  0.00     0.236 C 
HETATM   16  C   UNK N   1      31.842  14.071   4.217  0.00  0.00     0.023 C 
HETATM   17  C   UNK N   1      32.118  14.369   6.619  0.00  0.00     0.016 C 
HETATM   18  N   UNK N   1      29.468  15.874   4.174  0.00  0.00     0.094 N 
HETATM   19  C   UNK N   1      29.856  16.453   6.813  0.00  0.00     0.076 C 
HETATM   20  C   UNK N   1      30.477  16.366   3.190  0.00  0.00     0.274 C 
HETATM   21  C   UNK N   1      31.121  17.287   7.174  0.00  0.00    -0.046 C 
HETATM   22  C   UNK N   1      31.252  18.035   8.355  0.00  0.00     0.011 C 
HETATM   23  C   UNK N   1      32.514  18.584   8.688  0.00  0.00     0.040 C 
HETATM   24  C   UNK N   1      33.643  18.303   7.886  0.00  0.00     0.099 C 
HETATM   25  C   UNK N   1      33.464  17.545   6.723  0.00  0.00     0.110 C 
BRANCH   7  26
HETATM   26  O   UNK N   1      35.604  14.584   4.937  0.00  0.00    -0.382 OA
HETATM   27  C   UNK N   1      36.248  14.350   6.167  0.00  0.00     0.202 C 
ENDBRANCH   7  26
BRANCH  18  28
HETATM   28  C   UNK N   1      28.721  14.740   3.640  0.00  0.00     0.277 C 
BRANCH  28  29
HETATM   29  C   UNK N   1      28.122  15.015   2.245  0.00  0.00     0.014 A 
HETATM   30  C   UNK N   1      26.764  15.686   2.349  0.00  0.00     0.007 A 
HETATM   31  C   UNK N   1      26.856  14.227   1.943  0.00  0.00     0.007 A 
ENDBRANCH  28  29
ENDBRANCH  18  28
BRANCH  24  32
HETATM   32  O   UNK N   1      34.863  18.729   8.250  0.00  0.00    -0.358 OA
HETATM   33  H   UNK N   1      35.168  19.584   8.016  0.00  0.00     0.217 HD
ENDBRANCH  24  32
ENDBRANCH   1   6
TORSDOF 5
ENDMDL
