REMARK  5 active torsions:
REMARK  status: ('A' for Active; 'I' for Inactive)
REMARK    1  A    between atoms: C_5  and  O_25 
REMARK    2  A    between atoms: C_9  and  C_17 
REMARK    3  A    between atoms: C_18  and  N_10 
REMARK    4  A    between atoms: C_20  and  C_18 
REMARK    5  A    between atoms: O_28  and  C_19 
ROOT
HETATM    1  C   UNK N   1      -3.539   1.447  -0.192  0.00  0.00     0.057 C 
HETATM    2  O   UNK N   1      -3.705   1.606  -1.567  0.00  0.00    -0.390 OA
HETATM    3  C   UNK N   1      -4.274   0.193   0.255  0.00  0.00     0.045 C 
HETATM    4  C   UNK N   1      -4.197   2.600   0.542  0.00  0.00     0.045 C 
HETATM    5  H   UNK N   1      -3.666   1.762  -2.524  0.00  0.00     0.210 HD
ENDROOT
BRANCH   1   6
HETATM    6  C   UNK N   1      -2.040   1.334   0.167  0.00  0.00     0.057 C 
HETATM    7  C   UNK N   1      -1.052   2.536  -0.108  0.00  0.00     0.094 C 
HETATM    8  C   UNK N   1       0.136   2.272   0.874  0.00  0.00     0.178 C 
HETATM    9  C   UNK N   1      -0.518   2.442  -1.583  0.00  0.00     0.042 C 
HETATM   10  C   UNK N   1       0.752   0.880   0.529  0.00  0.00     0.031 C 
HETATM   11  O   UNK N   1       1.194   3.190   0.770  0.00  0.00    -0.338 OA
HETATM   12  C   UNK N   1       0.089   0.156  -0.646  0.00  0.00     0.006 C 
HETATM   13  C   UNK N   1       2.089   1.303   0.037  0.00  0.00    -0.003 C 
HETATM   14  C   UNK N   1       0.830  -0.055   1.787  0.00  0.00     0.048 C 
HETATM   15  C   UNK N   1       0.955  -1.180  -0.767  0.00  0.00     0.236 C 
HETATM   16  C   UNK N   1      -1.417  -0.016  -0.329  0.00  0.00     0.023 C 
HETATM   17  C   UNK N   1       0.099   1.057  -1.906  0.00  0.00     0.016 C 
HETATM   18  N   UNK N   1       0.595  -2.121   0.313  0.00  0.00     0.094 N 
HETATM   19  C   UNK N   1       2.435  -0.842  -1.245  0.00  0.00     0.076 C 
HETATM   20  C   UNK N   1       0.158  -1.455   1.576  0.00  0.00     0.274 C 
HETATM   21  C   UNK N   1       2.958   0.534  -0.735  0.00  0.00    -0.046 C 
HETATM   22  C   UNK N   1       4.175   1.105  -1.139  0.00  0.00     0.011 C 
HETATM   23  C   UNK N   1       4.460   2.446  -0.784  0.00  0.00     0.040 C 
HETATM   24  C   UNK N   1       3.490   3.222  -0.111  0.00  0.00     0.099 C 
HETATM   25  C   UNK N   1       2.288   2.611   0.263  0.00  0.00     0.110 C 
BRANCH   7  26
HETATM   26  O   UNK N   1      -1.600   3.802   0.240  0.00  0.00    -0.382 OA
HETATM   27  C   UNK N   1      -2.252   4.405  -0.852  0.00  0.00     0.202 C 
ENDBRANCH   7  26
BRANCH  18  28
HETATM   28  C   UNK N   1      -0.397  -3.089  -0.142  0.00  0.00     0.277 C 
BRANCH  28  29
HETATM   29  C   UNK N   1       0.231  -4.411  -0.633  0.00  0.00     0.014 A 
HETATM   30  C   UNK N   1       1.317  -4.892   0.313  0.00  0.00     0.007 A 
HETATM   31  C   UNK N   1       1.695  -4.297  -1.031  0.00  0.00     0.007 A 
ENDBRANCH  28  29
ENDBRANCH  18  28
BRANCH  24  32
HETATM   32  O   UNK N   1       3.707   4.524   0.135  0.00  0.00    -0.358 OA
HETATM   33  H   UNK N   1       4.570   4.847   0.308  0.00  0.00     0.217 HD
ENDBRANCH  24  32
ENDBRANCH   1   6
TORSDOF 5
