MODEL 1
REMARK VINA RESULT:      -7.5      0.000      0.000
REMARK  1 active torsions:
REMARK  status: ('A' for Active; 'I' for Inactive)
REMARK    1  A    between atoms: C_20  and  O_2 
ROOT
HETATM    1  O   UNK N   1      32.407  21.325  -2.185  0.00  0.00    -0.395 OA
HETATM    2  C   UNK N   1      31.562  23.476  -3.955  0.00  0.00     0.001 C 
HETATM    3  C   UNK N   1      30.874  22.126  -3.868  0.00  0.00    -0.014 C 
HETATM    4  C   UNK N   1      30.642  24.634  -4.434  0.00  0.00    -0.002 C 
HETATM    5  C   UNK N   1      29.150  24.329  -4.105  0.00  0.00    -0.002 C 
HETATM    6  C   UNK N   1      29.749  22.215  -2.799  0.00  0.00     0.012 C 
HETATM    7  C   UNK N   1      32.043  21.202  -3.531  0.00  0.00     0.126 C 
HETATM    8  C   UNK N   1      29.057  23.618  -2.739  0.00  0.00     0.006 C 
HETATM    9  C   UNK N   1      32.831  23.218  -4.740  0.00  0.00     0.008 C 
HETATM   10  C   UNK N   1      28.238  25.564  -4.319  0.00  0.00     0.019 C 
HETATM   11  C   UNK N   1      33.189  21.762  -4.393  0.00  0.00     0.033 C 
HETATM   12  C   UNK N   1      31.128  25.894  -3.689  0.00  0.00     0.033 C 
HETATM   13  C   UNK N   1      30.300  21.663  -5.213  0.00  0.00     0.018 C 
HETATM   14  C   UNK N   1      28.856  26.893  -3.936  0.00  0.00    -0.077 C 
HETATM   15  C   UNK N   1      26.890  25.386  -3.601  0.00  0.00     0.012 C 
HETATM   16  C   UNK N   1      30.153  27.033  -3.659  0.00  0.00    -0.023 C 
HETATM   17  C   UNK N   1      27.988  28.111  -4.005  0.00  0.00     0.065 C 
HETATM   18  C   UNK N   1      25.994  26.616  -3.769  0.00  0.00     0.032 C 
HETATM   19  C   UNK N   1      26.696  27.866  -3.235  0.00  0.00     0.122 C 
HETATM   20  H   UNK N   1      32.718  21.536  -1.291  0.00  0.00     0.210 HD
ENDROOT
BRANCH  19  21
HETATM   21  O   UNK N   1      25.857  28.968  -3.385  0.00  0.00    -0.395 OA
HETATM   22  H   UNK N   1      25.433  29.364  -2.607  0.00  0.00     0.210 HD
ENDBRANCH  19  21
TORSDOF 1
ENDMDL
MODEL 2
REMARK VINA RESULT:      -7.2     21.023     23.661
REMARK  1 active torsions:
REMARK  status: ('A' for Active; 'I' for Inactive)
REMARK    1  A    between atoms: C_20  and  O_2 
ROOT
HETATM    1  O   UNK N   1      38.552  13.063  11.312  0.00  0.00    -0.395 OA
HETATM    2  C   UNK N   1      36.456  13.715  13.224  0.00  0.00     0.001 C 
HETATM    3  C   UNK N   1      36.471  12.458  12.373  0.00  0.00    -0.014 C 
HETATM    4  C   UNK N   1      35.663  13.579  14.554  0.00  0.00    -0.002 C 
HETATM    5  C   UNK N   1      35.617  12.094  15.022  0.00  0.00    -0.002 C 
HETATM    6  C   UNK N   1      37.201  11.337  13.165  0.00  0.00     0.012 C 
HETATM    7  C   UNK N   1      37.173  12.947  11.108  0.00  0.00     0.126 C 
HETATM    8  C   UNK N   1      36.966  11.413  14.711  0.00  0.00     0.006 C 
HETATM    9  C   UNK N   1      36.050  14.824  12.275  0.00  0.00     0.008 C 
HETATM   10  C   UNK N   1      35.075  11.952  16.468  0.00  0.00     0.019 C 
HETATM   11  C   UNK N   1      36.595  14.361  10.912  0.00  0.00     0.033 C 
HETATM   12  C   UNK N   1      36.403  14.462  15.578  0.00  0.00     0.033 C 
HETATM   13  C   UNK N   1      35.065  11.998  11.966  0.00  0.00     0.018 C 
HETATM   14  C   UNK N   1      35.496  13.049  17.423  0.00  0.00    -0.077 C 
HETATM   15  C   UNK N   1      35.431  10.577  17.059  0.00  0.00     0.012 C 
HETATM   16  C   UNK N   1      36.087  14.174  17.015  0.00  0.00    -0.023 C 
HETATM   17  C   UNK N   1      35.106  12.910  18.861  0.00  0.00     0.065 C 
HETATM   18  C   UNK N   1      34.938  10.438  18.501  0.00  0.00     0.032 C 
HETATM   19  C   UNK N   1      35.532  11.541  19.379  0.00  0.00     0.122 C 
HETATM   20  H   UNK N   1      39.476  13.261  11.530  0.00  0.00     0.210 HD
ENDROOT
BRANCH  19  21
HETATM   21  O   UNK N   1      35.081  11.385  20.688  0.00  0.00    -0.395 OA
HETATM   22  H   UNK N   1      34.213  10.986  20.858  0.00  0.00     0.210 HD
ENDBRANCH  19  21
TORSDOF 1
ENDMDL
MODEL 3
REMARK VINA RESULT:      -6.7      3.643      6.635
REMARK  1 active torsions:
REMARK  status: ('A' for Active; 'I' for Inactive)
REMARK    1  A    between atoms: C_20  and  O_2 
ROOT
HETATM    1  O   UNK N   1      24.443  23.178  -8.474  0.00  0.00    -0.395 OA
HETATM    2  C   UNK N   1      27.337  22.948  -8.256  0.00  0.00     0.001 C 
HETATM    3  C   UNK N   1      26.553  24.198  -7.899  0.00  0.00    -0.014 C 
HETATM    4  C   UNK N   1      28.692  22.805  -7.508  0.00  0.00    -0.002 C 
HETATM    5  C   UNK N   1      28.659  23.570  -6.152  0.00  0.00    -0.002 C 
HETATM    6  C   UNK N   1      26.177  24.128  -6.393  0.00  0.00     0.012 C 
HETATM    7  C   UNK N   1      25.387  24.127  -8.883  0.00  0.00     0.126 C 
HETATM    8  C   UNK N   1      27.262  23.425  -5.511  0.00  0.00     0.006 C 
HETATM    9  C   UNK N   1      27.366  22.925  -9.771  0.00  0.00     0.008 C 
HETATM   10  C   UNK N   1      29.880  23.233  -5.258  0.00  0.00     0.019 C 
HETATM   11  C   UNK N   1      26.052  23.617 -10.175  0.00  0.00     0.033 C 
HETATM   12  C   UNK N   1      28.894  21.293  -7.287  0.00  0.00     0.033 C 
HETATM   13  C   UNK N   1      27.324  25.489  -8.199  0.00  0.00     0.018 C 
HETATM   14  C   UNK N   1      30.344  21.793  -5.320  0.00  0.00    -0.077 C 
HETATM   15  C   UNK N   1      29.625  23.640  -3.797  0.00  0.00     0.012 C 
HETATM   16  C   UNK N   1      29.899  20.930  -6.236  0.00  0.00    -0.023 C 
HETATM   17  C   UNK N   1      31.442  21.373  -4.394  0.00  0.00     0.065 C 
HETATM   18  C   UNK N   1      30.808  23.276  -2.896  0.00  0.00     0.032 C 
HETATM   19  C   UNK N   1      31.091  21.774  -2.966  0.00  0.00     0.122 C 
HETATM   20  H   UNK N   1      23.884  22.423  -8.234  0.00  0.00     0.210 HD
ENDROOT
BRANCH  19  21
HETATM   21  O   UNK N   1      32.160  21.465  -2.127  0.00  0.00    -0.395 OA
HETATM   22  H   UNK N   1      32.789  20.771  -2.379  0.00  0.00     0.210 HD
ENDBRANCH  19  21
TORSDOF 1
ENDMDL
MODEL 4
REMARK VINA RESULT:      -6.7     15.677     18.091
REMARK  1 active torsions:
REMARK  status: ('A' for Active; 'I' for Inactive)
REMARK    1  A    between atoms: C_20  and  O_2 
ROOT
HETATM    1  O   UNK N   1      22.035  17.671   4.290  0.00  0.00    -0.395 OA
HETATM    2  C   UNK N   1      20.594  15.679   5.849  0.00  0.00     0.001 C 
HETATM    3  C   UNK N   1      21.612  15.345   4.774  0.00  0.00    -0.014 C 
HETATM    4  C   UNK N   1      20.431  14.583   6.940  0.00  0.00    -0.002 C 
HETATM    5  C   UNK N   1      21.730  13.734   7.071  0.00  0.00    -0.002 C 
HETATM    6  C   UNK N   1      23.011  15.230   5.442  0.00  0.00     0.012 C 
HETATM    7  C   UNK N   1      21.431  16.507   3.801  0.00  0.00     0.126 C 
HETATM    8  C   UNK N   1      22.963  14.646   6.894  0.00  0.00     0.006 C 
HETATM    9  C   UNK N   1      19.353  16.104   5.091  0.00  0.00     0.008 C 
HETATM   10  C   UNK N   1      21.708  12.817   8.321  0.00  0.00     0.019 C 
HETATM   11  C   UNK N   1      19.906  16.722   3.795  0.00  0.00     0.033 C 
HETATM   12  C   UNK N   1      20.125  15.336   8.250  0.00  0.00     0.033 C 
HETATM   13  C   UNK N   1      21.275  14.056   4.014  0.00  0.00     0.018 C 
HETATM   14  C   UNK N   1      21.052  13.418   9.546  0.00  0.00    -0.077 C 
HETATM   15  C   UNK N   1      23.122  12.325   8.670  0.00  0.00     0.012 C 
HETATM   16  C   UNK N   1      20.341  14.546   9.506  0.00  0.00    -0.023 C 
HETATM   17  C   UNK N   1      21.102  12.632  10.820  0.00  0.00     0.065 C 
HETATM   18  C   UNK N   1      23.121  11.451   9.927  0.00  0.00     0.032 C 
HETATM   19  C   UNK N   1      22.540  12.222  11.114  0.00  0.00     0.122 C 
HETATM   20  H   UNK N   1      22.342  18.483   4.721  0.00  0.00     0.210 HD
ENDROOT
BRANCH  19  21
HETATM   21  O   UNK N   1      22.564  11.412  12.248  0.00  0.00    -0.395 OA
HETATM   22  H   UNK N   1      22.136  10.542  12.231  0.00  0.00     0.210 HD
ENDBRANCH  19  21
TORSDOF 1
ENDMDL
MODEL 5
REMARK VINA RESULT:      -6.7      2.170      6.491
REMARK  1 active torsions:
REMARK  status: ('A' for Active; 'I' for Inactive)
REMARK    1  A    between atoms: C_20  and  O_2 
ROOT
HETATM    1  O   UNK N   1      26.808  26.577  -7.470  0.00  0.00    -0.395 OA
HETATM    2  C   UNK N   1      27.432  24.980  -5.117  0.00  0.00     0.001 C 
HETATM    3  C   UNK N   1      26.817  24.420  -6.388  0.00  0.00    -0.014 C 
HETATM    4  C   UNK N   1      28.238  23.943  -4.285  0.00  0.00    -0.002 C 
HETATM    5  C   UNK N   1      28.774  22.798  -5.195  0.00  0.00    -0.002 C 
HETATM    6  C   UNK N   1      27.967  23.955  -7.325  0.00  0.00     0.012 C 
HETATM    7  C   UNK N   1      25.991  25.606  -6.882  0.00  0.00     0.126 C 
HETATM    8  C   UNK N   1      29.204  23.381  -6.558  0.00  0.00     0.006 C 
HETATM    9  C   UNK N   1      26.299  25.708  -4.424  0.00  0.00     0.008 C 
HETATM   10  C   UNK N   1      29.800  21.897  -4.460  0.00  0.00     0.019 C 
HETATM   11  C   UNK N   1      25.407  26.190  -5.582  0.00  0.00     0.033 C 
HETATM   12  C   UNK N   1      29.397  24.729  -3.640  0.00  0.00     0.033 C 
HETATM   13  C   UNK N   1      25.845  23.265  -6.119  0.00  0.00     0.018 C 
HETATM   14  C   UNK N   1      30.726  22.623  -3.507  0.00  0.00    -0.077 C 
HETATM   15  C   UNK N   1      30.621  21.067  -5.460  0.00  0.00     0.012 C 
HETATM   16  C   UNK N   1      30.536  23.892  -3.142  0.00  0.00    -0.023 C 
HETATM   17  C   UNK N   1      31.817  21.831  -2.856  0.00  0.00     0.065 C 
HETATM   18  C   UNK N   1      31.667  20.203  -4.751  0.00  0.00     0.032 C 
HETATM   19  C   UNK N   1      32.607  21.075  -3.918  0.00  0.00     0.122 C 
HETATM   20  H   UNK N   1      27.415  27.283  -7.742  0.00  0.00     0.210 HD
ENDROOT
BRANCH  19  21
HETATM   21  O   UNK N   1      33.557  20.269  -3.295  0.00  0.00    -0.395 OA
HETATM   22  H   UNK N   1      34.494  20.348  -3.537  0.00  0.00     0.210 HD
ENDBRANCH  19  21
TORSDOF 1
ENDMDL
MODEL 6
REMARK VINA RESULT:      -6.6     12.245     15.349
REMARK  1 active torsions:
REMARK  status: ('A' for Active; 'I' for Inactive)
REMARK    1  A    between atoms: C_20  and  O_2 
ROOT
HETATM    1  O   UNK N   1      33.518  16.067   2.428  0.00  0.00    -0.395 OA
HETATM    2  C   UNK N   1      32.797  16.640   5.189  0.00  0.00     0.001 C 
HETATM    3  C   UNK N   1      32.679  15.270   4.546  0.00  0.00    -0.014 C 
HETATM    4  C   UNK N   1      32.976  16.609   6.733  0.00  0.00    -0.002 C 
HETATM    5  C   UNK N   1      33.624  15.268   7.189  0.00  0.00    -0.002 C 
HETATM    6  C   UNK N   1      34.008  14.500   4.782  0.00  0.00     0.012 C 
HETATM    7  C   UNK N   1      32.367  15.634   3.095  0.00  0.00     0.126 C 
HETATM    8  C   UNK N   1      34.683  14.829   6.156  0.00  0.00     0.006 C 
HETATM    9  C   UNK N   1      31.632  17.434   4.634  0.00  0.00     0.008 C 
HETATM   10  C   UNK N   1      34.065  15.306   8.675  0.00  0.00     0.019 C 
HETATM   11  C   UNK N   1      31.410  16.833   3.234  0.00  0.00     0.033 C 
HETATM   12  C   UNK N   1      33.881  17.809   7.077  0.00  0.00     0.033 C 
HETATM   13  C   UNK N   1      31.490  14.462   5.080  0.00  0.00     0.018 C 
HETATM   14  C   UNK N   1      34.623  16.632   9.146  0.00  0.00    -0.077 C 
HETATM   15  C   UNK N   1      35.062  14.176   8.984  0.00  0.00     0.012 C 
HETATM   16  C   UNK N   1      34.534  17.751   8.425  0.00  0.00    -0.023 C 
HETATM   17  C   UNK N   1      35.177  16.701  10.536  0.00  0.00     0.065 C 
HETATM   18  C   UNK N   1      35.538  14.226  10.438  0.00  0.00     0.032 C 
HETATM   19  C   UNK N   1      36.185  15.578  10.743  0.00  0.00     0.122 C 
HETATM   20  H   UNK N   1      34.301  16.489   2.041  0.00  0.00     0.210 HD
ENDROOT
BRANCH  19  21
HETATM   21  O   UNK N   1      36.623  15.593  12.066  0.00  0.00    -0.395 OA
HETATM   22  H   UNK N   1      35.992  15.443  12.788  0.00  0.00     0.210 HD
ENDBRANCH  19  21
TORSDOF 1
ENDMDL
MODEL 7
REMARK VINA RESULT:      -6.6     14.160     17.361
REMARK  1 active torsions:
REMARK  status: ('A' for Active; 'I' for Inactive)
REMARK    1  A    between atoms: C_20  and  O_2 
ROOT
HETATM    1  O   UNK N   1      30.847  15.845   6.093  0.00  0.00    -0.395 OA
HETATM    2  C   UNK N   1      33.624  16.087   6.935  0.00  0.00     0.001 C 
HETATM    3  C   UNK N   1      32.466  16.809   7.601  0.00  0.00    -0.014 C 
HETATM    4  C   UNK N   1      34.846  15.842   7.864  0.00  0.00    -0.002 C 
HETATM    5  C   UNK N   1      34.405  15.791   9.357  0.00  0.00    -0.002 C 
HETATM    6  C   UNK N   1      31.926  15.914   8.752  0.00  0.00     0.012 C 
HETATM    7  C   UNK N   1      31.517  17.028   6.424  0.00  0.00     0.126 C 
HETATM    8  C   UNK N   1      33.040  15.080   9.468  0.00  0.00     0.006 C 
HETATM    9  C   UNK N   1      33.864  16.842   5.644  0.00  0.00     0.008 C 
HETATM   10  C   UNK N   1      35.539  15.285  10.286  0.00  0.00     0.019 C 
HETATM   11  C   UNK N   1      32.472  17.381   5.268  0.00  0.00     0.033 C 
HETATM   12  C   UNK N   1      35.453  14.498   7.417  0.00  0.00     0.033 C 
HETATM   13  C   UNK N   1      32.856  18.192   8.136  0.00  0.00     0.018 C 
HETATM   14  C   UNK N   1      36.410  14.193   9.700  0.00  0.00    -0.077 C 
HETATM   15  C   UNK N   1      34.980  14.837  11.647  0.00  0.00     0.012 C 
HETATM   16  C   UNK N   1      36.367  13.848   8.412  0.00  0.00    -0.023 C 
HETATM   17  C   UNK N   1      37.446  13.577  10.587  0.00  0.00     0.065 C 
HETATM   18  C   UNK N   1      36.083  14.296  12.559  0.00  0.00     0.032 C 
HETATM   19  C   UNK N   1      36.803  13.123  11.892  0.00  0.00     0.122 C 
HETATM   20  H   UNK N   1      30.509  14.983   5.806  0.00  0.00     0.210 HD
ENDROOT
BRANCH  19  21
HETATM   21  O   UNK N   1      37.791  12.638  12.747  0.00  0.00    -0.395 OA
HETATM   22  H   UNK N   1      38.168  11.756  12.601  0.00  0.00     0.210 HD
ENDBRANCH  19  21
TORSDOF 1
ENDMDL
MODEL 8
REMARK VINA RESULT:      -6.6     22.308     24.719
REMARK  1 active torsions:
REMARK  status: ('A' for Active; 'I' for Inactive)
REMARK    1  A    between atoms: C_20  and  O_2 
ROOT
HETATM    1  O   UNK N   1      33.703   8.997  11.645  0.00  0.00    -0.395 OA
HETATM    2  C   UNK N   1      35.424   9.219  13.983  0.00  0.00     0.001 C 
HETATM    3  C   UNK N   1      35.410  10.216  12.838  0.00  0.00    -0.014 C 
HETATM    4  C   UNK N   1      35.894   9.810  15.342  0.00  0.00    -0.002 C 
HETATM    5  C   UNK N   1      35.631  11.344  15.399  0.00  0.00    -0.002 C 
HETATM    6  C   UNK N   1      34.381  11.332  13.171  0.00  0.00     0.012 C 
HETATM    7  C   UNK N   1      35.064   9.321  11.649  0.00  0.00     0.126 C 
HETATM    8  C   UNK N   1      34.295  11.665  14.698  0.00  0.00     0.006 C 
HETATM    9  C   UNK N   1      36.171   8.016  13.444  0.00  0.00     0.008 C 
HETATM   10  C   UNK N   1      35.833  11.920  16.824  0.00  0.00     0.019 C 
HETATM   11  C   UNK N   1      35.864   8.036  11.936  0.00  0.00     0.033 C 
HETATM   12  C   UNK N   1      35.088   9.067  16.426  0.00  0.00     0.033 C 
HETATM   13  C   UNK N   1      36.791  10.825  12.563  0.00  0.00     0.018 C 
HETATM   14  C   UNK N   1      35.382  11.017  17.952  0.00  0.00    -0.077 C 
HETATM   15  C   UNK N   1      35.172  13.301  16.960  0.00  0.00     0.012 C 
HETATM   16  C   UNK N   1      35.052   9.737  17.766  0.00  0.00    -0.023 C 
HETATM   17  C   UNK N   1      35.439  11.560  19.346  0.00  0.00     0.065 C 
HETATM   18  C   UNK N   1      35.328  13.864  18.375  0.00  0.00     0.032 C 
HETATM   19  C   UNK N   1      34.725  12.905  19.403  0.00  0.00     0.122 C 
HETATM   20  H   UNK N   1      32.791   8.684  11.751  0.00  0.00     0.210 HD
ENDROOT
BRANCH  19  21
HETATM   21  O   UNK N   1      34.866  13.446  20.680  0.00  0.00    -0.395 OA
HETATM   22  H   UNK N   1      34.080  13.706  21.185  0.00  0.00     0.210 HD
ENDBRANCH  19  21
TORSDOF 1
ENDMDL
MODEL 9
REMARK VINA RESULT:      -6.4      4.537      5.594
REMARK  1 active torsions:
REMARK  status: ('A' for Active; 'I' for Inactive)
REMARK    1  A    between atoms: C_20  and  O_2 
ROOT
HETATM    1  O   UNK N   1      25.526  22.168 -10.339  0.00  0.00    -0.395 OA
HETATM    2  C   UNK N   1      26.810  22.943  -7.843  0.00  0.00     0.001 C 
HETATM    3  C   UNK N   1      27.206  23.480  -9.207  0.00  0.00    -0.014 C 
HETATM    4  C   UNK N   1      27.141  23.894  -6.659  0.00  0.00    -0.002 C 
HETATM    5  C   UNK N   1      27.192  25.376  -7.137  0.00  0.00    -0.002 C 
HETATM    6  C   UNK N   1      26.384  24.770  -9.484  0.00  0.00     0.012 C 
HETATM    7  C   UNK N   1      26.902  22.288 -10.112  0.00  0.00     0.126 C 
HETATM    8  C   UNK N   1      26.097  25.614  -8.198  0.00  0.00     0.006 C 
HETATM    9  C   UNK N   1      27.379  21.540  -7.796  0.00  0.00     0.008 C 
HETATM   10  C   UNK N   1      27.250  26.372  -5.950  0.00  0.00     0.019 C 
HETATM   11  C   UNK N   1      27.356  21.083  -9.266  0.00  0.00     0.033 C 
HETATM   12  C   UNK N   1      26.019  23.683  -5.623  0.00  0.00     0.033 C 
HETATM   13  C   UNK N   1      28.708  23.767  -9.320  0.00  0.00     0.018 C 
HETATM   14  C   UNK N   1      26.429  25.979  -4.740  0.00  0.00    -0.077 C 
HETATM   15  C   UNK N   1      26.872  27.793  -6.403  0.00  0.00     0.012 C 
HETATM   16  C   UNK N   1      25.883  24.770  -4.599  0.00  0.00    -0.023 C 
HETATM   17  C   UNK N   1      26.346  26.954  -3.607  0.00  0.00     0.065 C 
HETATM   18  C   UNK N   1      26.886  28.779  -5.232  0.00  0.00     0.032 C 
HETATM   19  C   UNK N   1      25.925  28.320  -4.134  0.00  0.00     0.122 C 
HETATM   20  H   UNK N   1      24.565  22.036 -10.361  0.00  0.00     0.210 HD
ENDROOT
BRANCH  19  21
HETATM   21  O   UNK N   1      25.943  29.241  -3.088  0.00  0.00    -0.395 OA
HETATM   22  H   UNK N   1      26.774  29.677  -2.841  0.00  0.00     0.210 HD
ENDBRANCH  19  21
TORSDOF 1
ENDMDL
