REMARK  2 active torsions:
REMARK  status: ('A' for Active; 'I' for Inactive)
REMARK    1  A    between atoms: O_21  and  C_17 
REMARK    2  A    between atoms: C_19  and  O_22 
ROOT
HETATM    1  C   UNK N   1      -2.158   1.847   1.589  0.00  0.00     0.018 C 
HETATM    2  C   UNK N   1      -3.882   1.720  -1.891  0.00  0.00     0.046 C 
HETATM    3  C   UNK N   1      -0.312  -1.798  -0.114  0.00  0.00     0.010 C 
HETATM    4  C   UNK N   1       1.007  -2.251   0.507  0.00  0.00     0.038 C 
HETATM    5  C   UNK N   1       2.982   1.048  -0.348  0.00  0.00     0.017 C 
HETATM    6  C   UNK N   1       4.357   0.586   0.089  0.00  0.00     0.086 C 
HETATM    7  C   UNK N   1       0.199   2.065  -0.153  0.00  0.00     0.006 C 
HETATM    8  C   UNK N   1      -3.201  -0.601   0.301  0.00  0.00     0.009 C 
HETATM    9  C   UNK N   1      -1.210   2.455  -0.638  0.00  0.00     0.013 C 
HETATM   10  C   UNK N   1      -4.344   0.433   0.184  0.00  0.00     0.038 C 
HETATM   11  C   UNK N   1       1.867   0.208   0.305  0.00  0.00     0.022 C 
HETATM   12  C   UNK N   1       0.512   0.562  -0.356  0.00  0.00    -0.002 C 
HETATM   13  C   UNK N   1      -0.600  -0.339   0.256  0.00  0.00    -0.005 C 
HETATM   14  C   UNK N   1       2.133  -1.295   0.196  0.00  0.00    -0.038 C 
HETATM   15  C   UNK N   1      -1.974   0.109  -0.266  0.00  0.00     0.001 C 
HETATM   16  C   UNK N   1       4.511  -0.860  -0.260  0.00  0.00     0.182 C 
HETATM   17  C   UNK N   1       3.360  -1.779  -0.103  0.00  0.00     0.114 C 
HETATM   18  C   UNK N   1      -2.246   1.576   0.069  0.00  0.00    -0.009 C 
HETATM   19  C   UNK N   1      -3.709   1.714  -0.375  0.00  0.00     0.062 C 
HETATM   20  O   UNK N   1       5.606  -1.291  -0.580  0.00  0.00    -0.290 OA
ENDROOT
BRANCH  19  21
HETATM   21  O   UNK N   1      -4.316   2.859   0.150  0.00  0.00    -0.389 OA
HETATM   22  H   UNK N   1      -3.839   3.621   0.514  0.00  0.00     0.210 HD
ENDBRANCH  19  21
BRANCH  17  23
HETATM   23  O   UNK N   1       3.559  -3.110  -0.211  0.00  0.00    -0.357 OA
HETATM   24  H   UNK N   1       2.828  -3.691  -0.287  0.00  0.00     0.218 HD
ENDBRANCH  17  23
TORSDOF 2
