MODEL 1
REMARK VINA RESULT:      -8.0      0.000      0.000
REMARK  0 active torsions:
REMARK  status: ('A' for Active; 'I' for Inactive)
ROOT
HETATM    1  C   UNK N   1      27.922  23.798  -8.964  0.00  0.00     0.024 C 
HETATM    2  C   UNK N   1      26.411  23.890  -8.747  0.00  0.00     0.021 C 
HETATM    3  C   UNK N   1      25.876  25.275  -9.071  0.00  0.00     0.018 C 
HETATM    4  C   UNK N   1      26.534  26.339  -8.173  0.00  0.00     0.007 C 
HETATM    5  C   UNK N   1      26.725  25.946  -6.679  0.00  0.00     0.002 C 
HETATM    6  C   UNK N   1      26.649  24.443  -6.260  0.00  0.00    -0.004 C 
HETATM    7  C   UNK N   1      25.968  23.608  -7.334  0.00  0.00     0.006 C 
HETATM    8  C   UNK N   1      25.867  22.101  -7.177  0.00  0.00     0.013 C 
HETATM    9  C   UNK N   1      25.303  21.663  -8.529  0.00  0.00     0.079 C 
HETATM   10  C   UNK N   1      25.755  22.755  -9.442  0.00  0.00     0.135 C 
HETATM   11  O   UNK N   1      25.697  22.657 -10.657  0.00  0.00    -0.297 OA
HETATM   12  C   UNK N   1      25.857  24.260  -4.964  0.00  0.00     0.006 C 
HETATM   13  C   UNK N   1      26.349  25.134  -3.812  0.00  0.00     0.006 C 
HETATM   14  C   UNK N   1      26.780  26.542  -4.239  0.00  0.00     0.005 C 
HETATM   15  C   UNK N   1      26.285  26.986  -5.634  0.00  0.00    -0.018 C 
HETATM   16  C   UNK N   1      26.903  28.331  -5.940  0.00  0.00    -0.013 C 
HETATM   17  C   UNK N   1      27.014  29.276  -4.994  0.00  0.00     0.047 C 
HETATM   18  C   UNK N   1      26.668  28.975  -3.586  0.00  0.00     0.149 C 
HETATM   19  O   UNK N   1      26.578  29.881  -2.779  0.00  0.00    -0.293 OA
HETATM   20  C   UNK N   1      26.423  27.554  -3.142  0.00  0.00     0.088 C 
HETATM   21  C   UNK N   1      24.763  27.123  -5.658  0.00  0.00     0.020 C 
ENDROOT
TORSDOF 0
ENDMDL
MODEL 2
REMARK VINA RESULT:      -7.2      3.674      5.105
REMARK  0 active torsions:
REMARK  status: ('A' for Active; 'I' for Inactive)
ROOT
HETATM    1  C   UNK N   1      25.383  22.550  -7.711  0.00  0.00     0.024 C 
HETATM    2  C   UNK N   1      26.469  23.519  -8.179  0.00  0.00     0.021 C 
HETATM    3  C   UNK N   1      27.747  22.792  -8.565  0.00  0.00     0.018 C 
HETATM    4  C   UNK N   1      28.315  22.011  -7.366  0.00  0.00     0.007 C 
HETATM    5  C   UNK N   1      28.259  22.737  -5.992  0.00  0.00     0.002 C 
HETATM    6  C   UNK N   1      27.310  23.963  -5.804  0.00  0.00    -0.004 C 
HETATM    7  C   UNK N   1      26.882  24.536  -7.147  0.00  0.00     0.006 C 
HETATM    8  C   UNK N   1      25.883  25.679  -7.203  0.00  0.00     0.013 C 
HETATM    9  C   UNK N   1      25.605  25.802  -8.702  0.00  0.00     0.079 C 
HETATM   10  C   UNK N   1      25.896  24.426  -9.204  0.00  0.00     0.135 C 
HETATM   11  O   UNK N   1      25.574  24.056 -10.322  0.00  0.00    -0.297 OA
HETATM   12  C   UNK N   1      27.990  25.087  -5.020  0.00  0.00     0.006 C 
HETATM   13  C   UNK N   1      28.587  24.636  -3.688  0.00  0.00     0.006 C 
HETATM   14  C   UNK N   1      29.237  23.249  -3.735  0.00  0.00     0.005 C 
HETATM   15  C   UNK N   1      29.549  22.717  -5.152  0.00  0.00    -0.018 C 
HETATM   16  C   UNK N   1      30.063  21.302  -5.014  0.00  0.00    -0.013 C 
HETATM   17  C   UNK N   1      30.905  20.962  -4.027  0.00  0.00     0.047 C 
HETATM   18  C   UNK N   1      31.240  21.929  -2.957  0.00  0.00     0.149 C 
HETATM   19  O   UNK N   1      32.152  21.687  -2.188  0.00  0.00    -0.293 OA
HETATM   20  C   UNK N   1      30.465  23.215  -2.815  0.00  0.00     0.088 C 
HETATM   21  C   UNK N   1      30.618  23.568  -5.835  0.00  0.00     0.020 C 
ENDROOT
TORSDOF 0
ENDMDL
MODEL 3
REMARK VINA RESULT:      -7.1     26.423     28.941
REMARK  0 active torsions:
REMARK  status: ('A' for Active; 'I' for Inactive)
ROOT
HETATM    1  C   UNK N   1      36.832  10.012  18.982  0.00  0.00     0.024 C 
HETATM    2  C   UNK N   1      35.368  10.440  18.874  0.00  0.00     0.021 C 
HETATM    3  C   UNK N   1      34.524   9.395  18.162  0.00  0.00     0.018 C 
HETATM    4  C   UNK N   1      35.040   9.160  16.730  0.00  0.00     0.007 C 
HETATM    5  C   UNK N   1      35.470  10.431  15.943  0.00  0.00     0.002 C 
HETATM    6  C   UNK N   1      35.754  11.758  16.715  0.00  0.00    -0.004 C 
HETATM    7  C   UNK N   1      35.149  11.721  18.111  0.00  0.00     0.006 C 
HETATM    8  C   UNK N   1      35.383  12.874  19.072  0.00  0.00     0.013 C 
HETATM    9  C   UNK N   1      34.778  12.347  20.375  0.00  0.00     0.079 C 
HETATM   10  C   UNK N   1      34.891  10.867  20.213  0.00  0.00     0.135 C 
HETATM   11  O   UNK N   1      34.723  10.093  21.142  0.00  0.00    -0.297 OA
HETATM   12  C   UNK N   1      35.164  12.970  15.990  0.00  0.00     0.006 C 
HETATM   13  C   UNK N   1      35.585  13.076  14.525  0.00  0.00     0.006 C 
HETATM   14  C   UNK N   1      35.665  11.728  13.800  0.00  0.00     0.005 C 
HETATM   15  C   UNK N   1      34.939  10.560  14.504  0.00  0.00    -0.018 C 
HETATM   16  C   UNK N   1      35.226   9.297  13.724  0.00  0.00    -0.013 C 
HETATM   17  C   UNK N   1      35.240   9.297  12.383  0.00  0.00     0.047 C 
HETATM   18  C   UNK N   1      35.120  10.566  11.630  0.00  0.00     0.149 C 
HETATM   19  O   UNK N   1      34.931  10.540  10.428  0.00  0.00    -0.293 OA
HETATM   20  C   UNK N   1      35.226  11.893  12.339  0.00  0.00     0.088 C 
HETATM   21  C   UNK N   1      33.429  10.790  14.535  0.00  0.00     0.020 C 
ENDROOT
TORSDOF 0
ENDMDL
MODEL 4
REMARK VINA RESULT:      -7.1     16.545     18.488
REMARK  0 active torsions:
REMARK  status: ('A' for Active; 'I' for Inactive)
ROOT
HETATM    1  C   UNK N   1      30.178  15.588   5.564  0.00  0.00     0.024 C 
HETATM    2  C   UNK N   1      31.563  15.369   4.954  0.00  0.00     0.021 C 
HETATM    3  C   UNK N   1      32.214  14.097   5.469  0.00  0.00     0.018 C 
HETATM    4  C   UNK N   1      32.391  14.155   6.998  0.00  0.00     0.007 C 
HETATM    5  C   UNK N   1      32.862  15.519   7.578  0.00  0.00     0.002 C 
HETATM    6  C   UNK N   1      32.733  16.812   6.712  0.00  0.00    -0.004 C 
HETATM    7  C   UNK N   1      32.550  16.471   5.241  0.00  0.00     0.006 C 
HETATM    8  C   UNK N   1      32.312  17.577   4.227  0.00  0.00     0.013 C 
HETATM    9  C   UNK N   1      32.000  16.794   2.950  0.00  0.00     0.079 C 
HETATM   10  C   UNK N   1      31.466  15.504   3.478  0.00  0.00     0.135 C 
HETATM   11  O   UNK N   1      30.891  14.695   2.768  0.00  0.00    -0.297 OA
HETATM   12  C   UNK N   1      33.979  17.694   6.828  0.00  0.00     0.006 C 
HETATM   13  C   UNK N   1      34.367  18.025   8.268  0.00  0.00     0.006 C 
HETATM   14  C   UNK N   1      34.172  16.863   9.249  0.00  0.00     0.005 C 
HETATM   15  C   UNK N   1      34.016  15.471   8.595  0.00  0.00    -0.018 C 
HETATM   16  C   UNK N   1      33.709  14.476   9.691  0.00  0.00    -0.013 C 
HETATM   17  C   UNK N   1      34.331  14.535  10.878  0.00  0.00     0.047 C 
HETATM   18  C   UNK N   1      35.230  15.667  11.200  0.00  0.00     0.149 C 
HETATM   19  O   UNK N   1      35.941  15.611  12.186  0.00  0.00    -0.293 OA
HETATM   20  C   UNK N   1      35.275  16.888  10.315  0.00  0.00     0.088 C 
HETATM   21  C   UNK N   1      35.303  15.049   7.889  0.00  0.00     0.020 C 
ENDROOT
TORSDOF 0
ENDMDL
MODEL 5
REMARK VINA RESULT:      -7.0     27.075     29.426
REMARK  0 active torsions:
REMARK  status: ('A' for Active; 'I' for Inactive)
ROOT
HETATM    1  C   UNK N   1      36.879   9.030  19.340  0.00  0.00     0.024 C 
HETATM    2  C   UNK N   1      35.409   9.236  18.974  0.00  0.00     0.021 C 
HETATM    3  C   UNK N   1      35.073   8.631  17.621  0.00  0.00     0.018 C 
HETATM    4  C   UNK N   1      35.918   9.280  16.508  0.00  0.00     0.007 C 
HETATM    5  C   UNK N   1      36.109  10.821  16.609  0.00  0.00     0.002 C 
HETATM    6  C   UNK N   1      35.827  11.548  17.962  0.00  0.00    -0.004 C 
HETATM    7  C   UNK N   1      34.987  10.679  18.886  0.00  0.00     0.006 C 
HETATM    8  C   UNK N   1      34.670  11.152  20.295  0.00  0.00     0.013 C 
HETATM    9  C   UNK N   1      33.992   9.926  20.911  0.00  0.00     0.079 C 
HETATM   10  C   UNK N   1      34.564   8.800  20.114  0.00  0.00     0.135 C 
HETATM   11  O   UNK N   1      34.443   7.633  20.451  0.00  0.00    -0.297 OA
HETATM   12  C   UNK N   1      35.070  12.861  17.750  0.00  0.00     0.006 C 
HETATM   13  C   UNK N   1      35.733  13.798  16.742  0.00  0.00     0.006 C 
HETATM   14  C   UNK N   1      36.350  13.080  15.537  0.00  0.00     0.005 C 
HETATM   15  C   UNK N   1      35.870  11.628  15.320  0.00  0.00    -0.018 C 
HETATM   16  C   UNK N   1      36.669  11.040  14.178  0.00  0.00    -0.013 C 
HETATM   17  C   UNK N   1      36.957  11.765  13.087  0.00  0.00     0.047 C 
HETATM   18  C   UNK N   1      36.628  13.208  13.034  0.00  0.00     0.149 C 
HETATM   19  O   UNK N   1      36.706  13.807  11.977  0.00  0.00    -0.293 OA
HETATM   20  C   UNK N   1      36.192  13.943  14.277  0.00  0.00     0.088 C 
HETATM   21  C   UNK N   1      34.386  11.588  14.958  0.00  0.00     0.020 C 
ENDROOT
TORSDOF 0
ENDMDL
MODEL 6
REMARK VINA RESULT:      -7.0      5.648      7.800
REMARK  0 active torsions:
REMARK  status: ('A' for Active; 'I' for Inactive)
ROOT
HETATM    1  C   UNK N   1      29.144  25.564  -4.028  0.00  0.00     0.024 C 
HETATM    2  C   UNK N   1      28.374  24.244  -3.974  0.00  0.00     0.021 C 
HETATM    3  C   UNK N   1      28.749  23.420  -2.753  0.00  0.00     0.018 C 
HETATM    4  C   UNK N   1      30.249  23.075  -2.767  0.00  0.00     0.007 C 
HETATM    5  C   UNK N   1      30.844  22.673  -4.147  0.00  0.00     0.002 C 
HETATM    6  C   UNK N   1      30.065  23.022  -5.455  0.00  0.00    -0.004 C 
HETATM    7  C   UNK N   1      28.607  23.340  -5.157  0.00  0.00     0.006 C 
HETATM    8  C   UNK N   1      27.684  23.797  -6.273  0.00  0.00     0.013 C 
HETATM    9  C   UNK N   1      26.410  24.177  -5.516  0.00  0.00     0.079 C 
HETATM   10  C   UNK N   1      26.927  24.522  -4.158  0.00  0.00     0.135 C 
HETATM   11  O   UNK N   1      26.244  25.095  -3.325  0.00  0.00    -0.297 OA
HETATM   12  C   UNK N   1      30.088  21.861  -6.452  0.00  0.00     0.006 C 
HETATM   13  C   UNK N   1      31.491  21.343  -6.761  0.00  0.00     0.006 C 
HETATM   14  C   UNK N   1      32.426  21.313  -5.546  0.00  0.00     0.005 C 
HETATM   15  C   UNK N   1      31.723  21.410  -4.174  0.00  0.00    -0.018 C 
HETATM   16  C   UNK N   1      32.793  21.494  -3.109  0.00  0.00    -0.013 C 
HETATM   17  C   UNK N   1      33.906  20.747  -3.182  0.00  0.00     0.047 C 
HETATM   18  C   UNK N   1      34.185  19.930  -4.384  0.00  0.00     0.149 C 
HETATM   19  O   UNK N   1      35.082  19.107  -4.361  0.00  0.00    -0.293 OA
HETATM   20  C   UNK N   1      33.364  20.102  -5.638  0.00  0.00     0.088 C 
HETATM   21  C   UNK N   1      30.858  20.178  -3.911  0.00  0.00     0.020 C 
ENDROOT
TORSDOF 0
ENDMDL
MODEL 7
REMARK VINA RESULT:      -6.9     13.884     15.824
REMARK  0 active torsions:
REMARK  status: ('A' for Active; 'I' for Inactive)
ROOT
HETATM    1  C   UNK N   1      27.723  17.996   3.970  0.00  0.00     0.024 C 
HETATM    2  C   UNK N   1      28.034  16.532   4.283  0.00  0.00     0.021 C 
HETATM    3  C   UNK N   1      27.998  16.253   5.777  0.00  0.00     0.018 C 
HETATM    4  C   UNK N   1      29.039  17.112   6.518  0.00  0.00     0.007 C 
HETATM    5  C   UNK N   1      30.422  17.258   5.822  0.00  0.00     0.002 C 
HETATM    6  C   UNK N   1      30.563  16.916   4.305  0.00  0.00    -0.004 C 
HETATM    7  C   UNK N   1      29.393  16.073   3.821  0.00  0.00     0.006 C 
HETATM    8  C   UNK N   1      29.278  15.702   2.353  0.00  0.00     0.013 C 
HETATM    9  C   UNK N   1      27.900  15.039   2.285  0.00  0.00     0.079 C 
HETATM   10  C   UNK N   1      27.180  15.665   3.434  0.00  0.00     0.135 C 
HETATM   11  O   UNK N   1      25.972  15.566   3.579  0.00  0.00    -0.297 OA
HETATM   12  C   UNK N   1      31.845  16.131   4.020  0.00  0.00     0.006 C 
HETATM   13  C   UNK N   1      33.109  16.797   4.561  0.00  0.00     0.006 C 
HETATM   14  C   UNK N   1      32.924  17.470   5.926  0.00  0.00     0.005 C 
HETATM   15  C   UNK N   1      31.663  17.036   6.706  0.00  0.00    -0.018 C 
HETATM   16  C   UNK N   1      31.574  17.884   7.955  0.00  0.00    -0.013 C 
HETATM   17  C   UNK N   1      32.670  18.185   8.668  0.00  0.00     0.047 C 
HETATM   18  C   UNK N   1      34.015  17.818   8.172  0.00  0.00     0.149 C 
HETATM   19  O   UNK N   1      34.978  17.911   8.910  0.00  0.00    -0.293 OA
HETATM   20  C   UNK N   1      34.205  17.326   6.759  0.00  0.00     0.088 C 
HETATM   21  C   UNK N   1      31.746  15.565   7.110  0.00  0.00     0.020 C 
ENDROOT
TORSDOF 0
ENDMDL
MODEL 8
REMARK VINA RESULT:      -6.9     27.254     29.462
REMARK  0 active torsions:
REMARK  status: ('A' for Active; 'I' for Inactive)
ROOT
HETATM    1  C   UNK N   1      36.826  13.739  15.124  0.00  0.00     0.024 C 
HETATM    2  C   UNK N   1      35.691  12.780  14.763  0.00  0.00     0.021 C 
HETATM    3  C   UNK N   1      34.545  12.859  15.758  0.00  0.00     0.018 C 
HETATM    4  C   UNK N   1      35.024  12.489  17.174  0.00  0.00     0.007 C 
HETATM    5  C   UNK N   1      36.010  11.289  17.268  0.00  0.00     0.002 C 
HETATM    6  C   UNK N   1      36.764  10.807  15.988  0.00  0.00    -0.004 C 
HETATM    7  C   UNK N   1      36.092  11.327  14.727  0.00  0.00     0.006 C 
HETATM    8  C   UNK N   1      36.712  11.056  13.367  0.00  0.00     0.013 C 
HETATM    9  C   UNK N   1      35.841  11.898  12.431  0.00  0.00     0.079 C 
HETATM   10  C   UNK N   1      35.333  12.972  13.335  0.00  0.00     0.135 C 
HETATM   11  O   UNK N   1      34.783  13.976  12.912  0.00  0.00    -0.297 OA
HETATM   12  C   UNK N   1      36.797   9.279  15.895  0.00  0.00     0.006 C 
HETATM   13  C   UNK N   1      37.337   8.597  17.150  0.00  0.00     0.006 C 
HETATM   14  C   UNK N   1      36.900   9.264  18.459  0.00  0.00     0.005 C 
HETATM   15  C   UNK N   1      35.697  10.226  18.336  0.00  0.00    -0.018 C 
HETATM   16  C   UNK N   1      35.487  10.882  19.682  0.00  0.00    -0.013 C 
HETATM   17  C   UNK N   1      35.605  10.182  20.821  0.00  0.00     0.047 C 
HETATM   18  C   UNK N   1      36.090   8.784  20.798  0.00  0.00     0.149 C 
HETATM   19  O   UNK N   1      36.002   8.098  21.800  0.00  0.00    -0.293 OA
HETATM   20  C   UNK N   1      36.687   8.198  19.543  0.00  0.00     0.088 C 
HETATM   21  C   UNK N   1      34.427   9.470  17.950  0.00  0.00     0.020 C 
ENDROOT
TORSDOF 0
ENDMDL
MODEL 9
REMARK VINA RESULT:      -6.8     14.759     17.145
REMARK  0 active torsions:
REMARK  status: ('A' for Active; 'I' for Inactive)
ROOT
HETATM    1  C   UNK N   1      27.974  16.245   6.236  0.00  0.00     0.024 C 
HETATM    2  C   UNK N   1      28.687  17.592   6.111  0.00  0.00     0.021 C 
HETATM    3  C   UNK N   1      29.460  17.705   4.808  0.00  0.00     0.018 C 
HETATM    4  C   UNK N   1      30.536  16.608   4.714  0.00  0.00     0.007 C 
HETATM    5  C   UNK N   1      31.323  16.312   6.023  0.00  0.00     0.002 C 
HETATM    6  C   UNK N   1      30.750  16.792   7.394  0.00  0.00    -0.004 C 
HETATM    7  C   UNK N   1      29.691  17.867   7.200  0.00  0.00     0.006 C 
HETATM    8  C   UNK N   1      28.933  18.414   8.397  0.00  0.00     0.013 C 
HETATM    9  C   UNK N   1      27.872  19.300   7.741  0.00  0.00     0.079 C 
HETATM   10  C   UNK N   1      27.715  18.679   6.393  0.00  0.00     0.135 C 
HETATM   11  O   UNK N   1      26.791  18.961   5.647  0.00  0.00    -0.297 OA
HETATM   12  C   UNK N   1      31.844  17.380   8.288  0.00  0.00     0.006 C 
HETATM   13  C   UNK N   1      33.046  16.456   8.479  0.00  0.00     0.006 C 
HETATM   14  C   UNK N   1      33.439  15.676   7.220  0.00  0.00     0.005 C 
HETATM   15  C   UNK N   1      32.854  16.224   5.899  0.00  0.00    -0.018 C 
HETATM   16  C   UNK N   1      33.236  15.269   4.790  0.00  0.00    -0.013 C 
HETATM   17  C   UNK N   1      34.456  14.712   4.743  0.00  0.00     0.047 C 
HETATM   18  C   UNK N   1      35.413  14.903   5.856  0.00  0.00     0.149 C 
HETATM   19  O   UNK N   1      36.576  14.569   5.717  0.00  0.00    -0.293 OA
HETATM   20  C   UNK N   1      34.964  15.511   7.161  0.00  0.00     0.088 C 
HETATM   21  C   UNK N   1      33.422  17.606   5.579  0.00  0.00     0.020 C 
ENDROOT
TORSDOF 0
ENDMDL
