MODEL 1
REMARK VINA RESULT:      -7.4      0.000      0.000
REMARK  2 active torsions:
REMARK  status: ('A' for Active; 'I' for Inactive)
REMARK    1  A    between atoms: C_10  and  O_11 
REMARK    2  A    between atoms: C_15  and  O_22 
ROOT
HETATM    1  C   UNK N   1      29.529  15.399   4.964  0.00  0.00     0.018 C 
HETATM    2  C   UNK N   1      30.989  15.772   4.703  0.00  0.00    -0.014 C 
HETATM    3  C   UNK N   1      31.877  14.651   5.246  0.00  0.00     0.012 C 
HETATM    4  C   UNK N   1      31.667  14.551   6.755  0.00  0.00     0.007 C 
HETATM    5  C   UNK N   1      32.227  15.788   7.476  0.00  0.00     0.002 C 
HETATM    6  C   UNK N   1      32.298  17.067   6.593  0.00  0.00    -0.004 C 
HETATM    7  C   UNK N   1      31.335  17.125   5.365  0.00  0.00     0.001 C 
HETATM    8  C   UNK N   1      31.885  18.007   4.245  0.00  0.00     0.008 C 
HETATM    9  C   UNK N   1      32.324  17.029   3.172  0.00  0.00     0.033 C 
HETATM   10  C   UNK N   1      31.248  15.967   3.203  0.00  0.00     0.126 C 
HETATM   11  C   UNK N   1      33.735  17.530   6.356  0.00  0.00     0.010 C 
HETATM   12  C   UNK N   1      34.382  17.857   7.699  0.00  0.00     0.038 C 
HETATM   13  C   UNK N   1      34.285  16.703   8.672  0.00  0.00    -0.034 C 
HETATM   14  C   UNK N   1      34.973  16.764   9.837  0.00  0.00     0.114 C 
HETATM   15  C   UNK N   1      35.000  15.610  10.768  0.00  0.00     0.182 C 
HETATM   16  O   UNK N   1      35.709  15.649  11.761  0.00  0.00    -0.290 OA
HETATM   17  C   UNK N   1      34.226  14.360  10.474  0.00  0.00     0.087 C 
HETATM   18  C   UNK N   1      33.092  14.630   9.493  0.00  0.00     0.022 C 
HETATM   19  C   UNK N   1      33.526  15.444   8.266  0.00  0.00    -0.013 C 
HETATM   20  C   UNK N   1      34.482  14.612   7.409  0.00  0.00     0.020 C 
ENDROOT
BRANCH  10  21
HETATM   21  O   UNK N   1      30.123  16.486   2.549  0.00  0.00    -0.395 OA
HETATM   22  H   UNK N   1      30.064  17.173   1.867  0.00  0.00     0.210 HD
ENDBRANCH  10  21
BRANCH  14  23
HETATM   23  O   UNK N   1      35.685  17.869  10.143  0.00  0.00    -0.357 OA
HETATM   24  H   UNK N   1      36.357  18.174   9.567  0.00  0.00     0.218 HD
ENDBRANCH  14  23
TORSDOF 2
ENDMDL
MODEL 2
REMARK VINA RESULT:      -7.4      7.759     10.631
REMARK  2 active torsions:
REMARK  status: ('A' for Active; 'I' for Inactive)
REMARK    1  A    between atoms: C_10  and  O_11 
REMARK    2  A    between atoms: C_15  and  O_22 
ROOT
HETATM    1  C   UNK N   1      33.982  10.327  12.273  0.00  0.00     0.018 C 
HETATM    2  C   UNK N   1      35.149  11.045  12.950  0.00  0.00    -0.014 C 
HETATM    3  C   UNK N   1      35.878  10.041  13.846  0.00  0.00     0.012 C 
HETATM    4  C   UNK N   1      34.912   9.564  14.928  0.00  0.00     0.007 C 
HETATM    5  C   UNK N   1      34.579  10.697  15.912  0.00  0.00     0.002 C 
HETATM    6  C   UNK N   1      34.737  12.128  15.321  0.00  0.00    -0.004 C 
HETATM    7  C   UNK N   1      34.647  12.256  13.766  0.00  0.00     0.001 C 
HETATM    8  C   UNK N   1      35.428  13.461  13.245  0.00  0.00     0.008 C 
HETATM    9  C   UNK N   1      36.656  12.863  12.585  0.00  0.00     0.033 C 
HETATM   10  C   UNK N   1      36.120  11.620  11.909  0.00  0.00     0.126 C 
HETATM   11  C   UNK N   1      35.846  12.921  16.008  0.00  0.00     0.010 C 
HETATM   12  C   UNK N   1      35.511  13.066  17.490  0.00  0.00     0.038 C 
HETATM   13  C   UNK N   1      35.246  11.729  18.147  0.00  0.00    -0.034 C 
HETATM   14  C   UNK N   1      35.120  11.670  19.494  0.00  0.00     0.114 C 
HETATM   15  C   UNK N   1      34.975  10.368  20.189  0.00  0.00     0.182 C 
HETATM   16  O   UNK N   1      34.967  10.331  21.410  0.00  0.00    -0.290 OA
HETATM   17  C   UNK N   1      34.910   9.083  19.421  0.00  0.00     0.087 C 
HETATM   18  C   UNK N   1      34.488   9.323  17.977  0.00  0.00     0.022 C 
HETATM   19  C   UNK N   1      35.258  10.464  17.296  0.00  0.00    -0.013 C 
HETATM   20  C   UNK N   1      36.724  10.063  17.124  0.00  0.00     0.020 C 
ENDROOT
BRANCH  10  21
HETATM   21  O   UNK N   1      35.449  12.026  10.748  0.00  0.00    -0.395 OA
HETATM   22  H   UNK N   1      35.623  11.803   9.821  0.00  0.00     0.210 HD
ENDBRANCH  10  21
BRANCH  14  23
HETATM   23  O   UNK N   1      35.174  12.802  20.227  0.00  0.00    -0.357 OA
HETATM   24  H   UNK N   1      34.961  13.628  19.839  0.00  0.00     0.218 HD
ENDBRANCH  14  23
TORSDOF 2
ENDMDL
MODEL 3
REMARK VINA RESULT:      -7.4     11.591     13.884
REMARK  2 active torsions:
REMARK  status: ('A' for Active; 'I' for Inactive)
REMARK    1  A    between atoms: C_10  and  O_11 
REMARK    2  A    between atoms: C_15  and  O_22 
ROOT
HETATM    1  C   UNK N   1      19.778  16.256   8.244  0.00  0.00     0.018 C 
HETATM    2  C   UNK N   1      20.572  15.629   7.098  0.00  0.00    -0.014 C 
HETATM    3  C   UNK N   1      21.694  16.593   6.706  0.00  0.00     0.012 C 
HETATM    4  C   UNK N   1      21.067  17.892   6.204  0.00  0.00     0.007 C 
HETATM    5  C   UNK N   1      20.341  17.676   4.866  0.00  0.00     0.002 C 
HETATM    6  C   UNK N   1      19.862  16.214   4.625  0.00  0.00    -0.004 C 
HETATM    7  C   UNK N   1      19.652  15.328   5.894  0.00  0.00     0.001 C 
HETATM    8  C   UNK N   1      19.836  13.842   5.592  0.00  0.00     0.008 C 
HETATM    9  C   UNK N   1      21.168  13.487   6.225  0.00  0.00     0.033 C 
HETATM   10  C   UNK N   1      21.166  14.276   7.515  0.00  0.00     0.126 C 
HETATM   11  C   UNK N   1      20.573  15.558   3.444  0.00  0.00     0.010 C 
HETATM   12  C   UNK N   1      20.279  16.357   2.177  0.00  0.00     0.038 C 
HETATM   13  C   UNK N   1      20.625  17.821   2.336  0.00  0.00    -0.034 C 
HETATM   14  C   UNK N   1      20.600  18.626   1.247  0.00  0.00     0.114 C 
HETATM   15  C   UNK N   1      21.042  20.039   1.334  0.00  0.00     0.182 C 
HETATM   16  O   UNK N   1      21.109  20.716   0.319  0.00  0.00    -0.290 OA
HETATM   17  C   UNK N   1      21.480  20.635   2.637  0.00  0.00     0.087 C 
HETATM   18  C   UNK N   1      20.927  19.847   3.818  0.00  0.00     0.022 C 
HETATM   19  C   UNK N   1      21.121  18.330   3.686  0.00  0.00    -0.013 C 
HETATM   20  C   UNK N   1      22.611  17.993   3.762  0.00  0.00     0.020 C 
ENDROOT
BRANCH  10  21
HETATM   21  O   UNK N   1      20.332  13.605   8.419  0.00  0.00    -0.395 OA
HETATM   22  H   UNK N   1      19.950  12.715   8.368  0.00  0.00     0.210 HD
ENDBRANCH  10  21
BRANCH  14  23
HETATM   23  O   UNK N   1      20.214  18.132   0.052  0.00  0.00    -0.357 OA
HETATM   24  H   UNK N   1      20.836  18.025  -0.640  0.00  0.00     0.218 HD
ENDBRANCH  14  23
TORSDOF 2
ENDMDL
MODEL 4
REMARK VINA RESULT:      -6.9      8.894     10.639
REMARK  2 active torsions:
REMARK  status: ('A' for Active; 'I' for Inactive)
REMARK    1  A    between atoms: C_10  and  O_11 
REMARK    2  A    between atoms: C_15  and  O_22 
ROOT
HETATM    1  C   UNK N   1      20.682  16.003   5.024  0.00  0.00     0.018 C 
HETATM    2  C   UNK N   1      21.756  14.915   5.008  0.00  0.00    -0.014 C 
HETATM    3  C   UNK N   1      21.177  13.657   5.658  0.00  0.00     0.012 C 
HETATM    4  C   UNK N   1      20.834  13.974   7.112  0.00  0.00     0.007 C 
HETATM    5  C   UNK N   1      22.105  14.213   7.942  0.00  0.00     0.002 C 
HETATM    6  C   UNK N   1      23.332  14.691   7.112  0.00  0.00    -0.004 C 
HETATM    7  C   UNK N   1      23.026  15.389   5.748  0.00  0.00     0.001 C 
HETATM    8  C   UNK N   1      24.172  15.227   4.752  0.00  0.00     0.008 C 
HETATM    9  C   UNK N   1      23.657  14.222   3.738  0.00  0.00     0.033 C 
HETATM   10  C   UNK N   1      22.203  14.605   3.573  0.00  0.00     0.126 C 
HETATM   11  C   UNK N   1      24.469  13.672   7.117  0.00  0.00     0.010 C 
HETATM   12  C   UNK N   1      24.938  13.454   8.553  0.00  0.00     0.038 C 
HETATM   13  C   UNK N   1      23.797  13.072   9.471  0.00  0.00    -0.034 C 
HETATM   14  C   UNK N   1      24.075  12.662  10.732  0.00  0.00     0.114 C 
HETATM   15  C   UNK N   1      22.999  12.170  11.627  0.00  0.00     0.182 C 
HETATM   16  O   UNK N   1      23.287  11.710  12.721  0.00  0.00    -0.290 OA
HETATM   17  C   UNK N   1      21.568  12.159  11.185  0.00  0.00     0.087 C 
HETATM   18  C   UNK N   1      21.335  13.141  10.043  0.00  0.00     0.022 C 
HETATM   19  C   UNK N   1      22.376  13.030   8.919  0.00  0.00    -0.013 C 
HETATM   20  C   UNK N   1      22.221  11.686   8.206  0.00  0.00     0.020 C 
ENDROOT
BRANCH  10  21
HETATM   21  O   UNK N   1      22.157  15.746   2.761  0.00  0.00    -0.395 OA
HETATM   22  H   UNK N   1      21.403  16.157   2.310  0.00  0.00     0.210 HD
ENDBRANCH  10  21
BRANCH  14  23
HETATM   23  O   UNK N   1      25.350  12.654  11.173  0.00  0.00    -0.357 OA
HETATM   24  H   UNK N   1      25.589  13.134  11.941  0.00  0.00     0.218 HD
ENDBRANCH  14  23
TORSDOF 2
ENDMDL
MODEL 5
REMARK VINA RESULT:      -6.8     11.894     15.500
REMARK  2 active torsions:
REMARK  status: ('A' for Active; 'I' for Inactive)
REMARK    1  A    between atoms: C_10  and  O_11 
REMARK    2  A    between atoms: C_15  and  O_22 
ROOT
HETATM    1  C   UNK N   1      32.543  21.376  -2.843  0.00  0.00     0.018 C 
HETATM    2  C   UNK N   1      32.308  21.780  -4.298  0.00  0.00    -0.014 C 
HETATM    3  C   UNK N   1      31.971  23.271  -4.336  0.00  0.00     0.012 C 
HETATM    4  C   UNK N   1      30.677  23.498  -3.557  0.00  0.00     0.007 C 
HETATM    5  C   UNK N   1      29.476  22.876  -4.285  0.00  0.00     0.002 C 
HETATM    6  C   UNK N   1      29.841  21.693  -5.230  0.00  0.00    -0.004 C 
HETATM    7  C   UNK N   1      31.173  20.938  -4.923  0.00  0.00     0.001 C 
HETATM    8  C   UNK N   1      31.771  20.299  -6.175  0.00  0.00     0.008 C 
HETATM    9  C   UNK N   1      32.970  21.167  -6.510  0.00  0.00     0.033 C 
HETATM   10  C   UNK N   1      33.551  21.501  -5.155  0.00  0.00     0.126 C 
HETATM   11  C   UNK N   1      29.560  22.014  -6.696  0.00  0.00     0.010 C 
HETATM   12  C   UNK N   1      28.071  22.302  -6.868  0.00  0.00     0.038 C 
HETATM   13  C   UNK N   1      27.588  23.381  -5.924  0.00  0.00    -0.034 C 
HETATM   14  C   UNK N   1      26.340  23.882  -6.080  0.00  0.00     0.114 C 
HETATM   15  C   UNK N   1      25.867  25.019  -5.252  0.00  0.00     0.182 C 
HETATM   16  O   UNK N   1      24.777  25.521  -5.480  0.00  0.00    -0.290 OA
HETATM   17  C   UNK N   1      26.733  25.613  -4.184  0.00  0.00     0.087 C 
HETATM   18  C   UNK N   1      27.811  24.632  -3.738  0.00  0.00     0.022 C 
HETATM   19  C   UNK N   1      28.558  23.972  -4.906  0.00  0.00    -0.013 C 
HETATM   20  C   UNK N   1      29.386  25.023  -5.646  0.00  0.00     0.020 C 
ENDROOT
BRANCH  10  21
HETATM   21  O   UNK N   1      34.245  20.371  -4.703  0.00  0.00    -0.395 OA
HETATM   22  H   UNK N   1      34.117  19.845  -3.898  0.00  0.00     0.210 HD
ENDBRANCH  10  21
BRANCH  14  23
HETATM   23  O   UNK N   1      25.524  23.379  -7.029  0.00  0.00    -0.357 OA
HETATM   24  H   UNK N   1      25.879  22.908  -7.758  0.00  0.00     0.218 HD
ENDBRANCH  14  23
TORSDOF 2
ENDMDL
MODEL 6
REMARK VINA RESULT:      -6.8      2.895      7.313
REMARK  2 active torsions:
REMARK  status: ('A' for Active; 'I' for Inactive)
REMARK    1  A    between atoms: C_10  and  O_11 
REMARK    2  A    between atoms: C_15  and  O_22 
ROOT
HETATM    1  C   UNK N   1      37.167  11.145  11.394  0.00  0.00     0.018 C 
HETATM    2  C   UNK N   1      36.111  12.130  11.895  0.00  0.00    -0.014 C 
HETATM    3  C   UNK N   1      34.941  12.125  10.910  0.00  0.00     0.012 C 
HETATM    4  C   UNK N   1      35.445  12.608   9.552  0.00  0.00     0.007 C 
HETATM    5  C   UNK N   1      35.823  14.097   9.600  0.00  0.00     0.002 C 
HETATM    6  C   UNK N   1      36.210  14.616  11.015  0.00  0.00    -0.004 C 
HETATM    7  C   UNK N   1      36.709  13.547  12.040  0.00  0.00     0.001 C 
HETATM    8  C   UNK N   1      36.438  13.967  13.483  0.00  0.00     0.008 C 
HETATM    9  C   UNK N   1      35.294  13.077  13.931  0.00  0.00     0.033 C 
HETATM   10  C   UNK N   1      35.619  11.743  13.297  0.00  0.00     0.126 C 
HETATM   11  C   UNK N   1      35.226  15.659  11.541  0.00  0.00     0.010 C 
HETATM   12  C   UNK N   1      35.216  16.857  10.595  0.00  0.00     0.038 C 
HETATM   13  C   UNK N   1      34.938  16.449   9.165  0.00  0.00    -0.034 C 
HETATM   14  C   UNK N   1      34.709  17.410   8.239  0.00  0.00     0.114 C 
HETATM   15  C   UNK N   1      34.320  17.055   6.852  0.00  0.00     0.182 C 
HETATM   16  O   UNK N   1      34.019  17.937   6.064  0.00  0.00    -0.290 OA
HETATM   17  C   UNK N   1      34.217  15.624   6.419  0.00  0.00     0.087 C 
HETATM   18  C   UNK N   1      35.029  14.712   7.330  0.00  0.00     0.022 C 
HETATM   19  C   UNK N   1      34.790  14.970   8.825  0.00  0.00    -0.013 C 
HETATM   20  C   UNK N   1      33.358  14.576   9.191  0.00  0.00     0.020 C 
ENDROOT
BRANCH  10  21
HETATM   21  O   UNK N   1      36.638  11.152  14.055  0.00  0.00    -0.395 OA
HETATM   22  H   UNK N   1      37.588  11.086  13.874  0.00  0.00     0.210 HD
ENDBRANCH  10  21
BRANCH  14  23
HETATM   23  O   UNK N   1      34.789  18.712   8.584  0.00  0.00    -0.357 OA
HETATM   24  H   UNK N   1      34.011  19.226   8.677  0.00  0.00     0.218 HD
ENDBRANCH  14  23
TORSDOF 2
ENDMDL
MODEL 7
REMARK VINA RESULT:      -6.7      3.232      6.427
REMARK  2 active torsions:
REMARK  status: ('A' for Active; 'I' for Inactive)
REMARK    1  A    between atoms: C_10  and  O_11 
REMARK    2  A    between atoms: C_15  and  O_22 
ROOT
HETATM    1  C   UNK N   1      33.971  15.546   5.640  0.00  0.00     0.018 C 
HETATM    2  C   UNK N   1      32.861  15.229   6.642  0.00  0.00    -0.014 C 
HETATM    3  C   UNK N   1      31.580  14.927   5.862  0.00  0.00     0.012 C 
HETATM    4  C   UNK N   1      31.181  16.176   5.079  0.00  0.00     0.007 C 
HETATM    5  C   UNK N   1      30.729  17.301   6.023  0.00  0.00     0.002 C 
HETATM    6  C   UNK N   1      31.321  17.210   7.460  0.00  0.00    -0.004 C 
HETATM    7  C   UNK N   1      32.652  16.408   7.619  0.00  0.00     0.001 C 
HETATM    8  C   UNK N   1      32.803  15.819   9.020  0.00  0.00     0.008 C 
HETATM    9  C   UNK N   1      32.560  14.333   8.836  0.00  0.00     0.033 C 
HETATM   10  C   UNK N   1      33.237  14.027   7.519  0.00  0.00     0.126 C 
HETATM   11  C   UNK N   1      30.245  16.963   8.516  0.00  0.00     0.010 C 
HETATM   12  C   UNK N   1      29.252  18.122   8.497  0.00  0.00     0.038 C 
HETATM   13  C   UNK N   1      28.681  18.358   7.116  0.00  0.00    -0.034 C 
HETATM   14  C   UNK N   1      27.650  19.223   6.969  0.00  0.00     0.114 C 
HETATM   15  C   UNK N   1      26.985  19.399   5.655  0.00  0.00     0.182 C 
HETATM   16  O   UNK N   1      25.993  20.106   5.568  0.00  0.00    -0.290 OA
HETATM   17  C   UNK N   1      27.465  18.666   4.439  0.00  0.00     0.087 C 
HETATM   18  C   UNK N   1      28.911  18.214   4.602  0.00  0.00     0.022 C 
HETATM   19  C   UNK N   1      29.188  17.523   5.945  0.00  0.00    -0.013 C 
HETATM   20  C   UNK N   1      28.441  16.189   6.000  0.00  0.00     0.020 C 
ENDROOT
BRANCH  10  21
HETATM   21  O   UNK N   1      34.617  13.974   7.756  0.00  0.00    -0.395 OA
HETATM   22  H   UNK N   1      35.327  13.600   7.211  0.00  0.00     0.210 HD
ENDBRANCH  10  21
BRANCH  14  23
HETATM   23  O   UNK N   1      27.183  19.905   8.036  0.00  0.00    -0.357 OA
HETATM   24  H   UNK N   1      27.768  20.184   8.712  0.00  0.00     0.218 HD
ENDBRANCH  14  23
TORSDOF 2
ENDMDL
MODEL 8
REMARK VINA RESULT:      -6.6      7.537     12.375
REMARK  2 active torsions:
REMARK  status: ('A' for Active; 'I' for Inactive)
REMARK    1  A    between atoms: C_10  and  O_11 
REMARK    2  A    between atoms: C_15  and  O_22 
ROOT
HETATM    1  C   UNK N   1      36.476   8.342  19.077  0.00  0.00     0.018 C 
HETATM    2  C   UNK N   1      35.461   9.478  18.953  0.00  0.00    -0.014 C 
HETATM    3  C   UNK N   1      34.468   9.117  17.847  0.00  0.00     0.012 C 
HETATM    4  C   UNK N   1      35.228   9.003  16.527  0.00  0.00     0.007 C 
HETATM    5  C   UNK N   1      35.745  10.375  16.065  0.00  0.00     0.002 C 
HETATM    6  C   UNK N   1      35.954  11.402  17.216  0.00  0.00    -0.004 C 
HETATM    7  C   UNK N   1      36.171  10.815  18.647  0.00  0.00     0.001 C 
HETATM    8  C   UNK N   1      35.720  11.785  19.738  0.00  0.00     0.008 C 
HETATM    9  C   UNK N   1      34.433  11.183  20.273  0.00  0.00     0.033 C 
HETATM   10  C   UNK N   1      34.715   9.698  20.276  0.00  0.00     0.126 C 
HETATM   11  C   UNK N   1      35.012  12.599  17.104  0.00  0.00     0.010 C 
HETATM   12  C   UNK N   1      35.275  13.320  15.785  0.00  0.00     0.038 C 
HETATM   13  C   UNK N   1      35.187  12.385  14.598  0.00  0.00    -0.034 C 
HETATM   14  C   UNK N   1      35.209  12.904  13.348  0.00  0.00     0.114 C 
HETATM   15  C   UNK N   1      35.010  12.038  12.160  0.00  0.00     0.182 C 
HETATM   16  O   UNK N   1      34.930  12.542  11.051  0.00  0.00    -0.290 OA
HETATM   17  C   UNK N   1      34.831  10.557  12.303  0.00  0.00     0.087 C 
HETATM   18  C   UNK N   1      35.389  10.059  13.630  0.00  0.00     0.022 C 
HETATM   19  C   UNK N   1      34.943  10.898  14.835  0.00  0.00    -0.013 C 
HETATM   20  C   UNK N   1      33.438  10.729  15.052  0.00  0.00     0.020 C 
ENDROOT
BRANCH  10  21
HETATM   21  O   UNK N   1      35.534   9.426  21.380  0.00  0.00    -0.395 OA
HETATM   22  H   UNK N   1      35.680   8.593  21.855  0.00  0.00     0.210 HD
ENDBRANCH  10  21
BRANCH  14  23
HETATM   23  O   UNK N   1      35.366  14.232  13.171  0.00  0.00    -0.357 OA
HETATM   24  H   UNK N   1      34.669  14.750  12.820  0.00  0.00     0.218 HD
ENDBRANCH  14  23
TORSDOF 2
ENDMDL
MODEL 9
REMARK VINA RESULT:      -6.6     16.232     18.001
REMARK  2 active torsions:
REMARK  status: ('A' for Active; 'I' for Inactive)
REMARK    1  A    between atoms: C_10  and  O_11 
REMARK    2  A    between atoms: C_15  and  O_22 
ROOT
HETATM    1  C   UNK N   1      28.454  23.695  -9.730  0.00  0.00     0.018 C 
HETATM    2  C   UNK N   1      27.131  23.618  -8.967  0.00  0.00    -0.014 C 
HETATM    3  C   UNK N   1      26.465  24.995  -9.019  0.00  0.00     0.012 C 
HETATM    4  C   UNK N   1      27.372  26.000  -8.312  0.00  0.00     0.007 C 
HETATM    5  C   UNK N   1      27.433  25.725  -6.801  0.00  0.00     0.002 C 
HETATM    6  C   UNK N   1      27.133  24.250  -6.406  0.00  0.00    -0.004 C 
HETATM    7  C   UNK N   1      27.365  23.168  -7.509  0.00  0.00     0.001 C 
HETATM    8  C   UNK N   1      26.478  21.942  -7.304  0.00  0.00     0.008 C 
HETATM    9  C   UNK N   1      25.425  22.049  -8.391  0.00  0.00     0.033 C 
HETATM   10  C   UNK N   1      26.201  22.563  -9.583  0.00  0.00     0.126 C 
HETATM   11  C   UNK N   1      25.856  24.119  -5.579  0.00  0.00     0.010 C 
HETATM   12  C   UNK N   1      26.010  24.922  -4.291  0.00  0.00     0.038 C 
HETATM   13  C   UNK N   1      26.395  26.360  -4.560  0.00  0.00    -0.034 C 
HETATM   14  C   UNK N   1      26.387  27.247  -3.537  0.00  0.00     0.114 C 
HETATM   15  C   UNK N   1      26.645  28.688  -3.776  0.00  0.00     0.182 C 
HETATM   16  O   UNK N   1      26.531  29.484  -2.857  0.00  0.00    -0.290 OA
HETATM   17  C   UNK N   1      26.974  29.200  -5.146  0.00  0.00     0.087 C 
HETATM   18  C   UNK N   1      27.506  28.085  -6.038  0.00  0.00     0.022 C 
HETATM   19  C   UNK N   1      26.655  26.808  -5.995  0.00  0.00    -0.013 C 
HETATM   20  C   UNK N   1      25.287  27.080  -6.625  0.00  0.00     0.020 C 
ENDROOT
BRANCH  10  21
HETATM   21  O   UNK N   1      26.924  21.486 -10.113  0.00  0.00    -0.395 OA
HETATM   22  H   UNK N   1      27.185  21.304 -11.029  0.00  0.00     0.210 HD
ENDBRANCH  10  21
BRANCH  14  23
HETATM   23  O   UNK N   1      26.095  26.833  -2.287  0.00  0.00    -0.357 OA
HETATM   24  H   UNK N   1      25.725  25.984  -2.143  0.00  0.00     0.218 HD
ENDBRANCH  14  23
TORSDOF 2
ENDMDL
