MODEL 1
REMARK VINA RESULT:      -7.0      0.000      0.000
REMARK  8 active torsions:
REMARK  status: ('A' for Active; 'I' for Inactive)
REMARK    1  A    between atoms: C_9  and  C_6 
REMARK    2  A    between atoms: C_24  and  C_9 
REMARK    3  A    between atoms: O_32  and  C_16 
REMARK    4  A    between atoms: O_32  and  C_18 
REMARK    5  A    between atoms: C_19  and  C_24 
REMARK    6  A    between atoms: C_27  and  C_23 
REMARK    7  A    between atoms: C_24  and  O_30 
REMARK    8  A    between atoms: C_27  and  O_31 
ROOT
HETATM    1  C   UNK N   1      21.234  19.580   3.415  0.00  0.00     0.310 C 
HETATM    2  C   UNK N   1      20.255  17.108   8.002  0.00  0.00     0.011 C 
HETATM    3  C   UNK N   1      19.987  15.883   8.674  0.00  0.00     0.041 C 
HETATM    4  C   UNK N   1      23.994  16.194   5.920  0.00  0.00    -0.015 C 
HETATM    5  C   UNK N   1      24.385  14.898   5.928  0.00  0.00     0.011 C 
HETATM    6  C   UNK N   1      20.829  15.874   3.712  0.00  0.00     0.048 C 
HETATM    7  C   UNK N   1      20.464  17.349   3.553  0.00  0.00     0.273 C 
HETATM    8  C   UNK N   1      21.480  18.316   6.081  0.00  0.00     0.076 C 
HETATM    9  C   UNK N   1      23.821  16.197   3.514  0.00  0.00     0.028 C 
HETATM   10  C   UNK N   1      20.876  17.084   6.737  0.00  0.00    -0.046 C 
HETATM   11  C   UNK N   1      20.424  14.655   8.105  0.00  0.00     0.113 C 
HETATM   12  C   UNK N   1      23.950  14.632   3.423  0.00  0.00     0.062 C 
HETATM   13  C   UNK N   1      22.423  18.020   4.831  0.00  0.00     0.240 C 
HETATM   14  C   UNK N   1      21.158  15.852   6.184  0.00  0.00    -0.003 A 
HETATM   15  C   UNK N   1      21.018  14.703   6.859  0.00  0.00     0.111 A 
HETATM   16  C   UNK N   1      22.156  14.099   5.018  0.00  0.00     0.182 A 
HETATM   17  C   UNK N   1      23.024  16.562   4.806  0.00  0.00     0.024 C 
HETATM   18  C   UNK N   1      21.796  15.626   4.891  0.00  0.00     0.035 A 
HETATM   19  C   UNK N   1      23.724  13.990   4.871  0.00  0.00     0.112 C 
HETATM   20  N   UNK N   1      21.660  18.197   3.575  0.00  0.00     0.090 N 
HETATM   21  O   UNK N   1      21.600  13.682   6.223  0.00  0.00    -0.338 OA
ENDROOT
BRANCH  12  22
HETATM   22  C   UNK N   1      25.046  14.099   2.461  0.00  0.00     0.061 C 
HETATM   23  C   UNK N   1      25.657  15.287   1.717  0.00  0.00     0.046 C 
BRANCH  22  24
HETATM   24  C   UNK N   1      24.570  13.053   1.452  0.00  0.00     0.037 C 
BRANCH  24  25
HETATM   25  C   UNK N   1      23.664  13.662   0.365  0.00  0.00    -0.002 C 
HETATM   26  C   UNK N   1      22.239  13.128   0.414  0.00  0.00     0.005 C 
ENDBRANCH  24  25
ENDBRANCH  22  24
BRANCH  22  27
HETATM   27  O   UNK N   1      26.060  13.537   3.246  0.00  0.00    -0.390 OA
HETATM   28  H   UNK N   1      26.914  13.256   2.882  0.00  0.00     0.210 HD
ENDBRANCH  22  27
ENDBRANCH  12  22
BRANCH  19  29
HETATM   29  O   UNK N   1      24.194  12.653   4.921  0.00  0.00    -0.378 OA
HETATM   30  C   UNK N   1      24.761  12.376   6.177  0.00  0.00     0.203 C 
ENDBRANCH  19  29
BRANCH  11  31
HETATM   31  O   UNK N   1      20.324  13.453   8.721  0.00  0.00    -0.276 OA
BRANCH  31  32
HETATM   32  C   UNK N   1      20.872  13.089   9.904  0.00  0.00     0.260 C 
HETATM   33  C   UNK N   1      22.334  13.277  10.108  0.00  0.00     0.126 C 
HETATM   34  O   UNK N   1      20.177  12.703  10.832  0.00  0.00    -0.265 OA
ENDBRANCH  31  32
ENDBRANCH  11  31
TORSDOF 8
ENDMDL
MODEL 2
REMARK VINA RESULT:      -7.0     14.207     16.544
REMARK  8 active torsions:
REMARK  status: ('A' for Active; 'I' for Inactive)
REMARK    1  A    between atoms: C_9  and  C_6 
REMARK    2  A    between atoms: C_24  and  C_9 
REMARK    3  A    between atoms: O_32  and  C_16 
REMARK    4  A    between atoms: O_32  and  C_18 
REMARK    5  A    between atoms: C_19  and  C_24 
REMARK    6  A    between atoms: C_27  and  C_23 
REMARK    7  A    between atoms: C_24  and  O_30 
REMARK    8  A    between atoms: C_27  and  O_31 
ROOT
HETATM    1  C   UNK N   1      25.942  22.837  -9.786  0.00  0.00     0.310 C 
HETATM    2  C   UNK N   1      29.688  20.721  -6.688  0.00  0.00     0.011 C 
HETATM    3  C   UNK N   1      30.830  20.933  -5.867  0.00  0.00     0.041 C 
HETATM    4  C   UNK N   1      26.748  23.389  -4.846  0.00  0.00    -0.015 C 
HETATM    5  C   UNK N   1      27.217  24.243  -3.908  0.00  0.00     0.011 C 
HETATM    6  C   UNK N   1      28.500  24.869  -7.966  0.00  0.00     0.048 C 
HETATM    7  C   UNK N   1      27.855  24.021  -9.062  0.00  0.00     0.273 C 
HETATM    8  C   UNK N   1      27.419  21.606  -7.533  0.00  0.00     0.076 C 
HETATM    9  C   UNK N   1      26.042  25.216  -6.254  0.00  0.00     0.028 C 
HETATM   10  C   UNK N   1      28.807  21.791  -6.942  0.00  0.00    -0.046 C 
HETATM   11  C   UNK N   1      31.026  22.196  -5.243  0.00  0.00     0.113 C 
HETATM   12  C   UNK N   1      26.826  26.280  -5.402  0.00  0.00     0.062 C 
HETATM   13  C   UNK N   1      26.465  22.879  -7.425  0.00  0.00     0.240 C 
HETATM   14  C   UNK N   1      29.125  23.023  -6.410  0.00  0.00    -0.003 A 
HETATM   15  C   UNK N   1      30.131  23.203  -5.543  0.00  0.00     0.111 A 
HETATM   16  C   UNK N   1      29.008  25.148  -5.460  0.00  0.00     0.182 A 
HETATM   17  C   UNK N   1      26.862  23.888  -6.280  0.00  0.00     0.024 C 
HETATM   18  C   UNK N   1      28.340  24.244  -6.563  0.00  0.00     0.035 A 
HETATM   19  C   UNK N   1      27.867  25.537  -4.441  0.00  0.00     0.112 C 
HETATM   20  N   UNK N   1      26.489  23.634  -8.697  0.00  0.00     0.090 N 
HETATM   21  O   UNK N   1      30.077  24.407  -4.966  0.00  0.00    -0.338 OA
ENDROOT
BRANCH  12  22
HETATM   22  C   UNK N   1      25.998  27.499  -4.913  0.00  0.00     0.061 C 
HETATM   23  C   UNK N   1      24.613  27.434  -5.560  0.00  0.00     0.046 C 
BRANCH  22  24
HETATM   24  C   UNK N   1      26.628  28.864  -5.189  0.00  0.00     0.037 C 
BRANCH  24  25
HETATM   25  C   UNK N   1      27.635  28.817  -6.353  0.00  0.00    -0.002 C 
HETATM   26  C   UNK N   1      28.641  29.959  -6.314  0.00  0.00     0.005 C 
ENDBRANCH  24  25
ENDBRANCH  22  24
BRANCH  22  27
HETATM   27  O   UNK N   1      25.815  27.359  -3.532  0.00  0.00    -0.390 OA
HETATM   28  H   UNK N   1      24.941  27.266  -3.122  0.00  0.00     0.210 HD
ENDBRANCH  22  27
ENDBRANCH  12  22
BRANCH  19  29
HETATM   29  O   UNK N   1      28.317  26.396  -3.406  0.00  0.00    -0.378 OA
HETATM   30  C   UNK N   1      29.479  27.079  -3.804  0.00  0.00     0.203 C 
ENDBRANCH  19  29
BRANCH  11  31
HETATM   31  O   UNK N   1      32.013  22.459  -4.353  0.00  0.00    -0.276 OA
BRANCH  31  32
HETATM   32  C   UNK N   1      32.248  21.828  -3.178  0.00  0.00     0.260 C 
HETATM   33  C   UNK N   1      33.425  20.923  -3.071  0.00  0.00     0.126 C 
HETATM   34  O   UNK N   1      31.573  22.062  -2.188  0.00  0.00    -0.265 OA
ENDBRANCH  31  32
ENDBRANCH  11  31
TORSDOF 8
ENDMDL
MODEL 3
REMARK VINA RESULT:      -6.8      3.848      6.713
REMARK  8 active torsions:
REMARK  status: ('A' for Active; 'I' for Inactive)
REMARK    1  A    between atoms: C_9  and  C_6 
REMARK    2  A    between atoms: C_24  and  C_9 
REMARK    3  A    between atoms: O_32  and  C_16 
REMARK    4  A    between atoms: O_32  and  C_18 
REMARK    5  A    between atoms: C_19  and  C_24 
REMARK    6  A    between atoms: C_27  and  C_23 
REMARK    7  A    between atoms: C_24  and  O_30 
REMARK    8  A    between atoms: C_27  and  O_31 
ROOT
HETATM    1  C   UNK N   1      24.464  12.152   5.056  0.00  0.00     0.310 C 
HETATM    2  C   UNK N   1      21.460  16.020   3.026  0.00  0.00     0.011 C 
HETATM    3  C   UNK N   1      21.032  17.375   3.100  0.00  0.00     0.041 C 
HETATM    4  C   UNK N   1      25.810  16.461   2.823  0.00  0.00    -0.015 C 
HETATM    5  C   UNK N   1      26.299  17.701   3.055  0.00  0.00     0.011 C 
HETATM    6  C   UNK N   1      24.458  15.657   6.362  0.00  0.00     0.048 C 
HETATM    7  C   UNK N   1      24.049  14.197   6.166  0.00  0.00     0.273 C 
HETATM    8  C   UNK N   1      23.367  14.317   3.359  0.00  0.00     0.076 C 
HETATM    9  C   UNK N   1      26.990  15.567   4.728  0.00  0.00     0.028 C 
HETATM   10  C   UNK N   1      22.671  15.640   3.637  0.00  0.00    -0.046 C 
HETATM   11  C   UNK N   1      21.868  18.346   3.716  0.00  0.00     0.113 C 
HETATM   12  C   UNK N   1      27.355  16.995   5.273  0.00  0.00     0.062 C 
HETATM   13  C   UNK N   1      24.872  14.225   3.877  0.00  0.00     0.240 C 
HETATM   14  C   UNK N   1      23.372  16.607   4.328  0.00  0.00    -0.003 A 
HETATM   15  C   UNK N   1      23.037  17.904   4.304  0.00  0.00     0.111 A 
HETATM   16  C   UNK N   1      25.068  17.901   5.264  0.00  0.00     0.182 A 
HETATM   17  C   UNK N   1      25.574  15.623   4.073  0.00  0.00     0.024 C 
HETATM   18  C   UNK N   1      24.639  16.406   5.023  0.00  0.00     0.035 A 
HETATM   19  C   UNK N   1      26.456  18.096   4.538  0.00  0.00     0.112 C 
HETATM   20  N   UNK N   1      24.911  13.532   5.184  0.00  0.00     0.090 N 
HETATM   21  O   UNK N   1      24.002  18.674   4.816  0.00  0.00    -0.338 OA
ENDROOT
BRANCH  12  22
HETATM   22  C   UNK N   1      28.858  17.243   5.572  0.00  0.00     0.061 C 
HETATM   23  C   UNK N   1      29.593  15.904   5.494  0.00  0.00     0.046 C 
BRANCH  22  24
HETATM   24  C   UNK N   1      29.151  17.909   6.917  0.00  0.00     0.037 C 
BRANCH  24  25
HETATM   25  C   UNK N   1      28.135  17.505   8.002  0.00  0.00    -0.002 C 
HETATM   26  C   UNK N   1      28.572  17.907   9.404  0.00  0.00     0.005 C 
ENDBRANCH  24  25
ENDBRANCH  22  24
BRANCH  22  27
HETATM   27  O   UNK N   1      29.364  18.053   4.549  0.00  0.00    -0.390 OA
HETATM   28  H   UNK N   1      28.802  18.461   3.873  0.00  0.00     0.210 HD
ENDBRANCH  22  27
ENDBRANCH  12  22
BRANCH  19  29
HETATM   29  O   UNK N   1      26.993  19.398   4.709  0.00  0.00    -0.378 OA
HETATM   30  C   UNK N   1      26.785  20.172   3.554  0.00  0.00     0.203 C 
ENDBRANCH  19  29
BRANCH  11  31
HETATM   31  O   UNK N   1      21.606  19.676   3.732  0.00  0.00    -0.276 OA
BRANCH  31  32
HETATM   32  C   UNK N   1      21.808  20.564   2.730  0.00  0.00     0.260 C 
HETATM   33  C   UNK N   1      20.790  20.674   1.651  0.00  0.00     0.126 C 
HETATM   34  O   UNK N   1      22.755  21.334   2.749  0.00  0.00    -0.265 OA
ENDBRANCH  31  32
ENDBRANCH  11  31
TORSDOF 8
ENDMDL
MODEL 4
REMARK VINA RESULT:      -6.7      4.468      7.058
REMARK  8 active torsions:
REMARK  status: ('A' for Active; 'I' for Inactive)
REMARK    1  A    between atoms: C_9  and  C_6 
REMARK    2  A    between atoms: C_24  and  C_9 
REMARK    3  A    between atoms: O_32  and  C_16 
REMARK    4  A    between atoms: O_32  and  C_18 
REMARK    5  A    between atoms: C_19  and  C_24 
REMARK    6  A    between atoms: C_27  and  C_23 
REMARK    7  A    between atoms: C_24  and  O_30 
REMARK    8  A    between atoms: C_27  and  O_31 
ROOT
HETATM    1  C   UNK N   1      31.096  16.888   7.346  0.00  0.00     0.310 C 
HETATM    2  C   UNK N   1      27.326  20.392   6.076  0.00  0.00     0.011 C 
HETATM    3  C   UNK N   1      26.448  20.906   5.081  0.00  0.00     0.041 C 
HETATM    4  C   UNK N   1      26.276  16.143   6.092  0.00  0.00    -0.015 C 
HETATM    5  C   UNK N   1      25.463  15.722   5.096  0.00  0.00     0.011 C 
HETATM    6  C   UNK N   1      29.424  16.993   4.002  0.00  0.00     0.048 C 
HETATM    7  C   UNK N   1      30.411  17.314   5.124  0.00  0.00     0.273 C 
HETATM    8  C   UNK N   1      28.530  18.338   7.067  0.00  0.00     0.076 C 
HETATM    9  C   UNK N   1      28.046  14.678   5.356  0.00  0.00     0.028 C 
HETATM   10  C   UNK N   1      27.848  19.091   5.935  0.00  0.00    -0.046 C 
HETATM   11  C   UNK N   1      26.041  20.075   4.002  0.00  0.00     0.113 C 
HETATM   12  C   UNK N   1      27.323  14.356   3.997  0.00  0.00     0.062 C 
HETATM   13  C   UNK N   1      28.740  16.779   6.810  0.00  0.00     0.240 C 
HETATM   14  C   UNK N   1      27.514  18.385   4.798  0.00  0.00    -0.003 A 
HETATM   15  C   UNK N   1      26.599  18.814   3.918  0.00  0.00     0.111 A 
HETATM   16  C   UNK N   1      26.969  16.687   3.298  0.00  0.00     0.182 A 
HETATM   17  C   UNK N   1      27.758  16.163   5.741  0.00  0.00     0.024 C 
HETATM   18  C   UNK N   1      27.954  17.032   4.476  0.00  0.00     0.035 A 
HETATM   19  C   UNK N   1      26.150  15.415   3.749  0.00  0.00     0.112 C 
HETATM   20  N   UNK N   1      30.117  16.531   6.328  0.00  0.00     0.090 N 
HETATM   21  O   UNK N   1      26.251  17.854   3.057  0.00  0.00    -0.338 OA
ENDROOT
BRANCH  12  22
HETATM   22  C   UNK N   1      27.139  12.850   3.669  0.00  0.00     0.061 C 
HETATM   23  C   UNK N   1      27.972  12.034   4.658  0.00  0.00     0.046 C 
BRANCH  22  24
HETATM   24  C   UNK N   1      27.504  12.448   2.239  0.00  0.00     0.037 C 
BRANCH  24  25
HETATM   25  C   UNK N   1      28.619  13.335   1.652  0.00  0.00    -0.002 C 
HETATM   26  C   UNK N   1      29.935  12.591   1.473  0.00  0.00     0.005 C 
ENDBRANCH  24  25
ENDBRANCH  22  24
BRANCH  22  27
HETATM   27  O   UNK N   1      25.795  12.529   3.896  0.00  0.00    -0.390 OA
HETATM   28  H   UNK N   1      25.062  13.098   3.615  0.00  0.00     0.210 HD
ENDBRANCH  22  27
ENDBRANCH  12  22
BRANCH  19  29
HETATM   29  O   UNK N   1      25.244  14.959   2.758  0.00  0.00    -0.378 OA
HETATM   30  C   UNK N   1      23.926  15.309   3.097  0.00  0.00     0.203 C 
ENDBRANCH  19  29
BRANCH  11  31
HETATM   31  O   UNK N   1      25.120  20.431   3.074  0.00  0.00    -0.276 OA
BRANCH  31  32
HETATM   32  C   UNK N   1      23.773  20.371   3.190  0.00  0.00     0.260 C 
HETATM   33  C   UNK N   1      23.155  19.154   3.783  0.00  0.00     0.126 C 
HETATM   34  O   UNK N   1      23.069  21.330   2.909  0.00  0.00    -0.265 OA
ENDBRANCH  31  32
ENDBRANCH  11  31
TORSDOF 8
ENDMDL
MODEL 5
REMARK VINA RESULT:      -6.7     14.321     17.267
REMARK  8 active torsions:
REMARK  status: ('A' for Active; 'I' for Inactive)
REMARK    1  A    between atoms: C_9  and  C_6 
REMARK    2  A    between atoms: C_24  and  C_9 
REMARK    3  A    between atoms: O_32  and  C_16 
REMARK    4  A    between atoms: O_32  and  C_18 
REMARK    5  A    between atoms: C_19  and  C_24 
REMARK    6  A    between atoms: C_27  and  C_23 
REMARK    7  A    between atoms: C_24  and  O_30 
REMARK    8  A    between atoms: C_27  and  O_31 
ROOT
HETATM    1  C   UNK N   1      31.649  22.151  -2.901  0.00  0.00     0.310 C 
HETATM    2  C   UNK N   1      28.321  21.891  -7.019  0.00  0.00     0.011 C 
HETATM    3  C   UNK N   1      27.092  22.309  -7.600  0.00  0.00     0.041 C 
HETATM    4  C   UNK N   1      30.269  25.718  -6.176  0.00  0.00    -0.015 C 
HETATM    5  C   UNK N   1      29.505  26.825  -6.323  0.00  0.00     0.011 C 
HETATM    6  C   UNK N   1      28.488  24.137  -3.123  0.00  0.00     0.048 C 
HETATM    7  C   UNK N   1      29.433  22.970  -2.837  0.00  0.00     0.273 C 
HETATM    8  C   UNK N   1      30.345  22.487  -5.538  0.00  0.00     0.076 C 
HETATM    9  C   UNK N   1      30.596  26.173  -3.830  0.00  0.00     0.028 C 
HETATM   10  C   UNK N   1      28.909  22.668  -6.002  0.00  0.00    -0.046 C 
HETATM   11  C   UNK N   1      26.513  23.548  -7.209  0.00  0.00     0.113 C 
HETATM   12  C   UNK N   1      29.484  27.283  -3.808  0.00  0.00     0.062 C 
HETATM   13  C   UNK N   1      30.916  23.670  -4.634  0.00  0.00     0.240 C 
HETATM   14  C   UNK N   1      28.229  23.792  -5.579  0.00  0.00    -0.003 A 
HETATM   15  C   UNK N   1      27.135  24.255  -6.199  0.00  0.00     0.111 A 
HETATM   16  C   UNK N   1      27.692  25.920  -4.798  0.00  0.00     0.182 A 
HETATM   17  C   UNK N   1      30.161  25.043  -4.815  0.00  0.00     0.024 C 
HETATM   18  C   UNK N   1      28.675  24.716  -4.543  0.00  0.00     0.035 A 
HETATM   19  C   UNK N   1      28.591  27.174  -5.131  0.00  0.00     0.112 C 
HETATM   20  N   UNK N   1      30.812  23.303  -3.204  0.00  0.00     0.090 N 
HETATM   21  O   UNK N   1      26.815  25.484  -5.785  0.00  0.00    -0.338 OA
ENDROOT
BRANCH  12  22
HETATM   22  C   UNK N   1      29.913  28.659  -3.230  0.00  0.00     0.061 C 
HETATM   23  C   UNK N   1      31.210  28.470  -2.443  0.00  0.00     0.046 C 
BRANCH  22  24
HETATM   24  C   UNK N   1      28.871  29.343  -2.343  0.00  0.00     0.037 C 
BRANCH  24  25
HETATM   25  C   UNK N   1      29.487  29.900  -1.045  0.00  0.00    -0.002 C 
HETATM   26  C   UNK N   1      28.494  29.950   0.108  0.00  0.00     0.005 C 
ENDBRANCH  24  25
ENDBRANCH  22  24
BRANCH  22  27
HETATM   27  O   UNK N   1      30.204  29.500  -4.311  0.00  0.00    -0.390 OA
HETATM   28  H   UNK N   1      29.520  29.870  -4.890  0.00  0.00     0.210 HD
ENDBRANCH  22  27
ENDBRANCH  12  22
BRANCH  19  29
HETATM   29  O   UNK N   1      27.835  28.356  -5.342  0.00  0.00    -0.378 OA
HETATM   30  C   UNK N   1      27.785  28.670  -6.711  0.00  0.00     0.203 C 
ENDBRANCH  19  29
BRANCH  11  31
HETATM   31  O   UNK N   1      25.413  24.089  -7.787  0.00  0.00    -0.276 OA
BRANCH  31  32
HETATM   32  C   UNK N   1      25.339  24.714  -8.984  0.00  0.00     0.260 C 
HETATM   33  C   UNK N   1      25.966  26.055  -9.136  0.00  0.00     0.126 C 
HETATM   34  O   UNK N   1      24.853  24.161  -9.959  0.00  0.00    -0.265 OA
ENDBRANCH  31  32
ENDBRANCH  11  31
TORSDOF 8
ENDMDL
MODEL 6
REMARK VINA RESULT:      -6.6     13.852     16.753
REMARK  8 active torsions:
REMARK  status: ('A' for Active; 'I' for Inactive)
REMARK    1  A    between atoms: C_9  and  C_6 
REMARK    2  A    between atoms: C_24  and  C_9 
REMARK    3  A    between atoms: O_32  and  C_16 
REMARK    4  A    between atoms: O_32  and  C_18 
REMARK    5  A    between atoms: C_19  and  C_24 
REMARK    6  A    between atoms: C_27  and  C_23 
REMARK    7  A    between atoms: C_24  and  O_30 
REMARK    8  A    between atoms: C_27  and  O_31 
ROOT
HETATM    1  C   UNK N   1      25.230  25.177 -10.568  0.00  0.00     0.310 C 
HETATM    2  C   UNK N   1      27.650  20.835  -8.725  0.00  0.00     0.011 C 
HETATM    3  C   UNK N   1      28.710  20.286  -7.952  0.00  0.00     0.041 C 
HETATM    4  C   UNK N   1      25.725  23.507  -5.843  0.00  0.00    -0.015 C 
HETATM    5  C   UNK N   1      26.385  23.711  -4.679  0.00  0.00     0.011 C 
HETATM    6  C   UNK N   1      28.173  25.281  -8.263  0.00  0.00     0.048 C 
HETATM    7  C   UNK N   1      27.367  25.207  -9.559  0.00  0.00     0.273 C 
HETATM    8  C   UNK N   1      25.945  22.744  -9.040  0.00  0.00     0.076 C 
HETATM    9  C   UNK N   1      25.864  25.848  -6.409  0.00  0.00     0.028 C 
HETATM   10  C   UNK N   1      27.245  22.166  -8.503  0.00  0.00    -0.046 C 
HETATM   11  C   UNK N   1      29.294  21.056  -6.908  0.00  0.00     0.113 C 
HETATM   12  C   UNK N   1      26.899  26.146  -5.264  0.00  0.00     0.062 C 
HETATM   13  C   UNK N   1      25.513  24.139  -8.401  0.00  0.00     0.240 C 
HETATM   14  C   UNK N   1      27.939  22.899  -7.562  0.00  0.00    -0.003 A 
HETATM   15  C   UNK N   1      28.858  22.356  -6.751  0.00  0.00     0.111 A 
HETATM   16  C   UNK N   1      28.516  24.395  -5.872  0.00  0.00     0.182 A 
HETATM   17  C   UNK N   1      26.144  24.424  -6.984  0.00  0.00     0.024 C 
HETATM   18  C   UNK N   1      27.669  24.285  -7.195  0.00  0.00     0.035 A 
HETATM   19  C   UNK N   1      27.506  24.770  -4.718  0.00  0.00     0.112 C 
HETATM   20  N   UNK N   1      25.927  25.247  -9.291  0.00  0.00     0.090 N 
HETATM   21  O   UNK N   1      29.192  23.185  -5.758  0.00  0.00    -0.338 OA
ENDROOT
BRANCH  12  22
HETATM   22  C   UNK N   1      26.529  27.307  -4.302  0.00  0.00     0.061 C 
HETATM   23  C   UNK N   1      25.226  27.943  -4.790  0.00  0.00     0.046 C 
BRANCH  22  24
HETATM   24  C   UNK N   1      27.600  28.388  -4.147  0.00  0.00     0.037 C 
BRANCH  24  25
HETATM   25  C   UNK N   1      27.399  29.552  -5.136  0.00  0.00    -0.002 C 
HETATM   26  C   UNK N   1      28.195  29.381  -6.423  0.00  0.00     0.005 C 
ENDBRANCH  24  25
ENDBRANCH  22  24
BRANCH  22  27
HETATM   27  O   UNK N   1      26.270  26.748  -3.045  0.00  0.00    -0.390 OA
HETATM   28  H   UNK N   1      26.684  27.070  -2.229  0.00  0.00     0.210 HD
ENDBRANCH  22  27
ENDBRANCH  12  22
BRANCH  19  29
HETATM   29  O   UNK N   1      28.141  24.948  -3.462  0.00  0.00    -0.378 OA
HETATM   30  C   UNK N   1      27.967  23.810  -2.656  0.00  0.00     0.203 C 
ENDBRANCH  19  29
BRANCH  11  31
HETATM   31  O   UNK N   1      30.223  20.582  -6.043  0.00  0.00    -0.276 OA
BRANCH  31  32
HETATM   32  C   UNK N   1      31.568  20.601  -6.193  0.00  0.00     0.260 C 
HETATM   33  C   UNK N   1      32.358  21.638  -5.475  0.00  0.00     0.126 C 
HETATM   34  O   UNK N   1      32.147  19.730  -6.825  0.00  0.00    -0.265 OA
ENDBRANCH  31  32
ENDBRANCH  11  31
TORSDOF 8
ENDMDL
MODEL 7
REMARK VINA RESULT:      -6.6      9.623     12.830
REMARK  8 active torsions:
REMARK  status: ('A' for Active; 'I' for Inactive)
REMARK    1  A    between atoms: C_9  and  C_6 
REMARK    2  A    between atoms: C_24  and  C_9 
REMARK    3  A    between atoms: O_32  and  C_16 
REMARK    4  A    between atoms: O_32  and  C_18 
REMARK    5  A    between atoms: C_19  and  C_24 
REMARK    6  A    between atoms: C_27  and  C_23 
REMARK    7  A    between atoms: C_24  and  O_30 
REMARK    8  A    between atoms: C_27  and  O_31 
ROOT
HETATM    1  C   UNK N   1      30.422  18.451   9.115  0.00  0.00     0.310 C 
HETATM    2  C   UNK N   1      31.004  16.742   4.130  0.00  0.00     0.011 C 
HETATM    3  C   UNK N   1      31.892  16.384   3.077  0.00  0.00     0.041 C 
HETATM    4  C   UNK N   1      32.361  14.141   7.377  0.00  0.00    -0.015 C 
HETATM    5  C   UNK N   1      33.520  13.474   7.168  0.00  0.00     0.011 C 
HETATM    6  C   UNK N   1      33.747  17.752   7.552  0.00  0.00     0.048 C 
HETATM    7  C   UNK N   1      32.479  18.506   7.951  0.00  0.00     0.273 C 
HETATM    8  C   UNK N   1      30.539  16.791   6.665  0.00  0.00     0.076 C 
HETATM    9  C   UNK N   1      33.299  15.313   9.266  0.00  0.00     0.028 C 
HETATM   10  C   UNK N   1      31.465  16.732   5.461  0.00  0.00    -0.046 C 
HETATM   11  C   UNK N   1      33.207  15.939   3.385  0.00  0.00     0.113 C 
HETATM   12  C   UNK N   1      34.762  14.848   8.929  0.00  0.00     0.062 C 
HETATM   13  C   UNK N   1      31.221  16.427   8.059  0.00  0.00     0.240 C 
HETATM   14  C   UNK N   1      32.790  16.413   5.679  0.00  0.00    -0.003 A 
HETATM   15  C   UNK N   1      33.598  15.962   4.709  0.00  0.00     0.111 A 
HETATM   16  C   UNK N   1      34.775  15.600   6.588  0.00  0.00     0.182 A 
HETATM   17  C   UNK N   1      32.526  15.550   7.930  0.00  0.00     0.024 C 
HETATM   18  C   UNK N   1      33.447  16.349   6.980  0.00  0.00     0.035 A 
HETATM   19  C   UNK N   1      34.813  14.271   7.438  0.00  0.00     0.112 C 
HETATM   20  N   UNK N   1      31.600  17.667   8.772  0.00  0.00     0.090 N 
HETATM   21  O   UNK N   1      34.737  15.470   5.204  0.00  0.00    -0.338 OA
ENDROOT
BRANCH  12  22
HETATM   22  C   UNK N   1      35.540  14.168  10.089  0.00  0.00     0.061 C 
HETATM   23  C   UNK N   1      35.018  12.740  10.249  0.00  0.00     0.046 C 
BRANCH  22  24
HETATM   24  C   UNK N   1      35.466  14.894  11.433  0.00  0.00     0.037 C 
BRANCH  24  25
HETATM   25  C   UNK N   1      35.320  13.917  12.615  0.00  0.00    -0.002 C 
HETATM   26  C   UNK N   1      36.365  14.139  13.700  0.00  0.00     0.005 C 
ENDBRANCH  24  25
ENDBRANCH  22  24
BRANCH  22  27
HETATM   27  O   UNK N   1      36.882  14.077   9.701  0.00  0.00    -0.390 OA
HETATM   28  H   UNK N   1      37.506  13.455  10.105  0.00  0.00     0.210 HD
ENDBRANCH  22  27
ENDBRANCH  12  22
BRANCH  19  29
HETATM   29  O   UNK N   1      35.988  13.507   7.220  0.00  0.00    -0.378 OA
HETATM   30  C   UNK N   1      35.679  12.306   6.558  0.00  0.00     0.203 C 
ENDBRANCH  19  29
BRANCH  11  31
HETATM   31  O   UNK N   1      34.084  15.465   2.466  0.00  0.00    -0.276 OA
BRANCH  31  32
HETATM   32  C   UNK N   1      34.261  14.177   2.090  0.00  0.00     0.260 C 
HETATM   33  C   UNK N   1      35.514  13.478   2.484  0.00  0.00     0.126 C 
HETATM   34  O   UNK N   1      33.376  13.556   1.520  0.00  0.00    -0.265 OA
ENDBRANCH  31  32
ENDBRANCH  11  31
TORSDOF 8
ENDMDL
MODEL 8
REMARK VINA RESULT:      -6.5     14.653     16.898
REMARK  8 active torsions:
REMARK  status: ('A' for Active; 'I' for Inactive)
REMARK    1  A    between atoms: C_9  and  C_6 
REMARK    2  A    between atoms: C_24  and  C_9 
REMARK    3  A    between atoms: O_32  and  C_16 
REMARK    4  A    between atoms: O_32  and  C_18 
REMARK    5  A    between atoms: C_19  and  C_24 
REMARK    6  A    between atoms: C_27  and  C_23 
REMARK    7  A    between atoms: C_24  and  O_30 
REMARK    8  A    between atoms: C_27  and  O_31 
ROOT
HETATM    1  C   UNK N   1      32.364  22.583  -5.736  0.00  0.00     0.310 C 
HETATM    2  C   UNK N   1      31.021  27.038  -3.194  0.00  0.00     0.011 C 
HETATM    3  C   UNK N   1      30.305  28.266  -3.218  0.00  0.00     0.041 C 
HETATM    4  C   UNK N   1      27.867  24.139  -4.088  0.00  0.00    -0.015 C 
HETATM    5  C   UNK N   1      26.678  24.649  -4.486  0.00  0.00     0.011 C 
HETATM    6  C   UNK N   1      30.022  25.134  -7.148  0.00  0.00     0.048 C 
HETATM    7  C   UNK N   1      31.329  24.426  -6.795  0.00  0.00     0.273 C 
HETATM    8  C   UNK N   1      31.128  24.564  -3.915  0.00  0.00     0.076 C 
HETATM    9  C   UNK N   1      28.146  22.979  -6.185  0.00  0.00     0.028 C 
HETATM   10  C   UNK N   1      30.647  25.998  -4.068  0.00  0.00    -0.046 C 
HETATM   11  C   UNK N   1      29.168  28.404  -4.061  0.00  0.00     0.113 C 
HETATM   12  C   UNK N   1      26.959  23.755  -6.864  0.00  0.00     0.062 C 
HETATM   13  C   UNK N   1      30.334  23.490  -4.783  0.00  0.00     0.240 C 
HETATM   14  C   UNK N   1      29.615  26.243  -4.951  0.00  0.00    -0.003 A 
HETATM   15  C   UNK N   1      28.862  27.351  -4.900  0.00  0.00     0.111 A 
HETATM   16  C   UNK N   1      27.750  26.021  -6.330  0.00  0.00     0.182 A 
HETATM   17  C   UNK N   1      28.884  23.945  -5.205  0.00  0.00     0.024 C 
HETATM   18  C   UNK N   1      29.088  25.296  -5.928  0.00  0.00     0.035 A 
HETATM   19  C   UNK N   1      26.574  25.029  -5.977  0.00  0.00     0.112 C 
HETATM   20  N   UNK N   1      31.078  23.201  -6.029  0.00  0.00     0.090 N 
HETATM   21  O   UNK N   1      27.773  27.243  -5.666  0.00  0.00    -0.338 OA
ENDROOT
BRANCH  12  22
HETATM   22  C   UNK N   1      25.870  22.874  -7.534  0.00  0.00     0.061 C 
HETATM   23  C   UNK N   1      26.490  21.519  -7.880  0.00  0.00     0.046 C 
BRANCH  22  24
HETATM   24  C   UNK N   1      25.226  23.476  -8.783  0.00  0.00     0.037 C 
BRANCH  24  25
HETATM   25  C   UNK N   1      26.212  24.349  -9.584  0.00  0.00    -0.002 C 
HETATM   26  C   UNK N   1      25.715  25.774  -9.784  0.00  0.00     0.005 C 
ENDBRANCH  24  25
ENDBRANCH  22  24
BRANCH  22  27
HETATM   27  O   UNK N   1      24.871  22.640  -6.582  0.00  0.00    -0.390 OA
HETATM   28  H   UNK N   1      23.953  22.928  -6.700  0.00  0.00     0.210 HD
ENDBRANCH  22  27
ENDBRANCH  12  22
BRANCH  19  29
HETATM   29  O   UNK N   1      25.297  25.536  -6.330  0.00  0.00    -0.378 OA
HETATM   30  C   UNK N   1      24.870  26.492  -5.392  0.00  0.00     0.203 C 
ENDBRANCH  19  29
BRANCH  11  31
HETATM   31  O   UNK N   1      28.353  29.486  -4.068  0.00  0.00    -0.276 OA
BRANCH  31  32
HETATM   32  C   UNK N   1      27.297  29.723  -3.255  0.00  0.00     0.260 C 
HETATM   33  C   UNK N   1      26.502  30.966  -3.453  0.00  0.00     0.126 C 
HETATM   34  O   UNK N   1      26.933  28.897  -2.433  0.00  0.00    -0.265 OA
ENDBRANCH  31  32
ENDBRANCH  11  31
TORSDOF 8
ENDMDL
MODEL 9
REMARK VINA RESULT:      -6.5      7.558      9.778
REMARK  8 active torsions:
REMARK  status: ('A' for Active; 'I' for Inactive)
REMARK    1  A    between atoms: C_9  and  C_6 
REMARK    2  A    between atoms: C_24  and  C_9 
REMARK    3  A    between atoms: O_32  and  C_16 
REMARK    4  A    between atoms: O_32  and  C_18 
REMARK    5  A    between atoms: C_19  and  C_24 
REMARK    6  A    between atoms: C_27  and  C_23 
REMARK    7  A    between atoms: C_24  and  O_30 
REMARK    8  A    between atoms: C_27  and  O_31 
ROOT
HETATM    1  C   UNK N   1      29.251  13.705   1.624  0.00  0.00     0.310 C 
HETATM    2  C   UNK N   1      27.667  17.924   4.417  0.00  0.00     0.011 C 
HETATM    3  C   UNK N   1      27.595  18.571   5.682  0.00  0.00     0.041 C 
HETATM    4  C   UNK N   1      31.965  17.210   4.014  0.00  0.00    -0.015 C 
HETATM    5  C   UNK N   1      32.719  17.442   5.114  0.00  0.00     0.011 C 
HETATM    6  C   UNK N   1      29.958  14.146   5.270  0.00  0.00     0.048 C 
HETATM    7  C   UNK N   1      29.220  13.766   3.987  0.00  0.00     0.273 C 
HETATM    8  C   UNK N   1      29.003  16.402   2.821  0.00  0.00     0.076 C 
HETATM    9  C   UNK N   1      32.590  14.880   3.995  0.00  0.00     0.028 C 
HETATM   10  C   UNK N   1      28.638  16.927   4.201  0.00  0.00    -0.046 C 
HETATM   11  C   UNK N   1      28.555  18.266   6.686  0.00  0.00     0.113 C 
HETATM   12  C   UNK N   1      33.227  14.957   5.430  0.00  0.00     0.062 C 
HETATM   13  C   UNK N   1      30.343  15.541   2.760  0.00  0.00     0.240 C 
HETATM   14  C   UNK N   1      29.457  16.589   5.259  0.00  0.00    -0.003 A 
HETATM   15  C   UNK N   1      29.474  17.272   6.412  0.00  0.00     0.111 A 
HETATM   16  C   UNK N   1      31.276  15.939   6.561  0.00  0.00     0.182 A 
HETATM   17  C   UNK N   1      31.345  15.821   3.945  0.00  0.00     0.024 C 
HETATM   18  C   UNK N   1      30.516  15.586   5.228  0.00  0.00     0.035 A 
HETATM   19  C   UNK N   1      32.757  16.304   6.155  0.00  0.00     0.112 C 
HETATM   20  N   UNK N   1      30.014  14.099   2.801  0.00  0.00     0.090 N 
HETATM   21  O   UNK N   1      30.520  16.934   7.171  0.00  0.00    -0.338 OA
ENDROOT
BRANCH  12  22
HETATM   22  C   UNK N   1      34.684  14.435   5.553  0.00  0.00     0.061 C 
HETATM   23  C   UNK N   1      35.073  13.770   4.232  0.00  0.00     0.046 C 
BRANCH  22  24
HETATM   24  C   UNK N   1      34.930  13.463   6.708  0.00  0.00     0.037 C 
BRANCH  24  25
HETATM   25  C   UNK N   1      36.024  12.430   6.376  0.00  0.00    -0.002 C 
HETATM   26  C   UNK N   1      37.358  12.746   7.038  0.00  0.00     0.005 C 
ENDBRANCH  24  25
ENDBRANCH  22  24
BRANCH  22  27
HETATM   27  O   UNK N   1      35.518  15.548   5.717  0.00  0.00    -0.390 OA
HETATM   28  H   UNK N   1      35.946  16.000   4.974  0.00  0.00     0.210 HD
ENDBRANCH  22  27
ENDBRANCH  12  22
BRANCH  19  29
HETATM   29  O   UNK N   1      33.580  16.603   7.270  0.00  0.00    -0.378 OA
HETATM   30  C   UNK N   1      33.771  17.991   7.383  0.00  0.00     0.203 C 
ENDBRANCH  19  29
BRANCH  11  31
HETATM   31  O   UNK N   1      28.644  18.910   7.875  0.00  0.00    -0.276 OA
BRANCH  31  32
HETATM   32  C   UNK N   1      28.609  18.360   9.111  0.00  0.00     0.260 C 
HETATM   33  C   UNK N   1      29.722  18.646  10.056  0.00  0.00     0.126 C 
HETATM   34  O   UNK N   1      27.643  17.716   9.491  0.00  0.00    -0.265 OA
ENDBRANCH  31  32
ENDBRANCH  11  31
TORSDOF 8
ENDMDL
