MODEL 1
REMARK VINA RESULT:      -6.6      0.000      0.000
REMARK  6 active torsions:
REMARK  status: ('A' for Active; 'I' for Inactive)
REMARK       I    between atoms: N_3  and  C_6 
REMARK    1  A    between atoms: N_4  and  C_14 
REMARK    2  A    between atoms: C_5  and  C_6 
REMARK    3  A    between atoms: C_5  and  C_7 
REMARK    4  A    between atoms: C_5  and  C_8 
REMARK    5  A    between atoms: C_5  and  C_9 
REMARK    6  A    between atoms: C_9  and  C_14 
ROOT
HETATM    1  C   UNK N   1      33.077  16.072   7.069  0.00  0.00     0.100 C 
ENDROOT
BRANCH   1   2
HETATM    2  C   UNK N   1      34.163  16.669   8.047  0.00  0.00     0.238 C 
HETATM    3  O   UNK N   1      34.888  17.587   7.679  0.00  0.00    -0.272 OA
HETATM    4  N   UNK N   1      34.327  16.165   9.323  0.00  0.00    -0.351 N 
HETATM    5  C   UNK N   1      33.587  15.048   9.847  0.00  0.00     0.126 C 
HETATM    6  C   UNK N   1      35.315  16.680  10.230  0.00  0.00     0.126 C 
HETATM    7  C   UNK N   1      34.363  14.610  11.075  0.00  0.00     0.021 C 
HETATM    8  C   UNK N   1      35.186  15.824  11.483  0.00  0.00     0.021 C 
ENDBRANCH   1   2
BRANCH   1   9
HETATM    9  C   UNK N   1      34.086  14.967   6.613  0.00  0.00    -0.035 A 
HETATM   10  C   UNK N   1      33.795  13.612   6.846  0.00  0.00     0.009 A 
HETATM   11  C   UNK N   1      34.656  12.611   6.383  0.00  0.00     0.001 A 
HETATM   12  C   UNK N   1      35.819  12.945   5.682  0.00  0.00     0.000 A 
HETATM   13  C   UNK N   1      36.129  14.281   5.434  0.00  0.00     0.001 A 
HETATM   14  C   UNK N   1      35.271  15.283   5.879  0.00  0.00     0.009 A 
ENDBRANCH   1   9
BRANCH   1  15
HETATM   15  C   UNK N   1      32.599  16.141   5.597  0.00  0.00    -0.035 A 
HETATM   16  C   UNK N   1      32.861  17.339   4.892  0.00  0.00     0.009 A 
HETATM   17  C   UNK N   1      32.440  17.504   3.574  0.00  0.00     0.001 A 
HETATM   18  C   UNK N   1      31.745  16.480   2.935  0.00  0.00     0.000 A 
HETATM   19  C   UNK N   1      31.474  15.286   3.612  0.00  0.00     0.001 A 
HETATM   20  C   UNK N   1      31.895  15.109   4.936  0.00  0.00     0.009 A 
ENDBRANCH   1  15
BRANCH   1  21
HETATM   21  C   UNK N   1      32.024  17.235   7.414  0.00  0.00     0.037 C 
HETATM   22  C   UNK N   1      32.490  18.279   8.475  0.00  0.00     0.014 C 
BRANCH  21  23
HETATM   23  C   UNK N   1      30.533  16.879   7.602  0.00  0.00     0.278 C 
BRANCH  23  24
HETATM   24  N   UNK N   1      29.683  17.879   6.948  0.00  0.00     0.092 N 
HETATM   25  C   UNK N   1      29.032  17.336   5.754  0.00  0.00     0.298 C 
HETATM   26  C   UNK N   1      28.167  18.441   5.136  0.00  0.00     0.198 C 
HETATM   27  O   UNK N   1      27.178  18.835   6.058  0.00  0.00    -0.388 OA
HETATM   28  C   UNK N   1      27.838  19.435   7.149  0.00  0.00     0.198 C 
HETATM   29  C   UNK N   1      28.680  18.384   7.879  0.00  0.00     0.298 C 
ENDBRANCH  23  24
ENDBRANCH  21  23
ENDBRANCH   1  21
TORSDOF 6
ENDMDL
MODEL 2
REMARK VINA RESULT:      -6.5     13.651     17.553
REMARK  6 active torsions:
REMARK  status: ('A' for Active; 'I' for Inactive)
REMARK       I    between atoms: N_3  and  C_6 
REMARK    1  A    between atoms: N_4  and  C_14 
REMARK    2  A    between atoms: C_5  and  C_6 
REMARK    3  A    between atoms: C_5  and  C_7 
REMARK    4  A    between atoms: C_5  and  C_8 
REMARK    5  A    between atoms: C_5  and  C_9 
REMARK    6  A    between atoms: C_9  and  C_14 
ROOT
HETATM    1  C   UNK N   1      27.025  24.741  -7.009  0.00  0.00     0.100 C 
ENDROOT
BRANCH   1   2
HETATM    2  C   UNK N   1      26.192  25.846  -6.250  0.00  0.00     0.238 C 
HETATM    3  O   UNK N   1      25.015  25.648  -5.967  0.00  0.00    -0.272 OA
HETATM    4  N   UNK N   1      26.763  27.055  -5.900  0.00  0.00    -0.351 N 
HETATM    5  C   UNK N   1      28.110  27.433  -6.234  0.00  0.00     0.126 C 
HETATM    6  C   UNK N   1      26.026  28.083  -5.219  0.00  0.00     0.126 C 
HETATM    7  C   UNK N   1      28.156  28.935  -6.022  0.00  0.00     0.021 C 
HETATM    8  C   UNK N   1      27.005  29.241  -5.074  0.00  0.00     0.021 C 
ENDBRANCH   1   2
BRANCH   1   9
HETATM    9  C   UNK N   1      26.493  25.275  -8.380  0.00  0.00    -0.035 A 
HETATM   10  C   UNK N   1      27.310  26.096  -9.177  0.00  0.00     0.009 A 
HETATM   11  C   UNK N   1      26.873  26.524 -10.436  0.00  0.00     0.001 A 
HETATM   12  C   UNK N   1      25.617  26.142 -10.918  0.00  0.00     0.000 A 
HETATM   13  C   UNK N   1      24.790  25.326 -10.149  0.00  0.00     0.001 A 
HETATM   14  C   UNK N   1      25.222  24.884  -8.902  0.00  0.00     0.009 A 
ENDBRANCH   1   9
BRANCH   1  15
HETATM   15  C   UNK N   1      26.897  23.314  -7.598  0.00  0.00    -0.035 A 
HETATM   16  C   UNK N   1      25.710  22.602  -7.303  0.00  0.00     0.009 A 
HETATM   17  C   UNK N   1      25.521  21.300  -7.762  0.00  0.00     0.001 A 
HETATM   18  C   UNK N   1      26.513  20.681  -8.519  0.00  0.00     0.000 A 
HETATM   19  C   UNK N   1      27.694  21.365  -8.824  0.00  0.00     0.001 A 
HETATM   20  C   UNK N   1      27.893  22.674  -8.369  0.00  0.00     0.009 A 
ENDBRANCH   1  15
BRANCH   1  21
HETATM   21  C   UNK N   1      27.530  24.077  -5.637  0.00  0.00     0.037 C 
HETATM   22  C   UNK N   1      26.577  24.239  -4.414  0.00  0.00     0.014 C 
BRANCH  21  23
HETATM   23  C   UNK N   1      29.007  24.236  -5.215  0.00  0.00     0.278 C 
BRANCH  23  24
HETATM   24  N   UNK N   1      29.341  23.281  -4.153  0.00  0.00     0.092 N 
HETATM   25  C   UNK N   1      30.346  22.312  -4.595  0.00  0.00     0.298 C 
HETATM   26  C   UNK N   1      30.635  21.357  -3.430  0.00  0.00     0.198 C 
HETATM   27  O   UNK N   1      31.149  22.087  -2.340  0.00  0.00    -0.388 OA
HETATM   28  C   UNK N   1      30.122  22.940  -1.886  0.00  0.00     0.198 C 
HETATM   29  C   UNK N   1      29.810  23.983  -2.963  0.00  0.00     0.298 C 
ENDBRANCH  23  24
ENDBRANCH  21  23
ENDBRANCH   1  21
TORSDOF 6
ENDMDL
MODEL 3
REMARK VINA RESULT:      -6.4     13.741     17.399
REMARK  6 active torsions:
REMARK  status: ('A' for Active; 'I' for Inactive)
REMARK       I    between atoms: N_3  and  C_6 
REMARK    1  A    between atoms: N_4  and  C_14 
REMARK    2  A    between atoms: C_5  and  C_6 
REMARK    3  A    between atoms: C_5  and  C_7 
REMARK    4  A    between atoms: C_5  and  C_8 
REMARK    5  A    between atoms: C_5  and  C_9 
REMARK    6  A    between atoms: C_9  and  C_14 
ROOT
HETATM    1  C   UNK N   1      27.304  25.548  -5.499  0.00  0.00     0.100 C 
ENDROOT
BRANCH   1   2
HETATM    2  C   UNK N   1      26.225  24.433  -5.791  0.00  0.00     0.238 C 
HETATM    3  O   UNK N   1      25.139  24.458  -5.219  0.00  0.00    -0.272 OA
HETATM    4  N   UNK N   1      26.482  23.406  -6.679  0.00  0.00    -0.351 N 
HETATM    5  C   UNK N   1      27.737  23.229  -7.359  0.00  0.00     0.126 C 
HETATM    6  C   UNK N   1      25.524  22.372  -6.955  0.00  0.00     0.126 C 
HETATM    7  C   UNK N   1      27.698  21.805  -7.881  0.00  0.00     0.021 C 
HETATM    8  C   UNK N   1      26.222  21.438  -7.936  0.00  0.00     0.021 C 
ENDBRANCH   1   2
BRANCH   1   9
HETATM    9  C   UNK N   1      27.970  24.629  -4.423  0.00  0.00    -0.035 A 
HETATM   10  C   UNK N   1      29.315  24.244  -4.566  0.00  0.00     0.009 A 
HETATM   11  C   UNK N   1      29.944  23.479  -3.577  0.00  0.00     0.001 A 
HETATM   12  C   UNK N   1      29.242  23.085  -2.433  0.00  0.00     0.000 A 
HETATM   13  C   UNK N   1      27.910  23.457  -2.265  0.00  0.00     0.001 A 
HETATM   14  C   UNK N   1      27.281  24.229  -3.238  0.00  0.00     0.009 A 
ENDBRANCH   1   9
BRANCH   1  15
HETATM   15  C   UNK N   1      27.592  26.740  -4.554  0.00  0.00    -0.035 A 
HETATM   16  C   UNK N   1      28.901  27.277  -4.578  0.00  0.00     0.009 A 
HETATM   17  C   UNK N   1      29.262  28.329  -3.739  0.00  0.00     0.001 A 
HETATM   18  C   UNK N   1      28.327  28.862  -2.854  0.00  0.00     0.000 A 
HETATM   19  C   UNK N   1      27.027  28.347  -2.812  0.00  0.00     0.001 A 
HETATM   20  C   UNK N   1      26.653  27.292  -3.653  0.00  0.00     0.009 A 
ENDBRANCH   1  15
BRANCH   1  21
HETATM   21  C   UNK N   1      26.612  26.582  -6.514  0.00  0.00     0.037 C 
HETATM   22  C   UNK N   1      25.101  26.873  -6.263  0.00  0.00     0.014 C 
BRANCH  21  23
HETATM   23  C   UNK N   1      26.914  26.480  -8.026  0.00  0.00     0.278 C 
BRANCH  23  24
HETATM   24  N   UNK N   1      28.155  27.193  -8.348  0.00  0.00     0.092 N 
HETATM   25  C   UNK N   1      28.330  27.344  -9.794  0.00  0.00     0.298 C 
HETATM   26  C   UNK N   1      29.643  28.096 -10.042  0.00  0.00     0.198 C 
HETATM   27  O   UNK N   1      29.571  29.374  -9.452  0.00  0.00    -0.388 OA
HETATM   28  C   UNK N   1      29.497  29.188  -8.057  0.00  0.00     0.198 C 
HETATM   29  C   UNK N   1      28.174  28.501  -7.702  0.00  0.00     0.298 C 
ENDBRANCH  23  24
ENDBRANCH  21  23
ENDBRANCH   1  21
TORSDOF 6
ENDMDL
MODEL 4
REMARK VINA RESULT:      -6.4      2.544      7.222
REMARK  6 active torsions:
REMARK  status: ('A' for Active; 'I' for Inactive)
REMARK       I    between atoms: N_3  and  C_6 
REMARK    1  A    between atoms: N_4  and  C_14 
REMARK    2  A    between atoms: C_5  and  C_6 
REMARK    3  A    between atoms: C_5  and  C_7 
REMARK    4  A    between atoms: C_5  and  C_8 
REMARK    5  A    between atoms: C_5  and  C_9 
REMARK    6  A    between atoms: C_9  and  C_14 
ROOT
HETATM    1  C   UNK N   1      28.841  16.763   5.063  0.00  0.00     0.100 C 
ENDROOT
BRANCH   1   2
HETATM    2  C   UNK N   1      29.366  15.959   3.810  0.00  0.00     0.238 C 
HETATM    3  O   UNK N   1      29.653  16.548   2.773  0.00  0.00    -0.272 OA
HETATM    4  N   UNK N   1      29.502  14.584   3.850  0.00  0.00    -0.351 N 
HETATM    5  C   UNK N   1      29.136  13.774   4.981  0.00  0.00     0.126 C 
HETATM    6  C   UNK N   1      29.966  13.826   2.722  0.00  0.00     0.126 C 
HETATM    7  C   UNK N   1      29.070  12.358   4.440  0.00  0.00     0.021 C 
HETATM    8  C   UNK N   1      29.920  12.373   3.177  0.00  0.00     0.021 C 
ENDBRANCH   1   2
BRANCH   1   9
HETATM    9  C   UNK N   1      27.364  16.511   4.612  0.00  0.00    -0.035 A 
HETATM   10  C   UNK N   1      26.398  16.130   5.559  0.00  0.00     0.009 A 
HETATM   11  C   UNK N   1      25.059  15.969   5.181  0.00  0.00     0.001 A 
HETATM   12  C   UNK N   1      24.666  16.183   3.857  0.00  0.00     0.000 A 
HETATM   13  C   UNK N   1      25.603  16.565   2.900  0.00  0.00     0.001 A 
HETATM   14  C   UNK N   1      26.934  16.741   3.269  0.00  0.00     0.009 A 
ENDBRANCH   1   9
BRANCH   1  15
HETATM   15  C   UNK N   1      28.390  18.181   5.494  0.00  0.00    -0.035 A 
HETATM   16  C   UNK N   1      28.239  18.413   6.882  0.00  0.00     0.009 A 
HETATM   17  C   UNK N   1      27.806  19.647   7.361  0.00  0.00     0.001 A 
HETATM   18  C   UNK N   1      27.509  20.673   6.466  0.00  0.00     0.000 A 
HETATM   19  C   UNK N   1      27.651  20.467   5.090  0.00  0.00     0.001 A 
HETATM   20  C   UNK N   1      28.088  19.231   4.598  0.00  0.00     0.009 A 
ENDBRANCH   1  15
BRANCH   1  21
HETATM   21  C   UNK N   1      30.328  17.146   5.531  0.00  0.00     0.037 C 
HETATM   22  C   UNK N   1      31.320  17.533   4.391  0.00  0.00     0.014 C 
BRANCH  21  23
HETATM   23  C   UNK N   1      31.029  16.291   6.610  0.00  0.00     0.278 C 
BRANCH  23  24
HETATM   24  N   UNK N   1      32.399  16.767   6.828  0.00  0.00     0.092 N 
HETATM   25  C   UNK N   1      32.464  17.739   7.922  0.00  0.00     0.298 C 
HETATM   26  C   UNK N   1      33.923  18.182   8.083  0.00  0.00     0.198 C 
HETATM   27  O   UNK N   1      34.720  17.067   8.411  0.00  0.00    -0.388 OA
HETATM   28  C   UNK N   1      34.706  16.201   7.299  0.00  0.00     0.198 C 
HETATM   29  C   UNK N   1      33.292  15.647   7.100  0.00  0.00     0.298 C 
ENDBRANCH  23  24
ENDBRANCH  21  23
ENDBRANCH   1  21
TORSDOF 6
ENDMDL
MODEL 5
REMARK VINA RESULT:      -6.4      2.325      6.332
REMARK  6 active torsions:
REMARK  status: ('A' for Active; 'I' for Inactive)
REMARK       I    between atoms: N_3  and  C_6 
REMARK    1  A    between atoms: N_4  and  C_14 
REMARK    2  A    between atoms: C_5  and  C_6 
REMARK    3  A    between atoms: C_5  and  C_7 
REMARK    4  A    between atoms: C_5  and  C_8 
REMARK    5  A    between atoms: C_5  and  C_9 
REMARK    6  A    between atoms: C_9  and  C_14 
ROOT
HETATM    1  C   UNK N   1      32.694  15.979   7.788  0.00  0.00     0.100 C 
ENDROOT
BRANCH   1   2
HETATM    2  C   UNK N   1      34.082  16.009   7.037  0.00  0.00     0.238 C 
HETATM    3  O   UNK N   1      34.707  17.060   6.934  0.00  0.00    -0.272 OA
HETATM    4  N   UNK N   1      34.612  14.864   6.472  0.00  0.00    -0.351 N 
HETATM    5  C   UNK N   1      33.946  13.590   6.466  0.00  0.00     0.126 C 
HETATM    6  C   UNK N   1      35.867  14.864   5.773  0.00  0.00     0.126 C 
HETATM    7  C   UNK N   1      34.682  12.772   5.421  0.00  0.00     0.021 C 
HETATM    8  C   UNK N   1      36.046  13.434   5.282  0.00  0.00     0.021 C 
ENDBRANCH   1   2
BRANCH   1   9
HETATM    9  C   UNK N   1      31.950  16.231   6.435  0.00  0.00    -0.035 A 
HETATM   10  C   UNK N   1      30.829  15.453   6.096  0.00  0.00     0.009 A 
HETATM   11  C   UNK N   1      30.113  15.714   4.922  0.00  0.00     0.001 A 
HETATM   12  C   UNK N   1      30.504  16.750   4.069  0.00  0.00     0.000 A 
HETATM   13  C   UNK N   1      31.609  17.539   4.384  0.00  0.00     0.001 A 
HETATM   14  C   UNK N   1      32.319  17.296   5.557  0.00  0.00     0.009 A 
ENDBRANCH   1   9
BRANCH   1  15
HETATM   15  C   UNK N   1      31.652  16.914   8.451  0.00  0.00    -0.035 A 
HETATM   16  C   UNK N   1      30.608  16.298   9.181  0.00  0.00     0.009 A 
HETATM   17  C   UNK N   1      29.607  17.057   9.783  0.00  0.00     0.001 A 
HETATM   18  C   UNK N   1      29.624  18.445   9.665  0.00  0.00     0.000 A 
HETATM   19  C   UNK N   1      30.646  19.077   8.949  0.00  0.00     0.001 A 
HETATM   20  C   UNK N   1      31.658  18.323   8.342  0.00  0.00     0.009 A 
ENDBRANCH   1  15
BRANCH   1  21
HETATM   21  C   UNK N   1      33.395  15.821   9.224  0.00  0.00     0.037 C 
HETATM   22  C   UNK N   1      34.524  16.848   9.546  0.00  0.00     0.014 C 
BRANCH  21  23
HETATM   23  C   UNK N   1      33.762  14.412   9.739  0.00  0.00     0.278 C 
BRANCH  23  24
HETATM   24  N   UNK N   1      35.060  14.440  10.422  0.00  0.00     0.092 N 
HETATM   25  C   UNK N   1      34.947  13.996  11.813  0.00  0.00     0.298 C 
HETATM   26  C   UNK N   1      36.341  14.055  12.449  0.00  0.00     0.198 C 
HETATM   27  O   UNK N   1      37.210  13.187  11.758  0.00  0.00    -0.388 OA
HETATM   28  C   UNK N   1      37.366  13.700  10.455  0.00  0.00     0.198 C 
HETATM   29  C   UNK N   1      36.030  13.616   9.710  0.00  0.00     0.298 C 
ENDBRANCH  23  24
ENDBRANCH  21  23
ENDBRANCH   1  21
TORSDOF 6
ENDMDL
MODEL 6
REMARK VINA RESULT:      -6.1      3.477      7.274
REMARK  6 active torsions:
REMARK  status: ('A' for Active; 'I' for Inactive)
REMARK       I    between atoms: N_3  and  C_6 
REMARK    1  A    between atoms: N_4  and  C_14 
REMARK    2  A    between atoms: C_5  and  C_6 
REMARK    3  A    between atoms: C_5  and  C_7 
REMARK    4  A    between atoms: C_5  and  C_8 
REMARK    5  A    between atoms: C_5  and  C_9 
REMARK    6  A    between atoms: C_9  and  C_14 
ROOT
HETATM    1  C   UNK N   1      28.541  16.749   5.017  0.00  0.00     0.100 C 
ENDROOT
BRANCH   1   2
HETATM    2  C   UNK N   1      29.833  16.719   5.923  0.00  0.00     0.238 C 
HETATM    3  O   UNK N   1      29.744  16.475   7.122  0.00  0.00    -0.272 OA
HETATM    4  N   UNK N   1      31.083  16.978   5.391  0.00  0.00    -0.351 N 
HETATM    5  C   UNK N   1      31.311  17.343   4.018  0.00  0.00     0.126 C 
HETATM    6  C   UNK N   1      32.275  16.969   6.193  0.00  0.00     0.126 C 
HETATM    7  C   UNK N   1      32.718  17.911   3.996  0.00  0.00     0.021 C 
HETATM    8  C   UNK N   1      33.398  17.343   5.235  0.00  0.00     0.021 C 
ENDBRANCH   1   2
BRANCH   1   9
HETATM    9  C   UNK N   1      28.237  18.209   5.491  0.00  0.00    -0.035 A 
HETATM   10  C   UNK N   1      28.128  19.244   4.545  0.00  0.00     0.009 A 
HETATM   11  C   UNK N   1      27.788  20.540   4.948  0.00  0.00     0.001 A 
HETATM   12  C   UNK N   1      27.555  20.825   6.298  0.00  0.00     0.000 A 
HETATM   13  C   UNK N   1      27.653  19.817   7.254  0.00  0.00     0.001 A 
HETATM   14  C   UNK N   1      27.976  18.521   6.860  0.00  0.00     0.009 A 
ENDBRANCH   1   9
BRANCH   1  15
HETATM   15  C   UNK N   1      27.014  16.492   5.072  0.00  0.00    -0.035 A 
HETATM   16  C   UNK N   1      26.532  15.711   6.149  0.00  0.00     0.009 A 
HETATM   17  C   UNK N   1      25.179  15.400   6.261  0.00  0.00     0.001 A 
HETATM   18  C   UNK N   1      24.280  15.857   5.300  0.00  0.00     0.000 A 
HETATM   19  C   UNK N   1      24.733  16.630   4.226  0.00  0.00     0.001 A 
HETATM   20  C   UNK N   1      26.091  16.951   4.105  0.00  0.00     0.009 A 
ENDBRANCH   1  15
BRANCH   1  21
HETATM   21  C   UNK N   1      28.734  15.220   4.567  0.00  0.00     0.037 C 
HETATM   22  C   UNK N   1      29.746  14.386   5.412  0.00  0.00     0.014 C 
BRANCH  21  23
HETATM   23  C   UNK N   1      28.850  14.879   3.065  0.00  0.00     0.278 C 
BRANCH  23  24
HETATM   24  N   UNK N   1      28.323  13.536   2.804  0.00  0.00     0.092 N 
HETATM   25  C   UNK N   1      26.858  13.521   2.809  0.00  0.00     0.298 C 
HETATM   26  C   UNK N   1      26.393  12.086   2.529  0.00  0.00     0.198 C 
HETATM   27  O   UNK N   1      26.853  11.683   1.260  0.00  0.00    -0.388 OA
HETATM   28  C   UNK N   1      28.259  11.621   1.323  0.00  0.00     0.198 C 
HETATM   29  C   UNK N   1      28.825  13.029   1.532  0.00  0.00     0.298 C 
ENDBRANCH  23  24
ENDBRANCH  21  23
ENDBRANCH   1  21
TORSDOF 6
ENDMDL
MODEL 7
REMARK VINA RESULT:      -5.9      2.265      6.648
REMARK  6 active torsions:
REMARK  status: ('A' for Active; 'I' for Inactive)
REMARK       I    between atoms: N_3  and  C_6 
REMARK    1  A    between atoms: N_4  and  C_14 
REMARK    2  A    between atoms: C_5  and  C_6 
REMARK    3  A    between atoms: C_5  and  C_7 
REMARK    4  A    between atoms: C_5  and  C_8 
REMARK    5  A    between atoms: C_5  and  C_9 
REMARK    6  A    between atoms: C_9  and  C_14 
ROOT
HETATM    1  C   UNK N   1      31.434  16.413   6.468  0.00  0.00     0.100 C 
ENDROOT
BRANCH   1   2
HETATM    2  C   UNK N   1      32.222  16.657   5.123  0.00  0.00     0.238 C 
HETATM    3  O   UNK N   1      32.413  17.799   4.716  0.00  0.00    -0.272 OA
HETATM    4  N   UNK N   1      32.700  15.599   4.373  0.00  0.00    -0.351 N 
HETATM    5  C   UNK N   1      32.482  14.217   4.707  0.00  0.00     0.126 C 
HETATM    6  C   UNK N   1      33.410  15.791   3.139  0.00  0.00     0.126 C 
HETATM    7  C   UNK N   1      32.811  13.454   3.437  0.00  0.00     0.021 C 
HETATM    8  C   UNK N   1      33.706  14.386   2.631  0.00  0.00     0.021 C 
ENDBRANCH   1   2
BRANCH   1   9
HETATM    9  C   UNK N   1      30.077  16.484   5.693  0.00  0.00    -0.035 A 
HETATM   10  C   UNK N   1      29.626  17.713   5.181  0.00  0.00     0.009 A 
HETATM   11  C   UNK N   1      28.449  17.779   4.427  0.00  0.00     0.001 A 
HETATM   12  C   UNK N   1      27.704  16.623   4.173  0.00  0.00     0.000 A 
HETATM   13  C   UNK N   1      28.132  15.392   4.666  0.00  0.00     0.001 A 
HETATM   14  C   UNK N   1      29.309  15.315   5.405  0.00  0.00     0.009 A 
ENDBRANCH   1   9
BRANCH   1  15
HETATM   15  C   UNK N   1      30.732  17.175   7.620  0.00  0.00    -0.035 A 
HETATM   16  C   UNK N   1      29.486  16.669   8.060  0.00  0.00     0.009 A 
HETATM   17  C   UNK N   1      28.766  17.307   9.067  0.00  0.00     0.001 A 
HETATM   18  C   UNK N   1      29.271  18.467   9.652  0.00  0.00     0.000 A 
HETATM   19  C   UNK N   1      30.501  18.986   9.234  0.00  0.00     0.001 A 
HETATM   20  C   UNK N   1      31.233  18.351   8.223  0.00  0.00     0.009 A 
ENDBRANCH   1  15
BRANCH   1  21
HETATM   21  C   UNK N   1      32.781  16.430   7.343  0.00  0.00     0.037 C 
HETATM   22  C   UNK N   1      34.021  17.092   6.668  0.00  0.00     0.014 C 
BRANCH  21  23
HETATM   23  C   UNK N   1      33.188  15.168   8.135  0.00  0.00     0.278 C 
BRANCH  23  24
HETATM   24  N   UNK N   1      34.503  15.356   8.756  0.00  0.00     0.092 N 
HETATM   25  C   UNK N   1      34.387  15.879  10.119  0.00  0.00     0.298 C 
HETATM   26  C   UNK N   1      35.801  16.045  10.690  0.00  0.00     0.198 C 
HETATM   27  O   UNK N   1      36.441  14.790  10.732  0.00  0.00    -0.388 OA
HETATM   28  C   UNK N   1      36.617  14.365   9.400  0.00  0.00     0.198 C 
HETATM   29  C   UNK N   1      35.249  14.103   8.762  0.00  0.00     0.298 C 
ENDBRANCH  23  24
ENDBRANCH  21  23
ENDBRANCH   1  21
TORSDOF 6
ENDMDL
MODEL 8
REMARK VINA RESULT:      -5.9      1.778      4.817
REMARK  6 active torsions:
REMARK  status: ('A' for Active; 'I' for Inactive)
REMARK       I    between atoms: N_3  and  C_6 
REMARK    1  A    between atoms: N_4  and  C_14 
REMARK    2  A    between atoms: C_5  and  C_6 
REMARK    3  A    between atoms: C_5  and  C_7 
REMARK    4  A    between atoms: C_5  and  C_8 
REMARK    5  A    between atoms: C_5  and  C_9 
REMARK    6  A    between atoms: C_9  and  C_14 
ROOT
HETATM    1  C   UNK N   1      33.840  15.197   7.504  0.00  0.00     0.100 C 
ENDROOT
BRANCH   1   2
HETATM    2  C   UNK N   1      32.651  14.801   6.545  0.00  0.00     0.238 C 
HETATM    3  O   UNK N   1      31.860  13.921   6.870  0.00  0.00    -0.272 OA
HETATM    4  N   UNK N   1      32.484  15.422   5.322  0.00  0.00    -0.351 N 
HETATM    5  C   UNK N   1      33.381  16.418   4.798  0.00  0.00     0.126 C 
HETATM    6  C   UNK N   1      31.418  15.074   4.423  0.00  0.00     0.126 C 
HETATM    7  C   UNK N   1      33.046  16.503   3.321  0.00  0.00     0.021 C 
HETATM    8  C   UNK N   1      31.632  15.954   3.198  0.00  0.00     0.021 C 
ENDBRANCH   1   2
BRANCH   1   9
HETATM    9  C   UNK N   1      34.818  14.306   6.670  0.00  0.00    -0.035 A 
HETATM   10  C   UNK N   1      36.063  14.818   6.268  0.00  0.00     0.009 A 
HETATM   11  C   UNK N   1      36.976  14.010   5.580  0.00  0.00     0.001 A 
HETATM   12  C   UNK N   1      36.660  12.680   5.282  0.00  0.00     0.000 A 
HETATM   13  C   UNK N   1      35.434  12.147   5.672  0.00  0.00     0.001 A 
HETATM   14  C   UNK N   1      34.526  12.940   6.369  0.00  0.00     0.009 A 
ENDBRANCH   1   9
BRANCH   1  15
HETATM   15  C   UNK N   1      34.594  14.712   8.768  0.00  0.00    -0.035 A 
HETATM   16  C   UNK N   1      35.370  15.671   9.461  0.00  0.00     0.009 A 
HETATM   17  C   UNK N   1      36.109  15.319  10.588  0.00  0.00     0.001 A 
HETATM   18  C   UNK N   1      36.092  14.002  11.045  0.00  0.00     0.000 A 
HETATM   19  C   UNK N   1      35.331  13.037  10.376  0.00  0.00     0.001 A 
HETATM   20  C   UNK N   1      34.584  13.381   9.243  0.00  0.00     0.009 A 
ENDBRANCH   1  15
BRANCH   1  21
HETATM   21  C   UNK N   1      32.875  16.048   8.465  0.00  0.00     0.037 C 
HETATM   22  C   UNK N   1      31.873  15.220   9.327  0.00  0.00     0.014 C 
BRANCH  21  23
HETATM   23  C   UNK N   1      32.213  17.337   7.929  0.00  0.00     0.278 C 
BRANCH  23  24
HETATM   24  N   UNK N   1      30.786  17.357   8.268  0.00  0.00     0.092 N 
HETATM   25  C   UNK N   1      30.446  18.513   9.100  0.00  0.00     0.298 C 
HETATM   26  C   UNK N   1      28.944  18.457   9.405  0.00  0.00     0.198 C 
HETATM   27  O   UNK N   1      28.217  18.528   8.201  0.00  0.00    -0.388 OA
HETATM   28  C   UNK N   1      28.499  17.356   7.471  0.00  0.00     0.198 C 
HETATM   29  C   UNK N   1      29.974  17.355   7.056  0.00  0.00     0.298 C 
ENDBRANCH  23  24
ENDBRANCH  21  23
ENDBRANCH   1  21
TORSDOF 6
ENDMDL
MODEL 9
REMARK VINA RESULT:      -5.8     12.792     16.393
REMARK  6 active torsions:
REMARK  status: ('A' for Active; 'I' for Inactive)
REMARK       I    between atoms: N_3  and  C_6 
REMARK    1  A    between atoms: N_4  and  C_14 
REMARK    2  A    between atoms: C_5  and  C_6 
REMARK    3  A    between atoms: C_5  and  C_7 
REMARK    4  A    between atoms: C_5  and  C_8 
REMARK    5  A    between atoms: C_5  and  C_9 
REMARK    6  A    between atoms: C_9  and  C_14 
ROOT
HETATM    1  C   UNK N   1      29.098  23.821  -6.013  0.00  0.00     0.100 C 
ENDROOT
BRANCH   1   2
HETATM    2  C   UNK N   1      27.579  23.932  -6.425  0.00  0.00     0.238 C 
HETATM    3  O   UNK N   1      26.726  23.283  -5.827  0.00  0.00    -0.272 OA
HETATM    4  N   UNK N   1      27.180  24.746  -7.468  0.00  0.00    -0.351 N 
HETATM    5  C   UNK N   1      28.088  25.502  -8.289  0.00  0.00     0.126 C 
HETATM    6  C   UNK N   1      25.806  24.857  -7.873  0.00  0.00     0.126 C 
HETATM    7  C   UNK N   1      27.275  25.895  -9.508  0.00  0.00     0.021 C 
HETATM    8  C   UNK N   1      25.821  25.805  -9.066  0.00  0.00     0.021 C 
ENDBRANCH   1   2
BRANCH   1   9
HETATM    9  C   UNK N   1      29.320  22.723  -7.105  0.00  0.00    -0.035 A 
HETATM   10  C   UNK N   1      30.435  22.797  -7.957  0.00  0.00     0.009 A 
HETATM   11  C   UNK N   1      30.683  21.785  -8.892  0.00  0.00     0.001 A 
HETATM   12  C   UNK N   1      29.823  20.687  -8.992  0.00  0.00     0.000 A 
HETATM   13  C   UNK N   1      28.713  20.588  -8.156  0.00  0.00     0.001 A 
HETATM   14  C   UNK N   1      28.466  21.582  -7.214  0.00  0.00     0.009 A 
ENDBRANCH   1   9
BRANCH   1  15
HETATM   15  C   UNK N   1      30.054  23.008  -5.105  0.00  0.00    -0.035 A 
HETATM   16  C   UNK N   1      31.320  23.577  -4.829  0.00  0.00     0.009 A 
HETATM   17  C   UNK N   1      32.257  22.904  -4.050  0.00  0.00     0.001 A 
HETATM   18  C   UNK N   1      31.953  21.645  -3.534  0.00  0.00     0.000 A 
HETATM   19  C   UNK N   1      30.709  21.062  -3.793  0.00  0.00     0.001 A 
HETATM   20  C   UNK N   1      29.759  21.732  -4.574  0.00  0.00     0.009 A 
ENDBRANCH   1  15
BRANCH   1  21
HETATM   21  C   UNK N   1      28.921  24.867  -4.807  0.00  0.00     0.037 C 
HETATM   22  C   UNK N   1      27.885  24.471  -3.711  0.00  0.00     0.014 C 
BRANCH  21  23
HETATM   23  C   UNK N   1      28.851  26.379  -5.117  0.00  0.00     0.278 C 
BRANCH  23  24
HETATM   24  N   UNK N   1      27.823  27.022  -4.293  0.00  0.00     0.092 N 
HETATM   25  C   UNK N   1      28.347  28.202  -3.600  0.00  0.00     0.298 C 
HETATM   26  C   UNK N   1      27.213  28.810  -2.766  0.00  0.00     0.198 C 
HETATM   27  O   UNK N   1      26.163  29.206  -3.618  0.00  0.00    -0.388 OA
HETATM   28  C   UNK N   1      25.626  28.036  -4.193  0.00  0.00     0.198 C 
HETATM   29  C   UNK N   1      26.671  27.390  -5.108  0.00  0.00     0.298 C 
ENDBRANCH  23  24
ENDBRANCH  21  23
ENDBRANCH   1  21
TORSDOF 6
ENDMDL
