REMARK  0 active torsions:
REMARK  status: ('A' for Active; 'I' for Inactive)
ROOT
HETATM    1  C   UNK N   1       0.883  -1.610   1.457  0.00  0.00     0.024 C 
HETATM    2  C   UNK N   1       0.663  -2.205   0.070  0.00  0.00     0.021 C 
HETATM    3  C   UNK N   1       1.393  -1.390  -1.005  0.00  0.00     0.018 C 
HETATM    4  C   UNK N   1       2.869  -1.812  -1.226  0.00  0.00     0.007 C 
HETATM    5  C   UNK N   1       3.459  -2.694  -0.105  0.00  0.00    -0.002 C 
HETATM    6  C   UNK N   1       4.943  -3.015  -0.380  0.00  0.00     0.019 C 
HETATM    7  C   UNK N   1       5.837  -2.087   0.422  0.00  0.00     0.017 C 
HETATM    8  C   UNK N   1       7.291  -2.223  -0.025  0.00  0.00     0.079 C 
HETATM    9  C   UNK N   1       7.755  -3.653  -0.149  0.00  0.00     0.130 C 
HETATM   10  O   UNK N   1       8.937  -3.871  -0.360  0.00  0.00    -0.298 OA
HETATM   11  C   UNK N   1       6.812  -4.823  -0.049  0.00  0.00     0.112 C 
HETATM   12  C   UNK N   1       5.359  -4.456  -0.149  0.00  0.00    -0.072 C 
HETATM   13  C   UNK N   1       4.459  -5.446  -0.120  0.00  0.00    -0.023 C 
HETATM   14  C   UNK N   1       3.007  -5.185  -0.350  0.00  0.00     0.033 C 
HETATM   15  C   UNK N   1       2.577  -3.899   0.329  0.00  0.00    -0.001 C 
HETATM   16  C   UNK N   1       1.124  -3.637  -0.050  0.00  0.00     0.006 C 
HETATM   17  C   UNK N   1       0.009  -4.550   0.419  0.00  0.00     0.013 C 
HETATM   18  C   UNK N   1      -1.240  -3.824  -0.081  0.00  0.00     0.079 C 
HETATM   19  C   UNK N   1      -0.792  -2.400  -0.164  0.00  0.00     0.135 C 
HETATM   20  O   UNK N   1      -1.575  -1.477  -0.316  0.00  0.00    -0.297 OA
ENDROOT
TORSDOF 0
