MODEL 1
REMARK VINA RESULT:      -7.1      0.000      0.000
REMARK  2 active torsions:
REMARK  status: ('A' for Active; 'I' for Inactive)
REMARK    1  A    between atoms: C_5  and  O_22 
REMARK    2  A    between atoms: C_18  and  O_20 
ROOT
HETATM    1  C   UNK N   1      34.121  13.056  15.951  0.00  0.00     0.016 C 
HETATM    2  C   UNK N   1      35.291  12.479  16.740  0.00  0.00    -0.036 C 
HETATM    3  C   UNK N   1      35.662  13.472  17.867  0.00  0.00     0.012 C 
HETATM    4  C   UNK N   1      35.117  13.057  19.235  0.00  0.00     0.032 C 
HETATM    5  C   UNK N   1      35.669  11.683  19.646  0.00  0.00     0.118 C 
HETATM    6  C   UNK N   1      35.753  10.685  18.479  0.00  0.00     0.037 C 
HETATM    7  C   UNK N   1      34.839  11.121  17.336  0.00  0.00    -0.004 C 
HETATM    8  C   UNK N   1      34.681  10.038  16.269  0.00  0.00     0.006 C 
HETATM    9  C   UNK N   1      35.995   9.815  15.531  0.00  0.00     0.006 C 
HETATM   10  C   UNK N   1      36.487  11.097  14.858  0.00  0.00    -0.005 C 
HETATM   11  C   UNK N   1      36.554  12.286  15.852  0.00  0.00    -0.002 C 
HETATM   12  C   UNK N   1      37.042  13.583  15.154  0.00  0.00     0.007 C 
HETATM   13  C   UNK N   1      36.309  13.882  13.826  0.00  0.00     0.013 C 
HETATM   14  C   UNK N   1      36.360  12.657  12.907  0.00  0.00    -0.009 C 
HETATM   15  C   UNK N   1      35.696  11.486  13.609  0.00  0.00     0.001 C 
HETATM   16  C   UNK N   1      35.533  10.436  12.517  0.00  0.00     0.009 C 
HETATM   17  C   UNK N   1      35.418  11.250  11.215  0.00  0.00     0.038 C 
HETATM   18  C   UNK N   1      35.513  12.721  11.632  0.00  0.00     0.062 C 
HETATM   19  C   UNK N   1      36.111  13.585  10.530  0.00  0.00     0.046 C 
HETATM   20  C   UNK N   1      37.832  12.341  12.560  0.00  0.00     0.018 C 
ENDROOT
BRANCH  18  21
HETATM   21  O   UNK N   1      34.224  13.186  11.919  0.00  0.00    -0.389 OA
HETATM   22  H   UNK N   1      33.272  13.340  11.812  0.00  0.00     0.210 HD
ENDBRANCH  18  21
BRANCH   5  23
HETATM   23  O   UNK N   1      34.870  11.151  20.657  0.00  0.00    -0.396 OA
HETATM   24  H   UNK N   1      34.907  10.236  20.978  0.00  0.00     0.210 HD
ENDBRANCH   5  23
TORSDOF 2
ENDMDL
MODEL 2
REMARK VINA RESULT:      -6.9     25.254     27.403
REMARK  2 active torsions:
REMARK  status: ('A' for Active; 'I' for Inactive)
REMARK    1  A    between atoms: C_5  and  O_22 
REMARK    2  A    between atoms: C_18  and  O_20 
ROOT
HETATM    1  C   UNK N   1      25.058  25.685  -5.547  0.00  0.00     0.016 C 
HETATM    2  C   UNK N   1      26.176  24.933  -6.259  0.00  0.00    -0.036 C 
HETATM    3  C   UNK N   1      26.072  23.433  -5.892  0.00  0.00     0.012 C 
HETATM    4  C   UNK N   1      25.415  22.592  -6.989  0.00  0.00     0.032 C 
HETATM    5  C   UNK N   1      26.219  22.681  -8.296  0.00  0.00     0.118 C 
HETATM    6  C   UNK N   1      26.764  24.090  -8.583  0.00  0.00     0.037 C 
HETATM    7  C   UNK N   1      25.988  25.136  -7.784  0.00  0.00    -0.004 C 
HETATM    8  C   UNK N   1      26.308  26.563  -8.229  0.00  0.00     0.006 C 
HETATM    9  C   UNK N   1      27.745  26.926  -7.877  0.00  0.00     0.006 C 
HETATM   10  C   UNK N   1      28.004  26.811  -6.375  0.00  0.00    -0.005 C 
HETATM   11  C   UNK N   1      27.584  25.426  -5.817  0.00  0.00    -0.002 C 
HETATM   12  C   UNK N   1      27.840  25.326  -4.290  0.00  0.00     0.007 C 
HETATM   13  C   UNK N   1      27.305  26.539  -3.496  0.00  0.00     0.013 C 
HETATM   14  C   UNK N   1      27.833  27.844  -4.103  0.00  0.00    -0.009 C 
HETATM   15  C   UNK N   1      27.377  27.934  -5.548  0.00  0.00     0.001 C 
HETATM   16  C   UNK N   1      27.687  29.370  -5.952  0.00  0.00     0.009 C 
HETATM   17  C   UNK N   1      27.602  30.165  -4.636  0.00  0.00     0.038 C 
HETATM   18  C   UNK N   1      27.240  29.145  -3.553  0.00  0.00     0.062 C 
HETATM   19  C   UNK N   1      27.784  29.549  -2.190  0.00  0.00     0.046 C 
HETATM   20  C   UNK N   1      29.374  27.868  -3.999  0.00  0.00     0.018 C 
ENDROOT
BRANCH  18  21
HETATM   21  O   UNK N   1      25.845  29.057  -3.473  0.00  0.00    -0.389 OA
HETATM   22  H   UNK N   1      24.918  29.343  -3.475  0.00  0.00     0.210 HD
ENDBRANCH  18  21
BRANCH   5  23
HETATM   23  O   UNK N   1      25.415  22.267  -9.358  0.00  0.00    -0.396 OA
HETATM   24  H   UNK N   1      24.967  21.409  -9.419  0.00  0.00     0.210 HD
ENDBRANCH   5  23
TORSDOF 2
ENDMDL
MODEL 3
REMARK VINA RESULT:      -6.9      5.002     10.017
REMARK  2 active torsions:
REMARK  status: ('A' for Active; 'I' for Inactive)
REMARK    1  A    between atoms: C_5  and  O_22 
REMARK    2  A    between atoms: C_18  and  O_20 
ROOT
HETATM    1  C   UNK N   1      31.920  15.104   8.245  0.00  0.00     0.016 C 
HETATM    2  C   UNK N   1      32.688  15.585   7.019  0.00  0.00    -0.036 C 
HETATM    3  C   UNK N   1      32.207  14.780   5.789  0.00  0.00     0.012 C 
HETATM    4  C   UNK N   1      31.215  15.553   4.916  0.00  0.00     0.032 C 
HETATM    5  C   UNK N   1      31.853  16.847   4.386  0.00  0.00     0.118 C 
HETATM    6  C   UNK N   1      32.737  17.561   5.422  0.00  0.00     0.037 C 
HETATM    7  C   UNK N   1      32.388  17.095   6.834  0.00  0.00    -0.004 C 
HETATM    8  C   UNK N   1      33.045  17.959   7.911  0.00  0.00     0.006 C 
HETATM    9  C   UNK N   1      34.556  17.773   7.902  0.00  0.00     0.006 C 
HETATM   10  C   UNK N   1      34.946  16.314   8.138  0.00  0.00    -0.005 C 
HETATM   11  C   UNK N   1      34.220  15.352   7.162  0.00  0.00    -0.002 C 
HETATM   12  C   UNK N   1      34.614  13.874   7.421  0.00  0.00     0.007 C 
HETATM   13  C   UNK N   1      34.541  13.469   8.911  0.00  0.00     0.013 C 
HETATM   14  C   UNK N   1      35.342  14.456   9.767  0.00  0.00    -0.009 C 
HETATM   15  C   UNK N   1      34.764  15.848   9.583  0.00  0.00     0.001 C 
HETATM   16  C   UNK N   1      35.419  16.675  10.683  0.00  0.00     0.009 C 
HETATM   17  C   UNK N   1      35.717  15.660  11.801  0.00  0.00     0.038 C 
HETATM   18  C   UNK N   1      35.211  14.310  11.287  0.00  0.00     0.062 C 
HETATM   19  C   UNK N   1      36.001  13.147  11.870  0.00  0.00     0.046 C 
HETATM   20  C   UNK N   1      36.827  14.407   9.348  0.00  0.00     0.018 C 
ENDROOT
BRANCH  18  21
HETATM   21  O   UNK N   1      33.866  14.169  11.655  0.00  0.00    -0.389 OA
HETATM   22  H   UNK N   1      33.008  13.743  11.801  0.00  0.00     0.210 HD
ENDBRANCH  18  21
BRANCH   5  23
HETATM   23  O   UNK N   1      30.846  17.712   3.957  0.00  0.00    -0.396 OA
HETATM   24  H   UNK N   1      30.386  17.656   3.105  0.00  0.00     0.210 HD
ENDBRANCH   5  23
TORSDOF 2
ENDMDL
MODEL 4
REMARK VINA RESULT:      -6.9     23.902     26.287
REMARK  2 active torsions:
REMARK  status: ('A' for Active; 'I' for Inactive)
REMARK    1  A    between atoms: C_5  and  O_22 
REMARK    2  A    between atoms: C_18  and  O_20 
ROOT
HETATM    1  C   UNK N   1      27.864  23.939  -3.983  0.00  0.00     0.016 C 
HETATM    2  C   UNK N   1      28.444  23.802  -5.386  0.00  0.00    -0.036 C 
HETATM    3  C   UNK N   1      29.902  23.297  -5.269  0.00  0.00     0.012 C 
HETATM    4  C   UNK N   1      30.042  21.799  -5.550  0.00  0.00     0.032 C 
HETATM    5  C   UNK N   1      29.563  21.466  -6.972  0.00  0.00     0.118 C 
HETATM    6  C   UNK N   1      28.307  22.247  -7.392  0.00  0.00     0.037 C 
HETATM    7  C   UNK N   1      27.573  22.780  -6.162  0.00  0.00    -0.004 C 
HETATM    8  C   UNK N   1      26.189  23.331  -6.503  0.00  0.00     0.006 C 
HETATM    9  C   UNK N   1      26.305  24.592  -7.350  0.00  0.00     0.006 C 
HETATM   10  C   UNK N   1      27.103  25.681  -6.632  0.00  0.00    -0.005 C 
HETATM   11  C   UNK N   1      28.479  25.164  -6.138  0.00  0.00    -0.002 C 
HETATM   12  C   UNK N   1      29.273  26.274  -5.400  0.00  0.00     0.007 C 
HETATM   13  C   UNK N   1      28.438  27.026  -4.338  0.00  0.00     0.013 C 
HETATM   14  C   UNK N   1      27.133  27.539  -4.957  0.00  0.00    -0.009 C 
HETATM   15  C   UNK N   1      26.343  26.357  -5.490  0.00  0.00     0.001 C 
HETATM   16  C   UNK N   1      24.966  26.933  -5.797  0.00  0.00     0.009 C 
HETATM   17  C   UNK N   1      24.812  28.106  -4.813  0.00  0.00     0.038 C 
HETATM   18  C   UNK N   1      26.104  28.135  -3.990  0.00  0.00     0.062 C 
HETATM   19  C   UNK N   1      26.441  29.540  -3.512  0.00  0.00     0.046 C 
HETATM   20  C   UNK N   1      27.463  28.545  -6.080  0.00  0.00     0.018 C 
ENDROOT
BRANCH  18  21
HETATM   21  O   UNK N   1      25.938  27.307  -2.873  0.00  0.00    -0.389 OA
HETATM   22  H   UNK N   1      26.000  26.517  -2.315  0.00  0.00     0.210 HD
ENDBRANCH  18  21
BRANCH   5  23
HETATM   23  O   UNK N   1      29.313  20.097  -7.062  0.00  0.00    -0.396 OA
HETATM   24  H   UNK N   1      29.306  19.582  -7.885  0.00  0.00     0.210 HD
ENDBRANCH   5  23
TORSDOF 2
ENDMDL
MODEL 5
REMARK VINA RESULT:      -6.7     25.226     27.031
REMARK  2 active torsions:
REMARK  status: ('A' for Active; 'I' for Inactive)
REMARK    1  A    between atoms: C_5  and  O_22 
REMARK    2  A    between atoms: C_18  and  O_20 
ROOT
HETATM    1  C   UNK N   1      27.249  27.334  -7.480  0.00  0.00     0.016 C 
HETATM    2  C   UNK N   1      27.338  27.410  -5.960  0.00  0.00    -0.036 C 
HETATM    3  C   UNK N   1      28.333  28.532  -5.580  0.00  0.00     0.012 C 
HETATM    4  C   UNK N   1      27.641  29.830  -5.158  0.00  0.00     0.032 C 
HETATM    5  C   UNK N   1      26.742  29.592  -3.933  0.00  0.00     0.118 C 
HETATM    6  C   UNK N   1      25.982  28.257  -3.985  0.00  0.00     0.037 C 
HETATM    7  C   UNK N   1      25.921  27.730  -5.418  0.00  0.00    -0.004 C 
HETATM    8  C   UNK N   1      24.958  26.554  -5.566  0.00  0.00     0.006 C 
HETATM    9  C   UNK N   1      25.483  25.332  -4.823  0.00  0.00     0.006 C 
HETATM   10  C   UNK N   1      26.858  24.907  -5.338  0.00  0.00    -0.005 C 
HETATM   11  C   UNK N   1      27.867  26.085  -5.340  0.00  0.00    -0.002 C 
HETATM   12  C   UNK N   1      29.255  25.644  -5.877  0.00  0.00     0.007 C 
HETATM   13  C   UNK N   1      29.179  24.847  -7.199  0.00  0.00     0.013 C 
HETATM   14  C   UNK N   1      28.198  23.678  -7.056  0.00  0.00    -0.009 C 
HETATM   15  C   UNK N   1      26.826  24.227  -6.707  0.00  0.00     0.001 C 
HETATM   16  C   UNK N   1      25.889  23.039  -6.887  0.00  0.00     0.009 C 
HETATM   17  C   UNK N   1      26.574  22.168  -7.956  0.00  0.00     0.038 C 
HETATM   18  C   UNK N   1      27.860  22.906  -8.336  0.00  0.00     0.062 C 
HETATM   19  C   UNK N   1      28.952  21.948  -8.791  0.00  0.00     0.046 C 
HETATM   20  C   UNK N   1      28.710  22.713  -5.965  0.00  0.00     0.018 C 
ENDROOT
BRANCH  18  21
HETATM   21  O   UNK N   1      27.572  23.790  -9.384  0.00  0.00    -0.389 OA
HETATM   22  H   UNK N   1      27.046  24.322 -10.001  0.00  0.00     0.210 HD
ENDBRANCH  18  21
BRANCH   5  23
HETATM   23  O   UNK N   1      25.832  30.643  -3.822  0.00  0.00    -0.396 OA
HETATM   24  H   UNK N   1      25.329  30.866  -3.023  0.00  0.00     0.210 HD
ENDBRANCH   5  23
TORSDOF 2
ENDMDL
MODEL 6
REMARK VINA RESULT:      -6.7      8.792     12.413
REMARK  2 active torsions:
REMARK  status: ('A' for Active; 'I' for Inactive)
REMARK    1  A    between atoms: C_5  and  O_22 
REMARK    2  A    between atoms: C_18  and  O_20 
ROOT
HETATM    1  C   UNK N   1      31.758  17.521   5.217  0.00  0.00     0.016 C 
HETATM    2  C   UNK N   1      31.562  16.339   6.159  0.00  0.00    -0.036 C 
HETATM    3  C   UNK N   1      32.257  15.100   5.545  0.00  0.00     0.012 C 
HETATM    4  C   UNK N   1      33.618  14.802   6.177  0.00  0.00     0.032 C 
HETATM    5  C   UNK N   1      33.471  14.536   7.684  0.00  0.00     0.118 C 
HETATM    6  C   UNK N   1      32.453  15.461   8.371  0.00  0.00     0.037 C 
HETATM    7  C   UNK N   1      32.204  16.706   7.522  0.00  0.00    -0.004 C 
HETATM    8  C   UNK N   1      31.411  17.775   8.273  0.00  0.00     0.006 C 
HETATM    9  C   UNK N   1      29.986  17.304   8.534  0.00  0.00     0.006 C 
HETATM   10  C   UNK N   1      29.254  16.975   7.232  0.00  0.00    -0.005 C 
HETATM   11  C   UNK N   1      30.058  15.987   6.347  0.00  0.00    -0.002 C 
HETATM   12  C   UNK N   1      29.311  15.672   5.023  0.00  0.00     0.007 C 
HETATM   13  C   UNK N   1      28.795  16.932   4.293  0.00  0.00     0.013 C 
HETATM   14  C   UNK N   1      27.968  17.798   5.251  0.00  0.00    -0.009 C 
HETATM   15  C   UNK N   1      28.842  18.205   6.423  0.00  0.00     0.001 C 
HETATM   16  C   UNK N   1      28.035  19.284   7.136  0.00  0.00     0.009 C 
HETATM   17  C   UNK N   1      27.180  19.921   6.025  0.00  0.00     0.038 C 
HETATM   18  C   UNK N   1      27.548  19.179   4.737  0.00  0.00     0.062 C 
HETATM   19  C   UNK N   1      26.390  19.149   3.749  0.00  0.00     0.046 C 
HETATM   20  C   UNK N   1      26.733  17.000   5.722  0.00  0.00     0.018 C 
ENDROOT
BRANCH  18  21
HETATM   21  O   UNK N   1      28.632  19.835   4.140  0.00  0.00    -0.389 OA
HETATM   22  H   UNK N   1      29.125  20.368   3.497  0.00  0.00     0.210 HD
ENDBRANCH  18  21
BRANCH   5  23
HETATM   23  O   UNK N   1      34.715  14.675   8.298  0.00  0.00    -0.396 OA
HETATM   24  H   UNK N   1      35.496  15.086   7.894  0.00  0.00     0.210 HD
ENDBRANCH   5  23
TORSDOF 2
ENDMDL
MODEL 7
REMARK VINA RESULT:      -6.6      8.056     11.891
REMARK  2 active torsions:
REMARK  status: ('A' for Active; 'I' for Inactive)
REMARK    1  A    between atoms: C_5  and  O_22 
REMARK    2  A    between atoms: C_18  and  O_20 
ROOT
HETATM    1  C   UNK N   1      29.216  15.686   5.769  0.00  0.00     0.016 C 
HETATM    2  C   UNK N   1      29.340  17.197   5.920  0.00  0.00    -0.036 C 
HETATM    3  C   UNK N   1      28.932  17.861   4.583  0.00  0.00     0.012 C 
HETATM    4  C   UNK N   1      27.510  18.426   4.604  0.00  0.00     0.032 C 
HETATM    5  C   UNK N   1      27.366  19.495   5.700  0.00  0.00     0.118 C 
HETATM    6  C   UNK N   1      28.108  19.141   6.999  0.00  0.00     0.037 C 
HETATM    7  C   UNK N   1      28.390  17.640   7.062  0.00  0.00    -0.004 C 
HETATM    8  C   UNK N   1      28.884  17.198   8.439  0.00  0.00     0.006 C 
HETATM    9  C   UNK N   1      30.265  17.771   8.725  0.00  0.00     0.006 C 
HETATM   10  C   UNK N   1      31.286  17.334   7.675  0.00  0.00    -0.005 C 
HETATM   11  C   UNK N   1      30.801  17.634   6.232  0.00  0.00    -0.002 C 
HETATM   12  C   UNK N   1      31.840  17.173   5.175  0.00  0.00     0.007 C 
HETATM   13  C   UNK N   1      32.355  15.734   5.405  0.00  0.00     0.013 C 
HETATM   14  C   UNK N   1      32.860  15.576   6.843  0.00  0.00    -0.009 C 
HETATM   15  C   UNK N   1      31.720  15.873   7.801  0.00  0.00     0.001 C 
HETATM   16  C   UNK N   1      32.234  15.400   9.155  0.00  0.00     0.009 C 
HETATM   17  C   UNK N   1      33.227  14.273   8.817  0.00  0.00     0.038 C 
HETATM   18  C   UNK N   1      33.223  14.156   7.290  0.00  0.00     0.062 C 
HETATM   19  C   UNK N   1      34.558  13.658   6.756  0.00  0.00     0.046 C 
HETATM   20  C   UNK N   1      34.049  16.533   7.074  0.00  0.00     0.018 C 
ENDROOT
BRANCH  18  21
HETATM   21  O   UNK N   1      32.223  13.250   6.916  0.00  0.00    -0.389 OA
HETATM   22  H   UNK N   1      31.362  12.929   6.606  0.00  0.00     0.210 HD
ENDBRANCH  18  21
BRANCH   5  23
HETATM   23  O   UNK N   1      26.013  19.690   5.974  0.00  0.00    -0.396 OA
HETATM   24  H   UNK N   1      25.351  20.001   5.336  0.00  0.00     0.210 HD
ENDBRANCH   5  23
TORSDOF 2
ENDMDL
MODEL 8
REMARK VINA RESULT:      -6.6      1.800      2.494
REMARK  2 active torsions:
REMARK  status: ('A' for Active; 'I' for Inactive)
REMARK    1  A    between atoms: C_5  and  O_22 
REMARK    2  A    between atoms: C_18  and  O_20 
ROOT
HETATM    1  C   UNK N   1      34.225  11.721  15.394  0.00  0.00     0.016 C 
HETATM    2  C   UNK N   1      35.346  11.773  16.425  0.00  0.00    -0.036 C 
HETATM    3  C   UNK N   1      35.649  13.255  16.749  0.00  0.00     0.012 C 
HETATM    4  C   UNK N   1      35.024  13.720  18.067  0.00  0.00     0.032 C 
HETATM    5  C   UNK N   1      35.553  12.884  19.243  0.00  0.00     0.118 C 
HETATM    6  C   UNK N   1      35.707  11.391  18.911  0.00  0.00     0.037 C 
HETATM    7  C   UNK N   1      34.861  11.024  17.693  0.00  0.00    -0.004 C 
HETATM    8  C   UNK N   1      34.769   9.514  17.481  0.00  0.00     0.006 C 
HETATM    9  C   UNK N   1      36.124   8.942  17.085  0.00  0.00     0.006 C 
HETATM   10  C   UNK N   1      36.654   9.585  15.803  0.00  0.00    -0.005 C 
HETATM   11  C   UNK N   1      36.660  11.134  15.889  0.00  0.00    -0.002 C 
HETATM   12  C   UNK N   1      37.187  11.774  14.578  0.00  0.00     0.007 C 
HETATM   13  C   UNK N   1      36.534  11.193  13.303  0.00  0.00     0.013 C 
HETATM   14  C   UNK N   1      36.641   9.665  13.303  0.00  0.00    -0.009 C 
HETATM   15  C   UNK N   1      35.938   9.122  14.534  0.00  0.00     0.001 C 
HETATM   16  C   UNK N   1      35.841   7.622  14.281  0.00  0.00     0.009 C 
HETATM   17  C   UNK N   1      35.802   7.493  12.748  0.00  0.00     0.038 C 
HETATM   18  C   UNK N   1      35.871   8.923  12.205  0.00  0.00     0.062 C 
HETATM   19  C   UNK N   1      36.532   8.979  10.835  0.00  0.00     0.046 C 
HETATM   20  C   UNK N   1      38.131   9.258  13.283  0.00  0.00     0.018 C 
ENDROOT
BRANCH  18  21
HETATM   21  O   UNK N   1      34.566   9.421  12.096  0.00  0.00    -0.389 OA
HETATM   22  H   UNK N   1      33.658   9.644  12.352  0.00  0.00     0.210 HD
ENDBRANCH  18  21
BRANCH   5  23
HETATM   23  O   UNK N   1      34.696  13.033  20.333  0.00  0.00    -0.396 OA
HETATM   24  H   UNK N   1      34.466  13.877  20.755  0.00  0.00     0.210 HD
ENDBRANCH   5  23
TORSDOF 2
ENDMDL
MODEL 9
REMARK VINA RESULT:      -6.5      1.708      3.293
REMARK  2 active torsions:
REMARK  status: ('A' for Active; 'I' for Inactive)
REMARK    1  A    between atoms: C_5  and  O_22 
REMARK    2  A    between atoms: C_18  and  O_20 
ROOT
HETATM    1  C   UNK N   1      37.016  10.575  15.334  0.00  0.00     0.016 C 
HETATM    2  C   UNK N   1      35.793  11.393  15.729  0.00  0.00    -0.036 C 
HETATM    3  C   UNK N   1      35.080  10.681  16.902  0.00  0.00     0.012 C 
HETATM    4  C   UNK N   1      35.385  11.313  18.262  0.00  0.00     0.032 C 
HETATM    5  C   UNK N   1      34.938  12.784  18.289  0.00  0.00     0.118 C 
HETATM    6  C   UNK N   1      35.217  13.532  16.976  0.00  0.00     0.037 C 
HETATM    7  C   UNK N   1      36.282  12.800  16.160  0.00  0.00    -0.004 C 
HETATM    8  C   UNK N   1      36.786  13.632  14.981  0.00  0.00     0.006 C 
HETATM    9  C   UNK N   1      35.688  13.812  13.941  0.00  0.00     0.006 C 
HETATM   10  C   UNK N   1      35.185  12.468  13.414  0.00  0.00    -0.005 C 
HETATM   11  C   UNK N   1      34.770  11.511  14.562  0.00  0.00    -0.002 C 
HETATM   12  C   UNK N   1      34.274  10.147  14.014  0.00  0.00     0.007 C 
HETATM   13  C   UNK N   1      35.217   9.529  12.957  0.00  0.00     0.013 C 
HETATM   14  C   UNK N   1      35.507  10.545  11.847  0.00  0.00    -0.009 C 
HETATM   15  C   UNK N   1      36.157  11.772  12.461  0.00  0.00     0.001 C 
HETATM   16  C   UNK N   1      36.668  12.565  11.264  0.00  0.00     0.009 C 
HETATM   17  C   UNK N   1      36.941  11.500  10.186  0.00  0.00     0.038 C 
HETATM   18  C   UNK N   1      36.580  10.156  10.824  0.00  0.00     0.062 C 
HETATM   19  C   UNK N   1      36.113   9.143   9.788  0.00  0.00     0.046 C 
HETATM   20  C   UNK N   1      34.188  10.908  11.131  0.00  0.00     0.018 C 
ENDROOT
BRANCH  18  21
HETATM   21  O   UNK N   1      37.716   9.650  11.469  0.00  0.00    -0.389 OA
HETATM   22  H   UNK N   1      38.456   9.055  11.664  0.00  0.00     0.210 HD
ENDBRANCH  18  21
BRANCH   5  23
HETATM   23  O   UNK N   1      35.576  13.437  19.343  0.00  0.00    -0.396 OA
HETATM   24  H   UNK N   1      35.479  14.378  19.560  0.00  0.00     0.210 HD
ENDBRANCH   5  23
TORSDOF 2
ENDMDL
