MODEL 1
REMARK VINA RESULT:      -5.6      0.000      0.000
REMARK  2 active torsions:
REMARK  status: ('A' for Active; 'I' for Inactive)
REMARK    1  A    between atoms: N_2  and  C_3 
REMARK    2  A    between atoms: C_3  and  C_11 
ROOT
HETATM    1  C   UNK N   1      32.016  16.438   7.516  0.00  0.00     0.193 C 
HETATM    2  C   UNK N   1      31.691  15.149   6.730  0.00  0.00     0.047 C 
HETATM    3  C   UNK N   1      32.588  17.491   6.529  0.00  0.00     0.047 C 
HETATM    4  C   UNK N   1      32.895  14.628   5.947  0.00  0.00     0.003 C 
HETATM    5  C   UNK N   1      33.767  16.955   5.711  0.00  0.00     0.003 C 
HETATM    6  C   UNK N   1      33.367  15.689   4.962  0.00  0.00     0.000 C 
ENDROOT
BRANCH   1   7
HETATM    7  N   UNK N   1      30.765  16.932   8.143  0.00  0.00     0.103 N 
HETATM    8  C   UNK N   1      29.640  17.011   7.202  0.00  0.00     0.274 C 
HETATM    9  C   UNK N   1      28.347  17.262   7.977  0.00  0.00     0.030 C 
HETATM   10  C   UNK N   1      28.464  18.545   8.800  0.00  0.00     0.003 C 
HETATM   11  C   UNK N   1      29.721  18.524   9.666  0.00  0.00     0.030 C 
HETATM   12  C   UNK N   1      30.932  18.242   8.785  0.00  0.00     0.274 C 
ENDBRANCH   1   7
BRANCH   1  13
HETATM   13  C   UNK N   1      32.998  16.095   8.625  0.00  0.00     0.021 A 
HETATM   14  S   UNK N   1      34.357  16.930   9.081  0.00  0.00    -0.104 SA
HETATM   15  C   UNK N   1      34.843  16.015  10.374  0.00  0.00     0.050 A 
HETATM   16  C   UNK N   1      33.902  14.982  10.490  0.00  0.00     0.008 A 
HETATM   17  C   UNK N   1      32.867  15.026   9.514  0.00  0.00     0.018 A 
ENDBRANCH   1  13
TORSDOF 2
ENDMDL
MODEL 2
REMARK VINA RESULT:      -5.5      3.343      6.167
REMARK  2 active torsions:
REMARK  status: ('A' for Active; 'I' for Inactive)
REMARK    1  A    between atoms: N_2  and  C_3 
REMARK    2  A    between atoms: C_3  and  C_11 
ROOT
HETATM    1  C   UNK N   1      29.136  17.238   5.106  0.00  0.00     0.193 C 
HETATM    2  C   UNK N   1      28.810  16.915   3.632  0.00  0.00     0.047 C 
HETATM    3  C   UNK N   1      28.706  16.034   5.986  0.00  0.00     0.047 C 
HETATM    4  C   UNK N   1      27.344  16.535   3.431  0.00  0.00     0.003 C 
HETATM    5  C   UNK N   1      27.249  15.623   5.752  0.00  0.00     0.003 C 
HETATM    6  C   UNK N   1      27.008  15.316   4.278  0.00  0.00     0.000 C 
ENDROOT
BRANCH   1   7
HETATM    7  N   UNK N   1      30.596  17.477   5.222  0.00  0.00     0.103 N 
HETATM    8  C   UNK N   1      31.344  17.072   4.025  0.00  0.00     0.274 C 
HETATM    9  C   UNK N   1      32.776  17.596   4.119  0.00  0.00     0.030 C 
HETATM   10  C   UNK N   1      33.448  17.072   5.388  0.00  0.00     0.003 C 
HETATM   11  C   UNK N   1      32.592  17.362   6.617  0.00  0.00     0.030 C 
HETATM   12  C   UNK N   1      31.187  16.813   6.391  0.00  0.00     0.274 C 
ENDBRANCH   1   7
BRANCH   1  13
HETATM   13  C   UNK N   1      28.416  18.520   5.493  0.00  0.00     0.021 A 
HETATM   14  S   UNK N   1      27.970  19.025   7.009  0.00  0.00    -0.104 SA
HETATM   15  C   UNK N   1      27.327  20.508   6.647  0.00  0.00     0.050 A 
HETATM   16  C   UNK N   1      27.455  20.655   5.258  0.00  0.00     0.008 A 
HETATM   17  C   UNK N   1      28.066  19.544   4.610  0.00  0.00     0.018 A 
ENDBRANCH   1  13
TORSDOF 2
ENDMDL
MODEL 3
REMARK VINA RESULT:      -5.4      1.521      3.770
REMARK  2 active torsions:
REMARK  status: ('A' for Active; 'I' for Inactive)
REMARK    1  A    between atoms: N_2  and  C_3 
REMARK    2  A    between atoms: C_3  and  C_11 
ROOT
HETATM    1  C   UNK N   1      32.285  17.082   7.601  0.00  0.00     0.193 C 
HETATM    2  C   UNK N   1      33.132  18.294   8.047  0.00  0.00     0.047 C 
HETATM    3  C   UNK N   1      32.489  15.931   8.622  0.00  0.00     0.047 C 
HETATM    4  C   UNK N   1      34.604  17.934   8.241  0.00  0.00     0.003 C 
HETATM    5  C   UNK N   1      33.967  15.599   8.850  0.00  0.00     0.003 C 
HETATM    6  C   UNK N   1      34.733  16.841   9.293  0.00  0.00     0.000 C 
ENDROOT
BRANCH   1   7
HETATM    7  N   UNK N   1      30.861  17.496   7.556  0.00  0.00     0.103 N 
HETATM    8  C   UNK N   1      30.344  17.929   8.861  0.00  0.00     0.274 C 
HETATM    9  C   UNK N   1      28.978  18.586   8.674  0.00  0.00     0.030 C 
HETATM   10  C   UNK N   1      28.012  17.614   7.996  0.00  0.00     0.003 C 
HETATM   11  C   UNK N   1      28.617  17.048   6.715  0.00  0.00     0.030 C 
HETATM   12  C   UNK N   1      29.982  16.445   7.029  0.00  0.00     0.274 C 
ENDBRANCH   1   7
BRANCH   1  13
HETATM   13  C   UNK N   1      32.707  16.687   6.195  0.00  0.00     0.021 A 
HETATM   14  S   UNK N   1      33.077  15.172   5.627  0.00  0.00    -0.104 SA
HETATM   15  C   UNK N   1      33.353  15.518   4.030  0.00  0.00     0.050 A 
HETATM   16  C   UNK N   1      33.148  16.899   3.893  0.00  0.00     0.008 A 
HETATM   17  C   UNK N   1      32.784  17.555   5.104  0.00  0.00     0.018 A 
ENDBRANCH   1  13
TORSDOF 2
ENDMDL
MODEL 4
REMARK VINA RESULT:      -5.4      3.238      4.630
REMARK  2 active torsions:
REMARK  status: ('A' for Active; 'I' for Inactive)
REMARK    1  A    between atoms: N_2  and  C_3 
REMARK    2  A    between atoms: C_3  and  C_11 
ROOT
HETATM    1  C   UNK N   1      29.345  17.143   4.757  0.00  0.00     0.193 C 
HETATM    2  C   UNK N   1      28.792  16.030   5.675  0.00  0.00     0.047 C 
HETATM    3  C   UNK N   1      29.027  16.775   3.283  0.00  0.00     0.047 C 
HETATM    4  C   UNK N   1      29.314  14.647   5.289  0.00  0.00     0.003 C 
HETATM    5  C   UNK N   1      29.510  15.370   2.909  0.00  0.00     0.003 C 
HETATM    6  C   UNK N   1      28.918  14.330   3.853  0.00  0.00     0.000 C 
ENDROOT
BRANCH   1   7
HETATM    7  N   UNK N   1      28.695  18.424   5.129  0.00  0.00     0.103 N 
HETATM    8  C   UNK N   1      28.121  18.408   6.481  0.00  0.00     0.274 C 
HETATM    9  C   UNK N   1      27.721  19.828   6.880  0.00  0.00     0.030 C 
HETATM   10  C   UNK N   1      26.728  20.401   5.868  0.00  0.00     0.003 C 
HETATM   11  C   UNK N   1      27.266  20.276   4.446  0.00  0.00     0.030 C 
HETATM   12  C   UNK N   1      27.649  18.825   4.180  0.00  0.00     0.274 C 
ENDBRANCH   1   7
BRANCH   1  13
HETATM   13  C   UNK N   1      30.839  17.280   5.007  0.00  0.00     0.021 A 
HETATM   14  S   UNK N   1      31.667  17.015   6.420  0.00  0.00    -0.104 SA
HETATM   15  C   UNK N   1      33.219  17.279   5.903  0.00  0.00     0.050 A 
HETATM   16  C   UNK N   1      33.124  17.594   4.541  0.00  0.00     0.008 A 
HETATM   17  C   UNK N   1      31.792  17.593   4.036  0.00  0.00     0.018 A 
ENDBRANCH   1  13
TORSDOF 2
ENDMDL
MODEL 5
REMARK VINA RESULT:      -5.3     15.416     16.997
REMARK  2 active torsions:
REMARK  status: ('A' for Active; 'I' for Inactive)
REMARK    1  A    between atoms: N_2  and  C_3 
REMARK    2  A    between atoms: C_3  and  C_11 
ROOT
HETATM    1  C   UNK N   1      27.322  26.312  -4.754  0.00  0.00     0.193 C 
HETATM    2  C   UNK N   1      28.004  26.322  -6.140  0.00  0.00     0.047 C 
HETATM    3  C   UNK N   1      25.869  25.791  -4.920  0.00  0.00     0.047 C 
HETATM    4  C   UNK N   1      27.209  27.117  -7.173  0.00  0.00     0.003 C 
HETATM    5  C   UNK N   1      25.085  26.559  -5.988  0.00  0.00     0.003 C 
HETATM    6  C   UNK N   1      25.817  26.517  -7.324  0.00  0.00     0.000 C 
ENDROOT
BRANCH   1   7
HETATM    7  N   UNK N   1      28.099  25.423  -3.855  0.00  0.00     0.103 N 
HETATM    8  C   UNK N   1      29.400  25.032  -4.414  0.00  0.00     0.274 C 
HETATM    9  C   UNK N   1      30.235  24.354  -3.329  0.00  0.00     0.030 C 
HETATM   10  C   UNK N   1      29.491  23.142  -2.769  0.00  0.00     0.003 C 
HETATM   11  C   UNK N   1      28.081  23.523  -2.329  0.00  0.00     0.030 C 
HETATM   12  C   UNK N   1      27.362  24.208  -3.486  0.00  0.00     0.274 C 
ENDBRANCH   1   7
BRANCH   1  13
HETATM   13  C   UNK N   1      27.367  27.720  -4.182  0.00  0.00     0.021 A 
HETATM   14  S   UNK N   1      28.675  28.735  -4.066  0.00  0.00    -0.104 SA
HETATM   15  C   UNK N   1      27.946  30.081  -3.431  0.00  0.00     0.050 A 
HETATM   16  C   UNK N   1      26.589  29.754  -3.291  0.00  0.00     0.008 A 
HETATM   17  C   UNK N   1      26.262  28.434  -3.713  0.00  0.00     0.018 A 
ENDBRANCH   1  13
TORSDOF 2
ENDMDL
MODEL 6
REMARK VINA RESULT:      -5.3     15.142     16.805
REMARK  2 active torsions:
REMARK  status: ('A' for Active; 'I' for Inactive)
REMARK    1  A    between atoms: N_2  and  C_3 
REMARK    2  A    between atoms: C_3  and  C_11 
ROOT
HETATM    1  C   UNK N   1      27.191  24.626  -5.482  0.00  0.00     0.193 C 
HETATM    2  C   UNK N   1      25.970  25.191  -4.725  0.00  0.00     0.047 C 
HETATM    3  C   UNK N   1      28.010  25.812  -6.059  0.00  0.00     0.047 C 
HETATM    4  C   UNK N   1      25.125  26.119  -5.595  0.00  0.00     0.003 C 
HETATM    5  C   UNK N   1      27.154  26.769  -6.895  0.00  0.00     0.003 C 
HETATM    6  C   UNK N   1      25.976  27.286  -6.078  0.00  0.00     0.000 C 
ENDROOT
BRANCH   1   7
HETATM    7  N   UNK N   1      28.011  23.837  -4.529  0.00  0.00     0.103 N 
HETATM    8  C   UNK N   1      27.728  24.157  -3.124  0.00  0.00     0.274 C 
HETATM    9  C   UNK N   1      28.404  23.125  -2.222  0.00  0.00     0.030 C 
HETATM   10  C   UNK N   1      29.910  23.099  -2.486  0.00  0.00     0.003 C 
HETATM   11  C   UNK N   1      30.200  22.919  -3.974  0.00  0.00     0.030 C 
HETATM   12  C   UNK N   1      29.453  23.988  -4.763  0.00  0.00     0.274 C 
ENDBRANCH   1   7
BRANCH   1  13
HETATM   13  C   UNK N   1      26.696  23.686  -6.569  0.00  0.00     0.021 A 
HETATM   14  S   UNK N   1      27.309  23.475  -8.097  0.00  0.00    -0.104 SA
HETATM   15  C   UNK N   1      26.322  22.261  -8.643  0.00  0.00     0.050 A 
HETATM   16  C   UNK N   1      25.445  21.972  -7.588  0.00  0.00     0.008 A 
HETATM   17  C   UNK N   1      25.654  22.767  -6.425  0.00  0.00     0.018 A 
ENDBRANCH   1  13
TORSDOF 2
ENDMDL
MODEL 7
REMARK VINA RESULT:      -5.3     15.152     16.343
REMARK  2 active torsions:
REMARK  status: ('A' for Active; 'I' for Inactive)
REMARK    1  A    between atoms: N_2  and  C_3 
REMARK    2  A    between atoms: C_3  and  C_11 
ROOT
HETATM    1  C   UNK N   1      27.272  25.185  -5.201  0.00  0.00     0.193 C 
HETATM    2  C   UNK N   1      25.831  24.646  -5.330  0.00  0.00     0.047 C 
HETATM    3  C   UNK N   1      27.956  25.112  -6.593  0.00  0.00     0.047 C 
HETATM    4  C   UNK N   1      25.787  23.243  -5.932  0.00  0.00     0.003 C 
HETATM    5  C   UNK N   1      27.873  23.716  -7.218  0.00  0.00     0.003 C 
HETATM    6  C   UNK N   1      26.422  23.258  -7.316  0.00  0.00     0.000 C 
ENDROOT
BRANCH   1   7
HETATM    7  N   UNK N   1      27.208  26.589  -4.723  0.00  0.00     0.103 N 
HETATM    8  C   UNK N   1      25.837  27.047  -4.463  0.00  0.00     0.274 C 
HETATM    9  C   UNK N   1      25.879  28.384  -3.726  0.00  0.00     0.030 C 
HETATM   10  C   UNK N   1      26.656  29.415  -4.546  0.00  0.00     0.003 C 
HETATM   11  C   UNK N   1      28.026  28.874  -4.944  0.00  0.00     0.030 C 
HETATM   12  C   UNK N   1      27.851  27.532  -5.645  0.00  0.00     0.274 C 
ENDBRANCH   1   7
BRANCH   1  13
HETATM   13  C   UNK N   1      28.007  24.362  -4.155  0.00  0.00     0.021 A 
HETATM   14  S   UNK N   1      29.597  23.890  -4.158  0.00  0.00    -0.104 SA
HETATM   15  C   UNK N   1      29.676  23.120  -2.692  0.00  0.00     0.050 A 
HETATM   16  C   UNK N   1      28.394  23.222  -2.133  0.00  0.00     0.008 A 
HETATM   17  C   UNK N   1      27.458  23.919  -2.949  0.00  0.00     0.018 A 
ENDBRANCH   1  13
TORSDOF 2
ENDMDL
MODEL 8
REMARK VINA RESULT:      -5.2     14.960     16.401
REMARK  2 active torsions:
REMARK  status: ('A' for Active; 'I' for Inactive)
REMARK    1  A    between atoms: N_2  and  C_3 
REMARK    2  A    between atoms: C_3  and  C_11 
ROOT
HETATM    1  C   UNK N   1      27.712  25.000  -4.375  0.00  0.00     0.193 C 
HETATM    2  C   UNK N   1      29.248  25.124  -4.465  0.00  0.00     0.047 C 
HETATM    3  C   UNK N   1      27.337  24.483  -2.959  0.00  0.00     0.047 C 
HETATM    4  C   UNK N   1      29.958  23.819  -4.109  0.00  0.00     0.003 C 
HETATM    5  C   UNK N   1      28.083  23.199  -2.583  0.00  0.00     0.003 C 
HETATM    6  C   UNK N   1      29.590  23.403  -2.691  0.00  0.00     0.000 C 
ENDROOT
BRANCH   1   7
HETATM    7  N   UNK N   1      27.118  26.338  -4.618  0.00  0.00     0.103 N 
HETATM    8  C   UNK N   1      28.104  27.337  -5.049  0.00  0.00     0.274 C 
HETATM    9  C   UNK N   1      27.379  28.591  -5.534  0.00  0.00     0.030 C 
HETATM   10  C   UNK N   1      26.484  29.146  -4.426  0.00  0.00     0.003 C 
HETATM   11  C   UNK N   1      25.563  28.061  -3.874  0.00  0.00     0.030 C 
HETATM   12  C   UNK N   1      26.401  26.860  -3.449  0.00  0.00     0.274 C 
ENDBRANCH   1   7
BRANCH   1  13
HETATM   13  C   UNK N   1      27.235  24.063  -5.474  0.00  0.00     0.021 A 
HETATM   14  S   UNK N   1      28.131  23.372  -6.687  0.00  0.00    -0.104 SA
HETATM   15  C   UNK N   1      26.969  22.442  -7.416  0.00  0.00     0.050 A 
HETATM   16  C   UNK N   1      25.791  22.657  -6.687  0.00  0.00     0.008 A 
HETATM   17  C   UNK N   1      25.937  23.563  -5.598  0.00  0.00     0.018 A 
ENDBRANCH   1  13
TORSDOF 2
ENDMDL
MODEL 9
REMARK VINA RESULT:      -5.2     15.912     17.633
REMARK  2 active torsions:
REMARK  status: ('A' for Active; 'I' for Inactive)
REMARK    1  A    between atoms: N_2  and  C_3 
REMARK    2  A    between atoms: C_3  and  C_11 
ROOT
HETATM    1  C   UNK N   1      27.716  26.875  -4.885  0.00  0.00     0.193 C 
HETATM    2  C   UNK N   1      26.555  26.777  -3.871  0.00  0.00     0.047 C 
HETATM    3  C   UNK N   1      28.362  28.282  -4.765  0.00  0.00     0.047 C 
HETATM    4  C   UNK N   1      25.540  27.906  -4.040  0.00  0.00     0.003 C 
HETATM    5  C   UNK N   1      27.338  29.414  -4.889  0.00  0.00     0.003 C 
HETATM    6  C   UNK N   1      26.230  29.251  -3.854  0.00  0.00     0.000 C 
ENDROOT
BRANCH   1   7
HETATM    7  N   UNK N   1      28.705  25.815  -4.568  0.00  0.00     0.103 N 
HETATM    8  C   UNK N   1      28.141  24.719  -3.771  0.00  0.00     0.274 C 
HETATM    9  C   UNK N   1      29.136  23.560  -3.725  0.00  0.00     0.030 C 
HETATM   10  C   UNK N   1      30.469  24.031  -3.144  0.00  0.00     0.003 C 
HETATM   11  C   UNK N   1      30.978  25.267  -3.880  0.00  0.00     0.030 C 
HETATM   12  C   UNK N   1      29.891  26.336  -3.877  0.00  0.00     0.274 C 
ENDBRANCH   1   7
BRANCH   1  13
HETATM   13  C   UNK N   1      27.168  26.610  -6.278  0.00  0.00     0.021 A 
HETATM   14  S   UNK N   1      27.803  27.088  -7.734  0.00  0.00    -0.104 SA
HETATM   15  C   UNK N   1      26.726  26.374  -8.772  0.00  0.00     0.050 A 
HETATM   16  C   UNK N   1      25.796  25.706  -7.962  0.00  0.00     0.008 A 
HETATM   17  C   UNK N   1      26.042  25.835  -6.565  0.00  0.00     0.018 A 
ENDBRANCH   1  13
TORSDOF 2
ENDMDL
