MODEL 1
REMARK VINA RESULT:      -7.1      0.000      0.000
REMARK  2 active torsions:
REMARK  status: ('A' for Active; 'I' for Inactive)
REMARK    1  A    between atoms: C_3  and  C_2 
REMARK    2  A    between atoms: C_11  and  O_12 
ROOT
HETATM    1  C   UNK N   1      31.143  22.820  -4.140  0.00  0.00    -0.011 C 
HETATM    2  C   UNK N   1      30.577  23.900  -3.199  0.00  0.00     0.013 C 
HETATM    3  C   UNK N   1      29.065  23.819  -3.043  0.00  0.00     0.006 C 
HETATM    4  C   UNK N   1      28.433  23.956  -4.420  0.00  0.00    -0.002 C 
HETATM    5  C   UNK N   1      28.815  22.708  -5.245  0.00  0.00    -0.005 C 
HETATM    6  C   UNK N   1      30.343  22.679  -5.444  0.00  0.00     0.001 C 
HETATM    7  C   UNK N   1      30.756  21.301  -5.976  0.00  0.00     0.008 C 
HETATM    8  C   UNK N   1      31.265  20.501  -4.774  0.00  0.00     0.033 C 
HETATM    9  C   UNK N   1      31.046  21.405  -3.575  0.00  0.00     0.127 C 
HETATM   10  C   UNK N   1      28.133  22.711  -6.628  0.00  0.00     0.010 C 
HETATM   11  C   UNK N   1      26.616  22.890  -6.538  0.00  0.00     0.035 C 
HETATM   12  C   UNK N   1      26.358  24.110  -5.725  0.00  0.00    -0.072 C 
HETATM   13  C   UNK N   1      25.764  25.178  -6.280  0.00  0.00     0.053 C 
HETATM   14  C   UNK N   1      25.684  26.448  -5.537  0.00  0.00     0.149 C 
HETATM   15  O   UNK N   1      24.973  27.355  -5.938  0.00  0.00    -0.293 OA
HETATM   16  C   UNK N   1      26.538  26.635  -4.324  0.00  0.00     0.084 C 
HETATM   17  C   UNK N   1      26.488  25.358  -3.498  0.00  0.00     0.017 C 
HETATM   18  C   UNK N   1      26.914  24.121  -4.317  0.00  0.00     0.019 C 
ENDROOT
BRANCH   1  19
HETATM   19  C   UNK N   1      32.584  23.211  -4.532  0.00  0.00     0.008 C 
HETATM   20  C   UNK N   1      32.706  24.591  -5.165  0.00  0.00     0.006 C 
ENDBRANCH   1  19
BRANCH   9  21
HETATM   21  O   UNK N   1      31.971  21.150  -2.560  0.00  0.00    -0.395 OA
HETATM   22  H   UNK N   1      32.660  21.783  -2.301  0.00  0.00     0.210 HD
ENDBRANCH   9  21
TORSDOF 2
ENDMDL
MODEL 2
REMARK VINA RESULT:      -6.9     11.745     13.500
REMARK  2 active torsions:
REMARK  status: ('A' for Active; 'I' for Inactive)
REMARK    1  A    between atoms: C_3  and  C_2 
REMARK    2  A    between atoms: C_11  and  O_12 
ROOT
HETATM    1  C   UNK N   1      32.381  16.824   7.946  0.00  0.00    -0.011 C 
HETATM    2  C   UNK N   1      31.776  18.120   8.518  0.00  0.00     0.013 C 
HETATM    3  C   UNK N   1      30.260  18.066   8.640  0.00  0.00     0.006 C 
HETATM    4  C   UNK N   1      29.678  17.793   7.262  0.00  0.00    -0.002 C 
HETATM    5  C   UNK N   1      30.095  16.367   6.842  0.00  0.00    -0.005 C 
HETATM    6  C   UNK N   1      31.630  16.304   6.711  0.00  0.00     0.001 C 
HETATM    7  C   UNK N   1      32.067  14.837   6.611  0.00  0.00     0.008 C 
HETATM    8  C   UNK N   1      32.535  14.422   8.009  0.00  0.00     0.033 C 
HETATM    9  C   UNK N   1      32.270  15.629   8.890  0.00  0.00     0.127 C 
HETATM   10  C   UNK N   1      29.463  15.963   5.494  0.00  0.00     0.010 C 
HETATM   11  C   UNK N   1      27.944  16.139   5.478  0.00  0.00     0.035 C 
HETATM   12  C   UNK N   1      27.651  17.537   5.898  0.00  0.00    -0.072 C 
HETATM   13  C   UNK N   1      27.073  18.393   5.041  0.00  0.00     0.053 C 
HETATM   14  C   UNK N   1      26.961  19.821   5.384  0.00  0.00     0.149 C 
HETATM   15  O   UNK N   1      26.262  20.565   4.717  0.00  0.00    -0.293 OA
HETATM   16  C   UNK N   1      27.771  20.360   6.521  0.00  0.00     0.084 C 
HETATM   17  C   UNK N   1      27.696  19.372   7.677  0.00  0.00     0.017 C 
HETATM   18  C   UNK N   1      28.156  17.959   7.262  0.00  0.00     0.019 C 
ENDROOT
BRANCH   1  19
HETATM   19  C   UNK N   1      33.834  17.106   7.507  0.00  0.00     0.008 C 
HETATM   20  C   UNK N   1      34.436  18.365   8.119  0.00  0.00     0.006 C 
ENDBRANCH   1  19
BRANCH   9  21
HETATM   21  O   UNK N   1      33.158  15.689   9.966  0.00  0.00    -0.395 OA
HETATM   22  H   UNK N   1      33.147  16.405  10.621  0.00  0.00     0.210 HD
ENDBRANCH   9  21
TORSDOF 2
ENDMDL
MODEL 3
REMARK VINA RESULT:      -6.9     25.855     28.579
REMARK  2 active torsions:
REMARK  status: ('A' for Active; 'I' for Inactive)
REMARK    1  A    between atoms: C_3  and  C_2 
REMARK    2  A    between atoms: C_11  and  O_12 
ROOT
HETATM    1  C   UNK N   1      33.094   8.171  20.777  0.00  0.00    -0.011 C 
HETATM    2  C   UNK N   1      33.295   7.702  19.324  0.00  0.00     0.013 C 
HETATM    3  C   UNK N   1      34.529   8.307  18.670  0.00  0.00     0.006 C 
HETATM    4  C   UNK N   1      34.398   9.822  18.707  0.00  0.00    -0.002 C 
HETATM    5  C   UNK N   1      34.470  10.270  20.183  0.00  0.00    -0.005 C 
HETATM    6  C   UNK N   1      33.266   9.687  20.950  0.00  0.00     0.001 C 
HETATM    7  C   UNK N   1      33.498   9.858  22.457  0.00  0.00     0.008 C 
HETATM    8  C   UNK N   1      34.013   8.512  22.976  0.00  0.00     0.033 C 
HETATM    9  C   UNK N   1      34.149   7.638  21.743  0.00  0.00     0.127 C 
HETATM   10  C   UNK N   1      34.447  11.807  20.313  0.00  0.00     0.010 C 
HETATM   11  C   UNK N   1      35.518  12.487  19.459  0.00  0.00     0.035 C 
HETATM   12  C   UNK N   1      35.364  11.987  18.065  0.00  0.00    -0.072 C 
HETATM   13  C   UNK N   1      35.017  12.829  17.080  0.00  0.00     0.053 C 
HETATM   14  C   UNK N   1      34.676  12.306  15.746  0.00  0.00     0.149 C 
HETATM   15  O   UNK N   1      34.563  13.062  14.795  0.00  0.00    -0.293 OA
HETATM   16  C   UNK N   1      34.403  10.844  15.588  0.00  0.00     0.084 C 
HETATM   17  C   UNK N   1      35.449  10.070  16.377  0.00  0.00     0.017 C 
HETATM   18  C   UNK N   1      35.484  10.492  17.861  0.00  0.00     0.019 C 
ENDROOT
BRANCH   1  19
HETATM   19  C   UNK N   1      31.653   7.826  21.214  0.00  0.00     0.008 C 
HETATM   20  C   UNK N   1      30.643   7.812  20.074  0.00  0.00     0.006 C 
ENDBRANCH   1  19
BRANCH   9  21
HETATM   21  O   UNK N   1      33.986   6.285  22.049  0.00  0.00    -0.395 OA
HETATM   22  H   UNK N   1      33.510   5.666  21.472  0.00  0.00     0.210 HD
ENDBRANCH   9  21
TORSDOF 2
ENDMDL
MODEL 4
REMARK VINA RESULT:      -6.8      2.185      5.876
REMARK  2 active torsions:
REMARK  status: ('A' for Active; 'I' for Inactive)
REMARK    1  A    between atoms: C_3  and  C_2 
REMARK    2  A    between atoms: C_11  and  O_12 
ROOT
HETATM    1  C   UNK N   1      26.087  22.546  -7.984  0.00  0.00    -0.011 C 
HETATM    2  C   UNK N   1      25.940  23.645  -6.915  0.00  0.00     0.013 C 
HETATM    3  C   UNK N   1      27.271  24.262  -6.509  0.00  0.00     0.006 C 
HETATM    4  C   UNK N   1      28.173  23.154  -5.987  0.00  0.00    -0.002 C 
HETATM    5  C   UNK N   1      28.511  22.218  -7.168  0.00  0.00    -0.005 C 
HETATM    6  C   UNK N   1      27.216  21.553  -7.675  0.00  0.00     0.001 C 
HETATM    7  C   UNK N   1      27.490  20.883  -9.028  0.00  0.00     0.008 C 
HETATM    8  C   UNK N   1      26.984  21.846 -10.106  0.00  0.00     0.033 C 
HETATM    9  C   UNK N   1      26.518  23.076  -9.349  0.00  0.00     0.127 C 
HETATM   10  C   UNK N   1      29.507  21.116  -6.753  0.00  0.00     0.010 C 
HETATM   11  C   UNK N   1      30.768  21.678  -6.095  0.00  0.00     0.035 C 
HETATM   12  C   UNK N   1      30.333  22.563  -4.979  0.00  0.00    -0.072 C 
HETATM   13  C   UNK N   1      30.637  22.249  -3.710  0.00  0.00     0.053 C 
HETATM   14  C   UNK N   1      30.047  23.012  -2.598  0.00  0.00     0.149 C 
HETATM   15  O   UNK N   1      30.468  22.877  -1.461  0.00  0.00    -0.293 OA
HETATM   16  C   UNK N   1      28.877  23.904  -2.870  0.00  0.00     0.084 C 
HETATM   17  C   UNK N   1      29.145  24.671  -4.157  0.00  0.00     0.017 C 
HETATM   18  C   UNK N   1      29.438  23.728  -5.343  0.00  0.00     0.019 C 
ENDROOT
BRANCH   1  19
HETATM   19  C   UNK N   1      24.774  21.736  -8.045  0.00  0.00     0.008 C 
HETATM   20  C   UNK N   1      24.377  21.091  -6.723  0.00  0.00     0.006 C 
ENDBRANCH   1  19
BRANCH   9  21
HETATM   21  O   UNK N   1      25.500  23.747 -10.031  0.00  0.00    -0.395 OA
HETATM   22  H   UNK N   1      25.642  24.205 -10.875  0.00  0.00     0.210 HD
ENDBRANCH   9  21
TORSDOF 2
ENDMDL
MODEL 5
REMARK VINA RESULT:      -6.6      3.224      5.180
REMARK  2 active torsions:
REMARK  status: ('A' for Active; 'I' for Inactive)
REMARK    1  A    between atoms: C_3  and  C_2 
REMARK    2  A    between atoms: C_11  and  O_12 
ROOT
HETATM    1  C   UNK N   1      26.235  22.403  -8.341  0.00  0.00    -0.011 C 
HETATM    2  C   UNK N   1      25.278  23.601  -8.487  0.00  0.00     0.013 C 
HETATM    3  C   UNK N   1      25.947  24.937  -8.196  0.00  0.00     0.006 C 
HETATM    4  C   UNK N   1      26.505  24.895  -6.782  0.00  0.00    -0.002 C 
HETATM    5  C   UNK N   1      27.651  23.860  -6.752  0.00  0.00    -0.005 C 
HETATM    6  C   UNK N   1      27.080  22.461  -7.060  0.00  0.00     0.001 C 
HETATM    7  C   UNK N   1      28.237  21.496  -7.344  0.00  0.00     0.008 C 
HETATM    8  C   UNK N   1      28.351  21.384  -8.867  0.00  0.00     0.033 C 
HETATM    9  C   UNK N   1      27.319  22.353  -9.414  0.00  0.00     0.127 C 
HETATM   10  C   UNK N   1      28.347  23.821  -5.375  0.00  0.00     0.010 C 
HETATM   11  C   UNK N   1      28.816  25.201  -4.912  0.00  0.00     0.035 C 
HETATM   12  C   UNK N   1      27.644  26.118  -4.982  0.00  0.00    -0.072 C 
HETATM   13  C   UNK N   1      27.148  26.666  -3.862  0.00  0.00     0.053 C 
HETATM   14  C   UNK N   1      25.879  27.413  -3.903  0.00  0.00     0.149 C 
HETATM   15  O   UNK N   1      25.526  28.086  -2.949  0.00  0.00    -0.293 OA
HETATM   16  C   UNK N   1      24.998  27.280  -5.104  0.00  0.00     0.084 C 
HETATM   17  C   UNK N   1      25.869  27.345  -6.351  0.00  0.00     0.017 C 
HETATM   18  C   UNK N   1      26.984  26.278  -6.335  0.00  0.00     0.019 C 
ENDROOT
BRANCH   1  19
HETATM   19  C   UNK N   1      25.399  21.107  -8.274  0.00  0.00     0.008 C 
HETATM   20  C   UNK N   1      24.493  21.011  -7.053  0.00  0.00     0.006 C 
ENDBRANCH   1  19
BRANCH   9  21
HETATM   21  O   UNK N   1      26.844  21.952 -10.664  0.00  0.00    -0.395 OA
HETATM   22  H   UNK N   1      26.293  21.163 -10.791  0.00  0.00     0.210 HD
ENDBRANCH   9  21
TORSDOF 2
ENDMDL
MODEL 6
REMARK VINA RESULT:      -6.6      2.581      6.056
REMARK  2 active torsions:
REMARK  status: ('A' for Active; 'I' for Inactive)
REMARK    1  A    between atoms: C_3  and  C_2 
REMARK    2  A    between atoms: C_11  and  O_12 
ROOT
HETATM    1  C   UNK N   1      27.345  28.553  -4.797  0.00  0.00    -0.011 C 
HETATM    2  C   UNK N   1      26.302  27.803  -5.647  0.00  0.00     0.013 C 
HETATM    3  C   UNK N   1      26.057  26.379  -5.167  0.00  0.00     0.006 C 
HETATM    4  C   UNK N   1      27.380  25.629  -5.198  0.00  0.00    -0.002 C 
HETATM    5  C   UNK N   1      28.307  26.254  -4.132  0.00  0.00    -0.005 C 
HETATM    6  C   UNK N   1      28.603  27.718  -4.512  0.00  0.00     0.001 C 
HETATM    7  C   UNK N   1      29.247  28.429  -3.316  0.00  0.00     0.008 C 
HETATM    8  C   UNK N   1      28.134  29.218  -2.621  0.00  0.00     0.033 C 
HETATM    9  C   UNK N   1      26.868  28.867  -3.381  0.00  0.00     0.127 C 
HETATM   10  C   UNK N   1      29.642  25.489  -4.020  0.00  0.00     0.010 C 
HETATM   11  C   UNK N   1      29.446  23.989  -3.793  0.00  0.00     0.035 C 
HETATM   12  C   UNK N   1      28.540  23.490  -4.865  0.00  0.00    -0.072 C 
HETATM   13  C   UNK N   1      28.987  22.600  -5.766  0.00  0.00     0.053 C 
HETATM   14  C   UNK N   1      28.161  22.254  -6.935  0.00  0.00     0.149 C 
HETATM   15  O   UNK N   1      28.456  21.305  -7.643  0.00  0.00    -0.293 OA
HETATM   16  C   UNK N   1      26.994  23.123  -7.282  0.00  0.00     0.084 C 
HETATM   17  C   UNK N   1      26.250  23.467  -5.999  0.00  0.00     0.017 C 
HETATM   18  C   UNK N   1      27.172  24.132  -4.955  0.00  0.00     0.019 C 
ENDROOT
BRANCH   1  19
HETATM   19  C   UNK N   1      27.801  29.811  -5.567  0.00  0.00     0.008 C 
HETATM   20  C   UNK N   1      28.558  29.512  -6.855  0.00  0.00     0.006 C 
ENDBRANCH   1  19
BRANCH   9  21
HETATM   21  O   UNK N   1      25.931  29.902  -3.329  0.00  0.00    -0.395 OA
HETATM   22  H   UNK N   1      26.159  30.830  -3.496  0.00  0.00     0.210 HD
ENDBRANCH   9  21
TORSDOF 2
ENDMDL
MODEL 7
REMARK VINA RESULT:      -6.5     24.140     26.801
REMARK  2 active torsions:
REMARK  status: ('A' for Active; 'I' for Inactive)
REMARK    1  A    between atoms: C_3  and  C_2 
REMARK    2  A    between atoms: C_11  and  O_12 
ROOT
HETATM    1  C   UNK N   1      35.621  10.208  19.990  0.00  0.00    -0.011 C 
HETATM    2  C   UNK N   1      36.077  11.674  19.860  0.00  0.00     0.013 C 
HETATM    3  C   UNK N   1      35.252  12.466  18.856  0.00  0.00     0.006 C 
HETATM    4  C   UNK N   1      35.351  11.776  17.504  0.00  0.00    -0.002 C 
HETATM    5  C   UNK N   1      34.639  10.410  17.614  0.00  0.00    -0.005 C 
HETATM    6  C   UNK N   1      35.387   9.528  18.633  0.00  0.00     0.001 C 
HETATM    7  C   UNK N   1      34.519   8.312  18.980  0.00  0.00     0.008 C 
HETATM    8  C   UNK N   1      33.831   8.630  20.311  0.00  0.00     0.033 C 
HETATM    9  C   UNK N   1      34.251  10.050  20.644  0.00  0.00     0.127 C 
HETATM   10  C   UNK N   1      34.601   9.678  16.256  0.00  0.00     0.010 C 
HETATM   11  C   UNK N   1      34.010  10.539  15.138  0.00  0.00     0.035 C 
HETATM   12  C   UNK N   1      34.759  11.825  15.121  0.00  0.00    -0.072 C 
HETATM   13  C   UNK N   1      35.501  12.160  14.053  0.00  0.00     0.053 C 
HETATM   14  C   UNK N   1      36.392  13.331  14.111  0.00  0.00     0.149 C 
HETATM   15  O   UNK N   1      36.909  13.766  13.095  0.00  0.00    -0.293 OA
HETATM   16  C   UNK N   1      36.710  13.937  15.441  0.00  0.00     0.084 C 
HETATM   17  C   UNK N   1      35.425  14.018  16.253  0.00  0.00     0.017 C 
HETATM   18  C   UNK N   1      34.743  12.640  16.396  0.00  0.00     0.019 C 
ENDROOT
BRANCH   1  19
HETATM   19  C   UNK N   1      36.725   9.408  20.714  0.00  0.00     0.008 C 
HETATM   20  C   UNK N   1      37.770  10.274  21.407  0.00  0.00     0.006 C 
ENDBRANCH   1  19
BRANCH   9  21
HETATM   21  O   UNK N   1      34.265  10.274  22.022  0.00  0.00    -0.395 OA
HETATM   22  H   UNK N   1      33.606   9.896  22.626  0.00  0.00     0.210 HD
ENDBRANCH   9  21
TORSDOF 2
ENDMDL
MODEL 8
REMARK VINA RESULT:      -6.4      1.686      6.206
REMARK  2 active torsions:
REMARK  status: ('A' for Active; 'I' for Inactive)
REMARK    1  A    between atoms: C_3  and  C_2 
REMARK    2  A    between atoms: C_11  and  O_12 
ROOT
HETATM    1  C   UNK N   1      27.691  24.574  -6.333  0.00  0.00    -0.011 C 
HETATM    2  C   UNK N   1      28.420  23.485  -7.143  0.00  0.00     0.013 C 
HETATM    3  C   UNK N   1      28.742  22.246  -6.320  0.00  0.00     0.006 C 
HETATM    4  C   UNK N   1      29.599  22.667  -5.136  0.00  0.00    -0.002 C 
HETATM    5  C   UNK N   1      28.733  23.547  -4.209  0.00  0.00    -0.005 C 
HETATM    6  C   UNK N   1      28.329  24.831  -4.960  0.00  0.00     0.001 C 
HETATM    7  C   UNK N   1      27.224  25.548  -4.175  0.00  0.00     0.008 C 
HETATM    8  C   UNK N   1      25.898  25.176  -4.844  0.00  0.00     0.033 C 
HETATM    9  C   UNK N   1      26.269  24.188  -5.935  0.00  0.00     0.127 C 
HETATM   10  C   UNK N   1      29.492  23.940  -2.925  0.00  0.00     0.010 C 
HETATM   11  C   UNK N   1      30.067  22.730  -2.186  0.00  0.00     0.035 C 
HETATM   12  C   UNK N   1      30.877  21.952  -3.164  0.00  0.00    -0.072 C 
HETATM   13  C   UNK N   1      32.202  21.824  -2.992  0.00  0.00     0.053 C 
HETATM   14  C   UNK N   1      33.030  21.225  -4.053  0.00  0.00     0.149 C 
HETATM   15  O   UNK N   1      34.188  20.914  -3.833  0.00  0.00    -0.293 OA
HETATM   16  C   UNK N   1      32.451  21.066  -5.423  0.00  0.00     0.084 C 
HETATM   17  C   UNK N   1      31.029  20.539  -5.288  0.00  0.00     0.017 C 
HETATM   18  C   UNK N   1      30.157  21.448  -4.396  0.00  0.00     0.019 C 
ENDROOT
BRANCH   1  19
HETATM   19  C   UNK N   1      27.753  25.901  -7.119  0.00  0.00     0.008 C 
HETATM   20  C   UNK N   1      29.161  26.321  -7.523  0.00  0.00     0.006 C 
ENDBRANCH   1  19
BRANCH   9  21
HETATM   21  O   UNK N   1      25.365  24.230  -6.999  0.00  0.00    -0.395 OA
HETATM   22  H   UNK N   1      25.643  24.224  -7.929  0.00  0.00     0.210 HD
ENDBRANCH   9  21
TORSDOF 2
ENDMDL
MODEL 9
REMARK VINA RESULT:      -6.4     24.149     26.059
REMARK  2 active torsions:
REMARK  status: ('A' for Active; 'I' for Inactive)
REMARK    1  A    between atoms: C_3  and  C_2 
REMARK    2  A    between atoms: C_11  and  O_12 
ROOT
HETATM    1  C   UNK N   1      38.387   9.058  14.737  0.00  0.00    -0.011 C 
HETATM    2  C   UNK N   1      37.956   8.523  16.116  0.00  0.00     0.013 C 
HETATM    3  C   UNK N   1      36.534   8.918  16.489  0.00  0.00     0.006 C 
HETATM    4  C   UNK N   1      36.439  10.436  16.474  0.00  0.00    -0.002 C 
HETATM    5  C   UNK N   1      36.615  10.910  15.015  0.00  0.00    -0.005 C 
HETATM    6  C   UNK N   1      38.028  10.536  14.526  0.00  0.00     0.001 C 
HETATM    7  C   UNK N   1      38.097  10.712  13.004  0.00  0.00     0.008 C 
HETATM    8  C   UNK N   1      37.913   9.321  12.391  0.00  0.00     0.033 C 
HETATM    9  C   UNK N   1      37.654   8.401  13.570  0.00  0.00     0.127 C 
HETATM   10  C   UNK N   1      36.432  12.437  14.888  0.00  0.00     0.010 C 
HETATM   11  C   UNK N   1      35.114  12.926  15.490  0.00  0.00     0.035 C 
HETATM   12  C   UNK N   1      35.043  12.414  16.886  0.00  0.00    -0.072 C 
HETATM   13  C   UNK N   1      35.042  13.271  17.920  0.00  0.00     0.053 C 
HETATM   14  C   UNK N   1      35.168  12.766  19.298  0.00  0.00     0.149 C 
HETATM   15  O   UNK N   1      34.962  13.503  20.248  0.00  0.00    -0.293 OA
HETATM   16  C   UNK N   1      35.620  11.357  19.517  0.00  0.00     0.084 C 
HETATM   17  C   UNK N   1      34.894  10.459  18.525  0.00  0.00     0.017 C 
HETATM   18  C   UNK N   1      35.110  10.913  17.066  0.00  0.00     0.019 C 
ENDROOT
BRANCH   1  19
HETATM   19  C   UNK N   1      39.922   8.943  14.619  0.00  0.00     0.008 C 
HETATM   20  C   UNK N   1      40.556   7.998  15.632  0.00  0.00     0.006 C 
ENDBRANCH   1  19
BRANCH   9  21
HETATM   21  O   UNK N   1      38.080   7.097  13.311  0.00  0.00    -0.395 OA
HETATM   22  H   UNK N   1      38.150   6.732  12.415  0.00  0.00     0.210 HD
ENDBRANCH   9  21
TORSDOF 2
ENDMDL
