MODEL 1
REMARK VINA RESULT:      -5.4      0.000      0.000
REMARK  3 active torsions:
REMARK  status: ('A' for Active; 'I' for Inactive)
REMARK    1  A    between atoms: C_2  and  C_4 
REMARK    2  A    between atoms: C_4  and  C_5 
REMARK    3  A    between atoms: C_5  and  C_6 
ROOT
HETATM    1  C   UNK N   1      32.806  16.394   7.594  0.00  0.00     0.128 A 
HETATM    2  C   UNK N   1      32.900  15.751   8.976  0.00  0.00     0.244 A 
HETATM    3  O   UNK N   1      32.086  14.903   9.306  0.00  0.00    -0.272 OA
HETATM    4  N   UNK N   1      33.857  16.117   9.862  0.00  0.00    -0.278 N 
HETATM    5  C   UNK N   1      34.793  17.056   9.584  0.00  0.00     0.329 A 
HETATM    6  O   UNK N   1      35.611  17.359  10.436  0.00  0.00    -0.247 OA
HETATM    7  N   UNK N   1      34.834  17.664   8.376  0.00  0.00    -0.278 N 
HETATM    8  C   UNK N   1      33.941  17.398   7.393  0.00  0.00     0.244 A 
HETATM    9  O   UNK N   1      34.049  17.986   6.326  0.00  0.00    -0.272 OA
HETATM   10  H   UNK N   1      33.873  15.683  10.746  0.00  0.00     0.173 HD
HETATM   11  H   UNK N   1      35.542  18.326   8.204  0.00  0.00     0.173 HD
ENDROOT
BRANCH   1  12
HETATM   12  C   UNK N   1      32.873  15.311   6.478  0.00  0.00     0.005 C 
HETATM   13  C   UNK N   1      31.532  14.651   6.178  0.00  0.00     0.011 C 
HETATM   14  C   UNK N   1      33.912  14.231   6.745  0.00  0.00     0.011 C 
ENDBRANCH   1  12
BRANCH   1  15
HETATM   15  C   UNK N   1      31.454  17.145   7.546  0.00  0.00     0.056 C 
BRANCH  15  16
HETATM   16  C   UNK N   1      31.235  18.193   8.603  0.00  0.00    -0.035 C 
HETATM   17  C   UNK N   1      30.015  18.515   9.022  0.00  0.00     0.007 C 
ENDBRANCH  15  16
ENDBRANCH   1  15
TORSDOF 3
ENDMDL
MODEL 2
REMARK VINA RESULT:      -5.1      0.895      3.632
REMARK  3 active torsions:
REMARK  status: ('A' for Active; 'I' for Inactive)
REMARK    1  A    between atoms: C_2  and  C_4 
REMARK    2  A    between atoms: C_4  and  C_5 
REMARK    3  A    between atoms: C_5  and  C_6 
ROOT
HETATM    1  C   UNK N   1      33.120  16.532   7.769  0.00  0.00     0.128 A 
HETATM    2  C   UNK N   1      34.226  17.566   7.964  0.00  0.00     0.244 A 
HETATM    3  O   UNK N   1      34.495  18.343   7.061  0.00  0.00    -0.272 OA
HETATM    4  N   UNK N   1      34.940  17.631   9.114  0.00  0.00    -0.278 N 
HETATM    5  C   UNK N   1      34.716  16.803  10.161  0.00  0.00     0.329 A 
HETATM    6  O   UNK N   1      35.411  16.895  11.160  0.00  0.00    -0.247 OA
HETATM    7  N   UNK N   1      33.734  15.873  10.120  0.00  0.00    -0.278 N 
HETATM    8  C   UNK N   1      32.942  15.694   9.035  0.00  0.00     0.244 A 
HETATM    9  O   UNK N   1      32.072  14.837   9.077  0.00  0.00    -0.272 OA
HETATM   10  H   UNK N   1      35.651  18.308   9.191  0.00  0.00     0.173 HD
HETATM   11  H   UNK N   1      33.588  15.304  10.909  0.00  0.00     0.173 HD
ENDROOT
BRANCH   1  12
HETATM   12  C   UNK N   1      31.773  17.227   7.416  0.00  0.00     0.005 C 
HETATM   13  C   UNK N   1      31.082  17.873   8.613  0.00  0.00     0.011 C 
HETATM   14  C   UNK N   1      30.787  16.312   6.705  0.00  0.00     0.011 C 
ENDBRANCH   1  12
BRANCH   1  15
HETATM   15  C   UNK N   1      33.577  15.608   6.614  0.00  0.00     0.056 C 
BRANCH  15  16
HETATM   16  C   UNK N   1      34.841  14.825   6.846  0.00  0.00    -0.035 C 
HETATM   17  C   UNK N   1      35.838  14.836   5.967  0.00  0.00     0.007 C 
ENDBRANCH  15  16
ENDBRANCH   1  15
TORSDOF 3
ENDMDL
MODEL 3
REMARK VINA RESULT:      -5.0      2.252      3.273
REMARK  3 active torsions:
REMARK  status: ('A' for Active; 'I' for Inactive)
REMARK    1  A    between atoms: C_2  and  C_4 
REMARK    2  A    between atoms: C_4  and  C_5 
REMARK    3  A    between atoms: C_5  and  C_6 
ROOT
HETATM    1  C   UNK N   1      33.729  16.499   6.815  0.00  0.00     0.128 A 
HETATM    2  C   UNK N   1      32.382  15.819   7.051  0.00  0.00     0.244 A 
HETATM    3  O   UNK N   1      32.165  14.721   6.561  0.00  0.00    -0.272 OA
HETATM    4  N   UNK N   1      31.405  16.416   7.774  0.00  0.00    -0.278 N 
HETATM    5  C   UNK N   1      31.556  17.635   8.343  0.00  0.00     0.329 A 
HETATM    6  O   UNK N   1      30.628  18.130   8.961  0.00  0.00    -0.247 OA
HETATM    7  N   UNK N   1      32.722  18.315   8.238  0.00  0.00    -0.278 N 
HETATM    8  C   UNK N   1      33.785  17.841   7.544  0.00  0.00     0.244 A 
HETATM    9  O   UNK N   1      34.805  18.513   7.501  0.00  0.00    -0.272 OA
HETATM   10  H   UNK N   1      30.549  15.944   7.891  0.00  0.00     0.173 HD
HETATM   11  H   UNK N   1      32.801  19.190   8.684  0.00  0.00     0.173 HD
ENDROOT
BRANCH   1  12
HETATM   12  C   UNK N   1      34.896  15.595   7.311  0.00  0.00     0.005 C 
HETATM   13  C   UNK N   1      35.396  14.606   6.263  0.00  0.00     0.011 C 
HETATM   14  C   UNK N   1      34.575  14.843   8.594  0.00  0.00     0.011 C 
ENDBRANCH   1  12
BRANCH   1  15
HETATM   15  C   UNK N   1      33.839  16.748   5.292  0.00  0.00     0.056 C 
BRANCH  15  16
HETATM   16  C   UNK N   1      32.758  17.592   4.674  0.00  0.00    -0.035 C 
HETATM   17  C   UNK N   1      32.212  17.276   3.503  0.00  0.00     0.007 C 
ENDBRANCH  15  16
ENDBRANCH   1  15
TORSDOF 3
ENDMDL
MODEL 4
REMARK VINA RESULT:      -4.9     13.471     14.697
REMARK  3 active torsions:
REMARK  status: ('A' for Active; 'I' for Inactive)
REMARK    1  A    between atoms: C_2  and  C_4 
REMARK    2  A    between atoms: C_4  and  C_5 
REMARK    3  A    between atoms: C_5  and  C_6 
ROOT
HETATM    1  C   UNK N   1      30.321  23.580  -3.954  0.00  0.00     0.128 A 
HETATM    2  C   UNK N   1      29.198  23.896  -4.939  0.00  0.00     0.244 A 
HETATM    3  O   UNK N   1      29.461  24.084  -6.117  0.00  0.00    -0.272 OA
HETATM    4  N   UNK N   1      27.910  23.999  -4.534  0.00  0.00    -0.278 N 
HETATM    5  C   UNK N   1      27.530  23.818  -3.247  0.00  0.00     0.329 A 
HETATM    6  O   UNK N   1      26.357  23.950  -2.942  0.00  0.00    -0.247 OA
HETATM    7  N   UNK N   1      28.433  23.491  -2.292  0.00  0.00    -0.278 N 
HETATM    8  C   UNK N   1      29.755  23.355  -2.552  0.00  0.00     0.244 A 
HETATM    9  O   UNK N   1      30.506  23.053  -1.637  0.00  0.00    -0.272 OA
HETATM   10  H   UNK N   1      27.220  24.216  -5.203  0.00  0.00     0.173 HD
HETATM   11  H   UNK N   1      28.115  23.347  -1.372  0.00  0.00     0.173 HD
ENDROOT
BRANCH   1  12
HETATM   12  C   UNK N   1      31.104  22.311  -4.403  0.00  0.00     0.005 C 
HETATM   13  C   UNK N   1      30.519  21.006  -3.874  0.00  0.00     0.011 C 
HETATM   14  C   UNK N   1      32.587  22.366  -4.067  0.00  0.00     0.011 C 
ENDBRANCH   1  12
BRANCH   1  15
HETATM   15  C   UNK N   1      31.251  24.817  -3.931  0.00  0.00     0.056 C 
BRANCH  15  16
HETATM   16  C   UNK N   1      30.604  26.132  -3.591  0.00  0.00    -0.035 C 
HETATM   17  C   UNK N   1      31.326  27.193  -3.243  0.00  0.00     0.007 C 
ENDBRANCH  15  16
ENDBRANCH   1  15
TORSDOF 3
ENDMDL
MODEL 5
REMARK VINA RESULT:      -4.9     16.961     18.343
REMARK  3 active torsions:
REMARK  status: ('A' for Active; 'I' for Inactive)
REMARK    1  A    between atoms: C_2  and  C_4 
REMARK    2  A    between atoms: C_4  and  C_5 
REMARK    3  A    between atoms: C_5  and  C_6 
ROOT
HETATM    1  C   UNK N   1      26.983  27.355  -4.963  0.00  0.00     0.128 A 
HETATM    2  C   UNK N   1      27.255  28.719  -5.594  0.00  0.00     0.244 A 
HETATM    3  O   UNK N   1      27.649  28.784  -6.748  0.00  0.00    -0.272 OA
HETATM    4  N   UNK N   1      27.092  29.868  -4.895  0.00  0.00    -0.278 N 
HETATM    5  C   UNK N   1      26.669  29.888  -3.609  0.00  0.00     0.329 A 
HETATM    6  O   UNK N   1      26.568  30.955  -3.026  0.00  0.00    -0.247 OA
HETATM    7  N   UNK N   1      26.357  28.743  -2.958  0.00  0.00    -0.278 N 
HETATM    8  C   UNK N   1      26.473  27.521  -3.532  0.00  0.00     0.244 A 
HETATM    9  O   UNK N   1      26.165  26.534  -2.880  0.00  0.00    -0.272 OA
HETATM   10  H   UNK N   1      27.290  30.724  -5.340  0.00  0.00     0.173 HD
HETATM   11  H   UNK N   1      26.033  28.800  -2.030  0.00  0.00     0.173 HD
ENDROOT
BRANCH   1  12
HETATM   12  C   UNK N   1      25.933  26.564  -5.796  0.00  0.00     0.005 C 
HETATM   13  C   UNK N   1      24.518  27.121  -5.694  0.00  0.00     0.011 C 
HETATM   14  C   UNK N   1      25.908  25.075  -5.480  0.00  0.00     0.011 C 
ENDBRANCH   1  12
BRANCH   1  15
HETATM   15  C   UNK N   1      28.336  26.605  -4.932  0.00  0.00     0.056 C 
BRANCH  15  16
HETATM   16  C   UNK N   1      29.421  27.218  -4.089  0.00  0.00    -0.035 C 
HETATM   17  C   UNK N   1      30.439  26.496  -3.631  0.00  0.00     0.007 C 
ENDBRANCH  15  16
ENDBRANCH   1  15
TORSDOF 3
ENDMDL
MODEL 6
REMARK VINA RESULT:      -4.9      6.140      7.698
REMARK  3 active torsions:
REMARK  status: ('A' for Active; 'I' for Inactive)
REMARK    1  A    between atoms: C_2  and  C_4 
REMARK    2  A    between atoms: C_4  and  C_5 
REMARK    3  A    between atoms: C_5  and  C_6 
ROOT
HETATM    1  C   UNK N   1      35.644  12.590  13.551  0.00  0.00     0.128 A 
HETATM    2  C   UNK N   1      36.956  11.811  13.495  0.00  0.00     0.244 A 
HETATM    3  O   UNK N   1      37.228  11.016  14.382  0.00  0.00    -0.272 OA
HETATM    4  N   UNK N   1      37.847  11.997  12.491  0.00  0.00    -0.278 N 
HETATM    5  C   UNK N   1      37.633  12.864  11.474  0.00  0.00     0.329 A 
HETATM    6  O   UNK N   1      38.487  13.004  10.614  0.00  0.00    -0.247 OA
HETATM    7  N   UNK N   1      36.487  13.579  11.395  0.00  0.00    -0.278 N 
HETATM    8  C   UNK N   1      35.507  13.496  12.328  0.00  0.00     0.244 A 
HETATM    9  O   UNK N   1      34.498  14.170  12.182  0.00  0.00    -0.272 OA
HETATM   10  H   UNK N   1      38.685  11.480  12.502  0.00  0.00     0.173 HD
HETATM   11  H   UNK N   1      36.358  14.183  10.629  0.00  0.00     0.173 HD
ENDROOT
BRANCH   1  12
HETATM   12  C   UNK N   1      34.430  11.617  13.611  0.00  0.00     0.005 C 
HETATM   13  C   UNK N   1      34.099  11.131  15.017  0.00  0.00     0.011 C 
HETATM   14  C   UNK N   1      34.572  10.416  12.687  0.00  0.00     0.011 C 
ENDBRANCH   1  12
BRANCH   1  15
HETATM   15  C   UNK N   1      35.705  13.467  14.825  0.00  0.00     0.056 C 
BRANCH  15  16
HETATM   16  C   UNK N   1      36.799  14.499  14.873  0.00  0.00    -0.035 C 
HETATM   17  C   UNK N   1      37.187  15.049  16.019  0.00  0.00     0.007 C 
ENDBRANCH  15  16
ENDBRANCH   1  15
TORSDOF 3
ENDMDL
MODEL 7
REMARK VINA RESULT:      -4.8      6.920      9.026
REMARK  3 active torsions:
REMARK  status: ('A' for Active; 'I' for Inactive)
REMARK    1  A    between atoms: C_2  and  C_4 
REMARK    2  A    between atoms: C_4  and  C_5 
REMARK    3  A    between atoms: C_5  and  C_6 
ROOT
HETATM    1  C   UNK N   1      35.985  12.879  15.331  0.00  0.00     0.128 A 
HETATM    2  C   UNK N   1      35.062  12.632  14.140  0.00  0.00     0.244 A 
HETATM    3  O   UNK N   1      34.302  11.676  14.150  0.00  0.00    -0.272 OA
HETATM    4  N   UNK N   1      35.081  13.439  13.051  0.00  0.00    -0.278 N 
HETATM    5  C   UNK N   1      35.898  14.513  12.951  0.00  0.00     0.329 A 
HETATM    6  O   UNK N   1      35.885  15.185  11.933  0.00  0.00    -0.247 OA
HETATM    7  N   UNK N   1      36.729  14.855  13.962  0.00  0.00    -0.278 N 
HETATM    8  C   UNK N   1      36.818  14.140  15.110  0.00  0.00     0.244 A 
HETATM    9  O   UNK N   1      37.589  14.517  15.979  0.00  0.00    -0.272 OA
HETATM   10  H   UNK N   1      34.475  13.235  12.302  0.00  0.00     0.173 HD
HETATM   11  H   UNK N   1      37.293  15.656  13.860  0.00  0.00     0.173 HD
ENDROOT
BRANCH   1  12
HETATM   12  C   UNK N   1      35.160  13.029  16.643  0.00  0.00     0.005 C 
HETATM   13  C   UNK N   1      35.468  14.303  17.422  0.00  0.00     0.011 C 
HETATM   14  C   UNK N   1      35.281  11.832  17.574  0.00  0.00     0.011 C 
ENDBRANCH   1  12
BRANCH   1  15
HETATM   15  C   UNK N   1      36.931  11.657  15.418  0.00  0.00     0.056 C 
BRANCH  15  16
HETATM   16  C   UNK N   1      37.835  11.429  14.237  0.00  0.00    -0.035 C 
HETATM   17  C   UNK N   1      37.912  10.244  13.637  0.00  0.00     0.007 C 
ENDBRANCH  15  16
ENDBRANCH   1  15
TORSDOF 3
ENDMDL
MODEL 8
REMARK VINA RESULT:      -4.8      6.574      8.094
REMARK  3 active torsions:
REMARK  status: ('A' for Active; 'I' for Inactive)
REMARK    1  A    between atoms: C_2  and  C_4 
REMARK    2  A    between atoms: C_4  and  C_5 
REMARK    3  A    between atoms: C_5  and  C_6 
ROOT
HETATM    1  C   UNK N   1      35.973  11.775  13.253  0.00  0.00     0.128 A 
HETATM    2  C   UNK N   1      35.434  13.203  13.290  0.00  0.00     0.244 A 
HETATM    3  O   UNK N   1      34.524  13.527  12.543  0.00  0.00    -0.272 OA
HETATM    4  N   UNK N   1      35.959  14.136  14.121  0.00  0.00    -0.278 N 
HETATM    5  C   UNK N   1      36.974  13.868  14.975  0.00  0.00     0.329 A 
HETATM    6  O   UNK N   1      37.420  14.759  15.678  0.00  0.00    -0.247 OA
HETATM    7  N   UNK N   1      37.505  12.626  15.060  0.00  0.00    -0.278 N 
HETATM    8  C   UNK N   1      37.081  11.595  14.290  0.00  0.00     0.244 A 
HETATM    9  O   UNK N   1      37.608  10.501  14.431  0.00  0.00    -0.272 OA
HETATM   10  H   UNK N   1      35.586  15.047  14.103  0.00  0.00     0.173 HD
HETATM   11  H   UNK N   1      38.229  12.465  15.708  0.00  0.00     0.173 HD
ENDROOT
BRANCH   1  12
HETATM   12  C   UNK N   1      34.835  10.750  13.532  0.00  0.00     0.005 C 
HETATM   13  C   UNK N   1      34.029  10.373  12.293  0.00  0.00     0.011 C 
HETATM   14  C   UNK N   1      33.882  11.190  14.633  0.00  0.00     0.011 C 
ENDBRANCH   1  12
BRANCH   1  15
HETATM   15  C   UNK N   1      36.566  11.563  11.839  0.00  0.00     0.056 C 
BRANCH  15  16
HETATM   16  C   UNK N   1      37.772  12.393  11.490  0.00  0.00    -0.035 C 
HETATM   17  C   UNK N   1      37.775  13.206  10.438  0.00  0.00     0.007 C 
ENDBRANCH  15  16
ENDBRANCH   1  15
TORSDOF 3
ENDMDL
MODEL 9
REMARK VINA RESULT:      -4.7      2.585      3.533
REMARK  3 active torsions:
REMARK  status: ('A' for Active; 'I' for Inactive)
REMARK    1  A    between atoms: C_2  and  C_4 
REMARK    2  A    between atoms: C_4  and  C_5 
REMARK    3  A    between atoms: C_5  and  C_6 
ROOT
HETATM    1  C   UNK N   1      33.260  16.072   5.589  0.00  0.00     0.128 A 
HETATM    2  C   UNK N   1      31.901  15.561   6.062  0.00  0.00     0.244 A 
HETATM    3  O   UNK N   1      30.878  16.067   5.626  0.00  0.00    -0.272 OA
HETATM    4  N   UNK N   1      31.799  14.569   6.979  0.00  0.00    -0.278 N 
HETATM    5  C   UNK N   1      32.878  13.960   7.522  0.00  0.00     0.329 A 
HETATM    6  O   UNK N   1      32.719  13.091   8.363  0.00  0.00    -0.247 OA
HETATM    7  N   UNK N   1      34.134  14.300   7.148  0.00  0.00    -0.278 N 
HETATM    8  C   UNK N   1      34.388  15.275   6.242  0.00  0.00     0.244 A 
HETATM    9  O   UNK N   1      35.550  15.519   5.952  0.00  0.00    -0.272 OA
HETATM   10  H   UNK N   1      30.901  14.279   7.263  0.00  0.00     0.173 HD
HETATM   11  H   UNK N   1      34.893  13.819   7.550  0.00  0.00     0.173 HD
ENDROOT
BRANCH   1  12
HETATM   12  C   UNK N   1      33.380  15.961   4.041  0.00  0.00     0.005 C 
HETATM   13  C   UNK N   1      32.681  17.087   3.286  0.00  0.00     0.011 C 
HETATM   14  C   UNK N   1      32.907  14.623   3.492  0.00  0.00     0.011 C 
ENDBRANCH   1  12
BRANCH   1  15
HETATM   15  C   UNK N   1      33.359  17.549   6.041  0.00  0.00     0.056 C 
BRANCH  15  16
HETATM   16  C   UNK N   1      33.360  17.794   7.525  0.00  0.00    -0.035 C 
HETATM   17  C   UNK N   1      34.393  18.368   8.136  0.00  0.00     0.007 C 
ENDBRANCH  15  16
ENDBRANCH   1  15
TORSDOF 3
ENDMDL
