MODEL 1
REMARK VINA RESULT:      -7.1      0.000      0.000
REMARK  2 active torsions:
REMARK  status: ('A' for Active; 'I' for Inactive)
REMARK    1  A    between atoms: C_10  and  O_11 
REMARK    2  A    between atoms: C_16  and  O_20 
ROOT
HETATM    1  C   UNK N   1      27.543  19.670   4.758  0.00  0.00     0.018 C 
HETATM    2  C   UNK N   1      27.452  18.170   4.996  0.00  0.00    -0.014 C 
HETATM    3  C   UNK N   1      28.506  17.472   4.104  0.00  0.00     0.012 C 
HETATM    4  C   UNK N   1      29.657  16.801   4.863  0.00  0.00     0.006 C 
HETATM    5  C   UNK N   1      30.154  17.662   6.026  0.00  0.00    -0.002 C 
HETATM    6  C   UNK N   1      29.013  18.015   7.019  0.00  0.00    -0.005 C 
HETATM    7  C   UNK N   1      27.588  17.813   6.471  0.00  0.00     0.001 C 
HETATM    8  C   UNK N   1      27.055  16.385   6.555  0.00  0.00     0.008 C 
HETATM    9  C   UNK N   1      26.052  16.267   5.404  0.00  0.00     0.033 C 
HETATM   10  C   UNK N   1      26.070  17.610   4.674  0.00  0.00     0.126 C 
HETATM   11  C   UNK N   1      29.182  17.426   8.418  0.00  0.00     0.009 C 
HETATM   12  C   UNK N   1      30.526  17.828   9.013  0.00  0.00     0.034 C 
HETATM   13  C   UNK N   1      31.664  17.533   8.078  0.00  0.00    -0.077 C 
HETATM   14  C   UNK N   1      32.918  17.687   8.529  0.00  0.00     0.007 C 
HETATM   15  C   UNK N   1      34.141  17.326   7.721  0.00  0.00     0.141 C 
HETATM   16  C   UNK N   1      33.815  16.531   6.454  0.00  0.00     0.036 C 
HETATM   17  C   UNK N   1      32.591  17.103   5.760  0.00  0.00     0.012 C 
HETATM   18  C   UNK N   1      31.374  16.994   6.684  0.00  0.00     0.019 C 
ENDROOT
BRANCH  10  19
HETATM   19  O   UNK N   1      25.067  18.415   5.226  0.00  0.00    -0.395 OA
HETATM   20  H   UNK N   1      24.283  18.176   5.744  0.00  0.00     0.210 HD
ENDBRANCH  10  19
BRANCH  15  21
HETATM   21  O   UNK N   1      34.860  18.479   7.409  0.00  0.00    -0.392 OA
HETATM   22  H   UNK N   1      35.497  19.162   7.672  0.00  0.00     0.210 HD
ENDBRANCH  15  21
TORSDOF 2
ENDMDL
MODEL 2
REMARK VINA RESULT:      -6.7     11.301     14.088
REMARK  2 active torsions:
REMARK  status: ('A' for Active; 'I' for Inactive)
REMARK    1  A    between atoms: C_10  and  O_11 
REMARK    2  A    between atoms: C_16  and  O_20 
ROOT
HETATM    1  C   UNK N   1      38.278  11.186  14.320  0.00  0.00     0.018 C 
HETATM    2  C   UNK N   1      36.800  11.442  14.063  0.00  0.00    -0.014 C 
HETATM    3  C   UNK N   1      36.058  10.085  14.111  0.00  0.00     0.012 C 
HETATM    4  C   UNK N   1      35.091   9.915  15.289  0.00  0.00     0.006 C 
HETATM    5  C   UNK N   1      35.676  10.462  16.593  0.00  0.00    -0.002 C 
HETATM    6  C   UNK N   1      36.084  11.956  16.467  0.00  0.00    -0.005 C 
HETATM    7  C   UNK N   1      36.219  12.473  15.023  0.00  0.00     0.001 C 
HETATM    8  C   UNK N   1      34.913  12.900  14.358  0.00  0.00     0.008 C 
HETATM    9  C   UNK N   1      35.139  12.685  12.860  0.00  0.00     0.033 C 
HETATM   10  C   UNK N   1      36.547  12.106  12.713  0.00  0.00     0.126 C 
HETATM   11  C   UNK N   1      35.283  12.911  17.349  0.00  0.00     0.009 C 
HETATM   12  C   UNK N   1      35.350  12.479  18.809  0.00  0.00     0.034 C 
HETATM   13  C   UNK N   1      34.991  11.031  18.983  0.00  0.00    -0.077 C 
HETATM   14  C   UNK N   1      34.853  10.552  20.229  0.00  0.00     0.007 C 
HETATM   15  C   UNK N   1      34.397   9.145  20.530  0.00  0.00     0.141 C 
HETATM   16  C   UNK N   1      33.859   8.407  19.302  0.00  0.00     0.036 C 
HETATM   17  C   UNK N   1      34.733   8.675  18.089  0.00  0.00     0.012 C 
HETATM   18  C   UNK N   1      34.715  10.171  17.758  0.00  0.00     0.019 C 
ENDROOT
BRANCH  10  19
HETATM   19  O   UNK N   1      37.433  13.171  12.510  0.00  0.00    -0.395 OA
HETATM   20  H   UNK N   1      37.916  13.443  11.715  0.00  0.00     0.210 HD
ENDBRANCH  10  19
BRANCH  15  21
HETATM   21  O   UNK N   1      35.435   8.427  21.123  0.00  0.00    -0.392 OA
HETATM   22  H   UNK N   1      36.149   7.775  21.047  0.00  0.00     0.210 HD
ENDBRANCH  15  21
TORSDOF 2
ENDMDL
MODEL 3
REMARK VINA RESULT:      -6.7     13.722     15.484
REMARK  2 active torsions:
REMARK  status: ('A' for Active; 'I' for Inactive)
REMARK    1  A    between atoms: C_10  and  O_11 
REMARK    2  A    between atoms: C_16  and  O_20 
ROOT
HETATM    1  C   UNK N   1      27.461  28.447  -6.438  0.00  0.00     0.018 C 
HETATM    2  C   UNK N   1      26.630  27.738  -5.378  0.00  0.00    -0.014 C 
HETATM    3  C   UNK N   1      25.353  27.185  -6.054  0.00  0.00     0.012 C 
HETATM    4  C   UNK N   1      25.266  25.655  -6.125  0.00  0.00     0.006 C 
HETATM    5  C   UNK N   1      26.608  25.022  -6.495  0.00  0.00    -0.002 C 
HETATM    6  C   UNK N   1      27.738  25.434  -5.512  0.00  0.00    -0.005 C 
HETATM    7  C   UNK N   1      27.427  26.667  -4.644  0.00  0.00     0.001 C 
HETATM    8  C   UNK N   1      26.603  26.390  -3.389  0.00  0.00     0.008 C 
HETATM    9  C   UNK N   1      25.851  27.694  -3.111  0.00  0.00     0.033 C 
HETATM   10  C   UNK N   1      26.233  28.661  -4.231  0.00  0.00     0.126 C 
HETATM   11  C   UNK N   1      28.319  24.283  -4.693  0.00  0.00     0.009 C 
HETATM   12  C   UNK N   1      28.811  23.167  -5.606  0.00  0.00     0.034 C 
HETATM   13  C   UNK N   1      27.762  22.750  -6.598  0.00  0.00    -0.077 C 
HETATM   14  C   UNK N   1      27.997  21.672  -7.361  0.00  0.00     0.007 C 
HETATM   15  C   UNK N   1      26.981  21.096  -8.318  0.00  0.00     0.141 C 
HETATM   16  C   UNK N   1      25.583  21.693  -8.147  0.00  0.00     0.036 C 
HETATM   17  C   UNK N   1      25.660  23.196  -7.940  0.00  0.00     0.012 C 
HETATM   18  C   UNK N   1      26.440  23.502  -6.657  0.00  0.00     0.019 C 
ENDROOT
BRANCH  10  19
HETATM   19  O   UNK N   1      27.331  29.413  -3.796  0.00  0.00    -0.395 OA
HETATM   20  H   UNK N   1      28.209  29.529  -4.191  0.00  0.00     0.210 HD
ENDBRANCH  10  19
BRANCH  15  21
HETATM   21  O   UNK N   1      27.427  21.251  -9.630  0.00  0.00    -0.392 OA
HETATM   22  H   UNK N   1      28.062  21.024 -10.328  0.00  0.00     0.210 HD
ENDBRANCH  15  21
TORSDOF 2
ENDMDL
MODEL 4
REMARK VINA RESULT:      -6.5      2.760      5.524
REMARK  2 active torsions:
REMARK  status: ('A' for Active; 'I' for Inactive)
REMARK    1  A    between atoms: C_10  and  O_11 
REMARK    2  A    between atoms: C_16  and  O_20 
ROOT
HETATM    1  C   UNK N   1      31.276  13.083   4.602  0.00  0.00     0.018 C 
HETATM    2  C   UNK N   1      31.795  14.405   4.056  0.00  0.00    -0.014 C 
HETATM    3  C   UNK N   1      30.587  15.230   3.551  0.00  0.00     0.012 C 
HETATM    4  C   UNK N   1      30.285  16.500   4.356  0.00  0.00     0.006 C 
HETATM    5  C   UNK N   1      30.419  16.268   5.862  0.00  0.00    -0.002 C 
HETATM    6  C   UNK N   1      31.826  15.731   6.246  0.00  0.00    -0.005 C 
HETATM    7  C   UNK N   1      32.644  15.155   5.076  0.00  0.00     0.001 C 
HETATM    8  C   UNK N   1      33.399  16.185   4.240  0.00  0.00     0.008 C 
HETATM    9  C   UNK N   1      33.513  15.561   2.846  0.00  0.00     0.033 C 
HETATM   10  C   UNK N   1      32.788  14.217   2.914  0.00  0.00     0.126 C 
HETATM   11  C   UNK N   1      32.651  16.676   7.118  0.00  0.00     0.009 C 
HETATM   12  C   UNK N   1      31.882  17.056   8.377  0.00  0.00     0.034 C 
HETATM   13  C   UNK N   1      30.501  17.556   8.062  0.00  0.00    -0.077 C 
HETATM   14  C   UNK N   1      29.767  18.075   9.058  0.00  0.00     0.007 C 
HETATM   15  C   UNK N   1      28.409  18.702   8.848  0.00  0.00     0.141 C 
HETATM   16  C   UNK N   1      28.068  18.923   7.373  0.00  0.00     0.036 C 
HETATM   17  C   UNK N   1      28.484  17.725   6.538  0.00  0.00     0.012 C 
HETATM   18  C   UNK N   1      30.003  17.538   6.624  0.00  0.00     0.019 C 
ENDROOT
BRANCH  10  19
HETATM   19  O   UNK N   1      33.732  13.233   3.233  0.00  0.00    -0.395 OA
HETATM   20  H   UNK N   1      34.687  13.304   3.385  0.00  0.00     0.210 HD
ENDBRANCH  10  19
BRANCH  15  21
HETATM   21  O   UNK N   1      27.430  17.930   9.471  0.00  0.00    -0.392 OA
HETATM   22  H   UNK N   1      26.610  17.879   9.986  0.00  0.00     0.210 HD
ENDBRANCH  15  21
TORSDOF 2
ENDMDL
MODEL 5
REMARK VINA RESULT:      -6.5     14.182     16.441
REMARK  2 active torsions:
REMARK  status: ('A' for Active; 'I' for Inactive)
REMARK    1  A    between atoms: C_10  and  O_11 
REMARK    2  A    between atoms: C_16  and  O_20 
ROOT
HETATM    1  C   UNK N   1      27.912  23.540  -5.677  0.00  0.00     0.018 C 
HETATM    2  C   UNK N   1      26.725  24.119  -6.433  0.00  0.00    -0.014 C 
HETATM    3  C   UNK N   1      25.713  24.667  -5.399  0.00  0.00     0.012 C 
HETATM    4  C   UNK N   1      25.545  26.192  -5.400  0.00  0.00     0.006 C 
HETATM    5  C   UNK N   1      26.885  26.915  -5.549  0.00  0.00    -0.002 C 
HETATM    6  C   UNK N   1      27.646  26.475  -6.830  0.00  0.00    -0.005 C 
HETATM    7  C   UNK N   1      27.150  25.161  -7.461  0.00  0.00     0.001 C 
HETATM    8  C   UNK N   1      25.935  25.294  -8.375  0.00  0.00     0.008 C 
HETATM    9  C   UNK N   1      25.228  23.938  -8.297  0.00  0.00     0.033 C 
HETATM   10  C   UNK N   1      26.033  23.086  -7.316  0.00  0.00     0.126 C 
HETATM   11  C   UNK N   1      27.834  27.579  -7.869  0.00  0.00     0.009 C 
HETATM   12  C   UNK N   1      28.522  28.789  -7.249  0.00  0.00     0.034 C 
HETATM   13  C   UNK N   1      27.841  29.238  -5.989  0.00  0.00    -0.077 C 
HETATM   14  C   UNK N   1      28.241  30.386  -5.420  0.00  0.00     0.007 C 
HETATM   15  C   UNK N   1      27.567  30.993  -4.213  0.00  0.00     0.141 C 
HETATM   16  C   UNK N   1      26.239  30.320  -3.860  0.00  0.00     0.036 C 
HETATM   17  C   UNK N   1      26.349  28.810  -3.986  0.00  0.00     0.012 C 
HETATM   18  C   UNK N   1      26.673  28.434  -5.435  0.00  0.00     0.019 C 
ENDROOT
BRANCH  10  19
HETATM   19  O   UNK N   1      26.971  22.351  -8.050  0.00  0.00    -0.395 OA
HETATM   20  H   UNK N   1      27.853  22.032  -7.802  0.00  0.00     0.210 HD
ENDBRANCH  10  19
BRANCH  15  21
HETATM   21  O   UNK N   1      28.437  30.969  -3.124  0.00  0.00    -0.392 OA
HETATM   22  H   UNK N   1      29.050  31.437  -2.535  0.00  0.00     0.210 HD
ENDBRANCH  15  21
TORSDOF 2
ENDMDL
MODEL 6
REMARK VINA RESULT:      -6.5      3.179      4.843
REMARK  2 active torsions:
REMARK  status: ('A' for Active; 'I' for Inactive)
REMARK    1  A    between atoms: C_10  and  O_11 
REMARK    2  A    between atoms: C_16  and  O_20 
ROOT
HETATM    1  C   UNK N   1      33.651  15.509   3.877  0.00  0.00     0.018 C 
HETATM    2  C   UNK N   1      32.396  15.761   4.700  0.00  0.00    -0.014 C 
HETATM    3  C   UNK N   1      32.133  14.513   5.577  0.00  0.00     0.012 C 
HETATM    4  C   UNK N   1      32.304  14.730   7.085  0.00  0.00     0.006 C 
HETATM    5  C   UNK N   1      33.530  15.589   7.404  0.00  0.00    -0.002 C 
HETATM    6  C   UNK N   1      33.483  16.964   6.682  0.00  0.00    -0.005 C 
HETATM    7  C   UNK N   1      32.488  17.049   5.510  0.00  0.00     0.001 C 
HETATM    8  C   UNK N   1      31.042  17.341   5.902  0.00  0.00     0.008 C 
HETATM    9  C   UNK N   1      30.194  16.704   4.798  0.00  0.00     0.033 C 
HETATM   10  C   UNK N   1      31.172  16.034   3.833  0.00  0.00     0.126 C 
HETATM   11  C   UNK N   1      33.379  18.169   7.615  0.00  0.00     0.009 C 
HETATM   12  C   UNK N   1      34.513  18.159   8.634  0.00  0.00     0.034 C 
HETATM   13  C   UNK N   1      34.619  16.839   9.342  0.00  0.00    -0.077 C 
HETATM   14  C   UNK N   1      35.468  16.735  10.376  0.00  0.00     0.007 C 
HETATM   15  C   UNK N   1      35.590  15.495  11.229  0.00  0.00     0.141 C 
HETATM   16  C   UNK N   1      34.481  14.473  10.970  0.00  0.00     0.036 C 
HETATM   17  C   UNK N   1      34.204  14.343   9.482  0.00  0.00     0.012 C 
HETATM   18  C   UNK N   1      33.716  15.686   8.928  0.00  0.00     0.019 C 
ENDROOT
BRANCH  10  19
HETATM   19  O   UNK N   1      31.475  16.951   2.820  0.00  0.00    -0.395 OA
HETATM   20  H   UNK N   1      32.077  17.712   2.820  0.00  0.00     0.210 HD
ENDBRANCH  10  19
BRANCH  15  21
HETATM   21  O   UNK N   1      36.846  14.918  11.048  0.00  0.00    -0.392 OA
HETATM   22  H   UNK N   1      37.385  14.165  10.757  0.00  0.00     0.210 HD
ENDBRANCH  15  21
TORSDOF 2
ENDMDL
MODEL 7
REMARK VINA RESULT:      -6.4     12.482     15.391
REMARK  2 active torsions:
REMARK  status: ('A' for Active; 'I' for Inactive)
REMARK    1  A    between atoms: C_10  and  O_11 
REMARK    2  A    between atoms: C_16  and  O_20 
ROOT
HETATM    1  C   UNK N   1      33.710   8.479  19.706  0.00  0.00     0.018 C 
HETATM    2  C   UNK N   1      35.168   8.884  19.867  0.00  0.00    -0.014 C 
HETATM    3  C   UNK N   1      35.967   8.308  18.674  0.00  0.00     0.012 C 
HETATM    4  C   UNK N   1      36.526   9.353  17.701  0.00  0.00     0.006 C 
HETATM    5  C   UNK N   1      35.520  10.471  17.422  0.00  0.00    -0.002 C 
HETATM    6  C   UNK N   1      35.051  11.173  18.726  0.00  0.00    -0.005 C 
HETATM    7  C   UNK N   1      35.333  10.391  20.022  0.00  0.00     0.001 C 
HETATM    8  C   UNK N   1      36.742  10.551  20.587  0.00  0.00     0.008 C 
HETATM    9  C   UNK N   1      37.014   9.253  21.352  0.00  0.00     0.033 C 
HETATM   10  C   UNK N   1      35.775   8.376  21.171  0.00  0.00     0.126 C 
HETATM   11  C   UNK N   1      35.455  12.642  18.839  0.00  0.00     0.009 C 
HETATM   12  C   UNK N   1      34.970  13.428  17.627  0.00  0.00     0.034 C 
HETATM   13  C   UNK N   1      35.375  12.774  16.336  0.00  0.00    -0.077 C 
HETATM   14  C   UNK N   1      35.155  13.436  15.189  0.00  0.00     0.007 C 
HETATM   15  C   UNK N   1      35.608  12.930  13.841  0.00  0.00     0.141 C 
HETATM   16  C   UNK N   1      36.560  11.736  13.931  0.00  0.00     0.036 C 
HETATM   17  C   UNK N   1      36.091  10.752  14.989  0.00  0.00     0.012 C 
HETATM   18  C   UNK N   1      36.089  11.431  16.363  0.00  0.00     0.019 C 
ENDROOT
BRANCH  10  19
HETATM   19  O   UNK N   1      34.913   8.617  22.247  0.00  0.00    -0.395 OA
HETATM   20  H   UNK N   1      34.924   8.268  23.152  0.00  0.00     0.210 HD
ENDBRANCH  10  19
BRANCH  15  21
HETATM   21  O   UNK N   1      34.499  12.619  13.055  0.00  0.00    -0.392 OA
HETATM   22  H   UNK N   1      34.087  12.559  12.179  0.00  0.00     0.210 HD
ENDBRANCH  15  21
TORSDOF 2
ENDMDL
MODEL 8
REMARK VINA RESULT:      -6.4      1.272      2.818
REMARK  2 active torsions:
REMARK  status: ('A' for Active; 'I' for Inactive)
REMARK    1  A    between atoms: C_10  and  O_11 
REMARK    2  A    between atoms: C_16  and  O_20 
ROOT
HETATM    1  C   UNK N   1      27.485  15.368   5.462  0.00  0.00     0.018 C 
HETATM    2  C   UNK N   1      27.666  16.867   5.653  0.00  0.00    -0.014 C 
HETATM    3  C   UNK N   1      27.957  17.134   7.149  0.00  0.00     0.012 C 
HETATM    4  C   UNK N   1      29.370  17.646   7.454  0.00  0.00     0.006 C 
HETATM    5  C   UNK N   1      30.434  16.916   6.633  0.00  0.00    -0.002 C 
HETATM    6  C   UNK N   1      30.163  17.017   5.106  0.00  0.00    -0.005 C 
HETATM    7  C   UNK N   1      28.732  17.441   4.727  0.00  0.00     0.001 C 
HETATM    8  C   UNK N   1      28.469  18.944   4.750  0.00  0.00     0.008 C 
HETATM    9  C   UNK N   1      26.975  19.083   5.051  0.00  0.00     0.033 C 
HETATM   10  C   UNK N   1      26.436  17.663   5.231  0.00  0.00     0.126 C 
HETATM   11  C   UNK N   1      31.220  17.791   4.322  0.00  0.00     0.009 C 
HETATM   12  C   UNK N   1      32.606  17.203   4.562  0.00  0.00     0.034 C 
HETATM   13  C   UNK N   1      32.907  17.058   6.026  0.00  0.00    -0.077 C 
HETATM   14  C   UNK N   1      34.149  16.702   6.391  0.00  0.00     0.007 C 
HETATM   15  C   UNK N   1      34.600  16.623   7.829  0.00  0.00     0.141 C 
HETATM   16  C   UNK N   1      33.599  17.233   8.812  0.00  0.00     0.036 C 
HETATM   17  C   UNK N   1      32.177  16.843   8.443  0.00  0.00     0.012 C 
HETATM   18  C   UNK N   1      31.835  17.391   7.054  0.00  0.00     0.019 C 
ENDROOT
BRANCH  10  19
HETATM   19  O   UNK N   1      25.960  17.222   3.990  0.00  0.00    -0.395 OA
HETATM   20  H   UNK N   1      25.062  16.992   3.707  0.00  0.00     0.210 HD
ENDBRANCH  10  19
BRANCH  15  21
HETATM   21  O   UNK N   1      34.879  15.299   8.165  0.00  0.00    -0.392 OA
HETATM   22  H   UNK N   1      34.657  14.357   8.101  0.00  0.00     0.210 HD
ENDBRANCH  15  21
TORSDOF 2
ENDMDL
MODEL 9
REMARK VINA RESULT:      -6.2      2.423      7.288
REMARK  2 active torsions:
REMARK  status: ('A' for Active; 'I' for Inactive)
REMARK    1  A    between atoms: C_10  and  O_11 
REMARK    2  A    between atoms: C_16  and  O_20 
ROOT
HETATM    1  C   UNK N   1      28.104  18.247   8.060  0.00  0.00     0.018 C 
HETATM    2  C   UNK N   1      28.352  17.422   6.806  0.00  0.00    -0.014 C 
HETATM    3  C   UNK N   1      27.242  16.349   6.704  0.00  0.00     0.012 C 
HETATM    4  C   UNK N   1      26.271  16.528   5.531  0.00  0.00     0.006 C 
HETATM    5  C   UNK N   1      25.877  17.993   5.333  0.00  0.00    -0.002 C 
HETATM    6  C   UNK N   1      27.116  18.908   5.127  0.00  0.00    -0.005 C 
HETATM    7  C   UNK N   1      28.459  18.289   5.558  0.00  0.00     0.001 C 
HETATM    8  C   UNK N   1      29.115  17.373   4.528  0.00  0.00     0.008 C 
HETATM    9  C   UNK N   1      29.948  16.385   5.348  0.00  0.00     0.033 C 
HETATM   10  C   UNK N   1      29.715  16.736   6.817  0.00  0.00     0.126 C 
HETATM   11  C   UNK N   1      27.200  19.566   3.752  0.00  0.00     0.009 C 
HETATM   12  C   UNK N   1      25.926  20.348   3.451  0.00  0.00     0.034 C 
HETATM   13  C   UNK N   1      24.694  19.515   3.663  0.00  0.00    -0.077 C 
HETATM   14  C   UNK N   1      23.509  20.020   3.286  0.00  0.00     0.007 C 
HETATM   15  C   UNK N   1      22.217  19.242   3.353  0.00  0.00     0.141 C 
HETATM   16  C   UNK N   1      22.422  17.753   3.639  0.00  0.00     0.036 C 
HETATM   17  C   UNK N   1      23.482  17.552   4.709  0.00  0.00     0.012 C 
HETATM   18  C   UNK N   1      24.824  18.104   4.217  0.00  0.00     0.019 C 
ENDROOT
BRANCH  10  19
HETATM   19  O   UNK N   1      30.717  17.629   7.213  0.00  0.00    -0.395 OA
HETATM   20  H   UNK N   1      31.513  17.927   6.747  0.00  0.00     0.210 HD
ENDBRANCH  10  19
BRANCH  15  21
HETATM   21  O   UNK N   1      21.368  19.816   4.298  0.00  0.00    -0.392 OA
HETATM   22  H   UNK N   1      20.468  20.003   4.607  0.00  0.00     0.210 HD
ENDBRANCH  15  21
TORSDOF 2
ENDMDL
