REMARK  2 active torsions:
REMARK  status: ('A' for Active; 'I' for Inactive)
REMARK    1  A    between atoms: N_1  and  C_2 
REMARK    2  A    between atoms: C_2  and  C_10 
ROOT
HETATM    1  C   UNK N   1       3.606  -0.491   0.104  0.00  0.00     0.186 C 
HETATM    2  C   UNK N   1       3.429  -1.428  -1.120  0.00  0.00     0.047 C 
HETATM    3  C   UNK N   1       3.092  -1.189   1.392  0.00  0.00     0.047 C 
HETATM    4  C   UNK N   1       3.566  -2.898  -0.744  0.00  0.00     0.003 C 
HETATM    5  C   UNK N   1       1.952  -2.170   1.116  0.00  0.00     0.003 C 
HETATM    6  C   UNK N   1       2.422  -3.307   0.195  0.00  0.00     0.000 C 
ENDROOT
BRANCH   1   7
HETATM    7  N   UNK N   1       5.057  -0.221   0.297  0.00  0.00     0.102 N 
HETATM    8  C   UNK N   1       5.727   0.319  -0.883  0.00  0.00     0.274 C 
HETATM    9  C   UNK N   1       6.934   1.066  -0.375  0.00  0.00     0.032 C 
HETATM   10  C   UNK N   1       6.497   1.593   0.970  0.00  0.00     0.032 C 
HETATM   11  C   UNK N   1       5.351   0.695   1.403  0.00  0.00     0.274 C 
ENDBRANCH   1   7
BRANCH   1  12
HETATM   12  C   UNK N   1       2.751   0.756  -0.156  0.00  0.00    -0.020 A 
HETATM   13  C   UNK N   1       1.358   0.617  -0.307  0.00  0.00     0.010 A 
HETATM   14  C   UNK N   1       0.548   1.731  -0.536  0.00  0.00     0.001 A 
HETATM   15  C   UNK N   1       1.117   3.002  -0.623  0.00  0.00     0.000 A 
HETATM   16  C   UNK N   1       2.497   3.158  -0.483  0.00  0.00     0.001 A 
HETATM   17  C   UNK N   1       3.308   2.044  -0.250  0.00  0.00     0.010 A 
ENDBRANCH   1  12
TORSDOF 2
