MODEL 1
REMARK VINA RESULT:      -7.1      0.000      0.000
REMARK  2 active torsions:
REMARK  status: ('A' for Active; 'I' for Inactive)
REMARK    1  A    between atoms: C_5  and  O_22 
REMARK    2  A    between atoms: C_18  and  O_20 
ROOT
HETATM    1  C   UNK N   1      34.123  13.060  15.943  0.00  0.00     0.016 C 
HETATM    2  C   UNK N   1      35.289  12.481  16.735  0.00  0.00    -0.036 C 
HETATM    3  C   UNK N   1      35.661  13.474  17.862  0.00  0.00     0.012 C 
HETATM    4  C   UNK N   1      35.111  13.061  19.229  0.00  0.00     0.032 C 
HETATM    5  C   UNK N   1      35.660  11.685  19.642  0.00  0.00     0.118 C 
HETATM    6  C   UNK N   1      35.744  10.686  18.476  0.00  0.00     0.037 C 
HETATM    7  C   UNK N   1      34.833  11.124  17.330  0.00  0.00    -0.004 C 
HETATM    8  C   UNK N   1      34.675  10.041  16.264  0.00  0.00     0.006 C 
HETATM    9  C   UNK N   1      35.990   9.815  15.528  0.00  0.00     0.006 C 
HETATM   10  C   UNK N   1      36.486  11.095  14.856  0.00  0.00    -0.005 C 
HETATM   11  C   UNK N   1      36.554  12.284  15.849  0.00  0.00    -0.002 C 
HETATM   12  C   UNK N   1      37.047  13.580  15.152  0.00  0.00     0.007 C 
HETATM   13  C   UNK N   1      36.318  13.880  13.823  0.00  0.00     0.013 C 
HETATM   14  C   UNK N   1      36.368  12.654  12.904  0.00  0.00    -0.009 C 
HETATM   15  C   UNK N   1      35.699  11.486  13.605  0.00  0.00     0.001 C 
HETATM   16  C   UNK N   1      35.536  10.435  12.513  0.00  0.00     0.009 C 
HETATM   17  C   UNK N   1      35.426  11.249  11.211  0.00  0.00     0.038 C 
HETATM   18  C   UNK N   1      35.523  12.720  11.627  0.00  0.00     0.062 C 
HETATM   19  C   UNK N   1      36.126  13.582  10.526  0.00  0.00     0.046 C 
HETATM   20  C   UNK N   1      37.839  12.334  12.560  0.00  0.00     0.018 C 
ENDROOT
BRANCH  18  21
HETATM   21  O   UNK N   1      34.234  13.188  11.911  0.00  0.00    -0.389 OA
HETATM   22  H   UNK N   1      33.277  13.168  12.063  0.00  0.00     0.210 HD
ENDBRANCH  18  21
BRANCH   5  23
HETATM   23  O   UNK N   1      34.857  11.155  20.652  0.00  0.00    -0.396 OA
HETATM   24  H   UNK N   1      33.888  11.101  20.627  0.00  0.00     0.210 HD
ENDBRANCH   5  23
TORSDOF 2
ENDMDL
MODEL 2
REMARK VINA RESULT:      -6.9      5.007     10.013
REMARK  2 active torsions:
REMARK  status: ('A' for Active; 'I' for Inactive)
REMARK    1  A    between atoms: C_5  and  O_22 
REMARK    2  A    between atoms: C_18  and  O_20 
ROOT
HETATM    1  C   UNK N   1      31.919  15.104   8.246  0.00  0.00     0.016 C 
HETATM    2  C   UNK N   1      32.686  15.585   7.020  0.00  0.00    -0.036 C 
HETATM    3  C   UNK N   1      32.205  14.780   5.790  0.00  0.00     0.012 C 
HETATM    4  C   UNK N   1      31.213  15.553   4.918  0.00  0.00     0.032 C 
HETATM    5  C   UNK N   1      31.850  16.847   4.387  0.00  0.00     0.118 C 
HETATM    6  C   UNK N   1      32.735  17.561   5.422  0.00  0.00     0.037 C 
HETATM    7  C   UNK N   1      32.387  17.095   6.835  0.00  0.00    -0.004 C 
HETATM    8  C   UNK N   1      33.044  17.958   7.912  0.00  0.00     0.006 C 
HETATM    9  C   UNK N   1      34.556  17.772   7.902  0.00  0.00     0.006 C 
HETATM   10  C   UNK N   1      34.945  16.313   8.138  0.00  0.00    -0.005 C 
HETATM   11  C   UNK N   1      34.218  15.351   7.162  0.00  0.00    -0.002 C 
HETATM   12  C   UNK N   1      34.612  13.873   7.420  0.00  0.00     0.007 C 
HETATM   13  C   UNK N   1      34.540  13.468   8.910  0.00  0.00     0.013 C 
HETATM   14  C   UNK N   1      35.341  14.455   9.766  0.00  0.00    -0.009 C 
HETATM   15  C   UNK N   1      34.764  15.847   9.583  0.00  0.00     0.001 C 
HETATM   16  C   UNK N   1      35.419  16.674  10.682  0.00  0.00     0.009 C 
HETATM   17  C   UNK N   1      35.717  15.659  11.800  0.00  0.00     0.038 C 
HETATM   18  C   UNK N   1      35.211  14.308  11.286  0.00  0.00     0.062 C 
HETATM   19  C   UNK N   1      36.002  13.146  11.868  0.00  0.00     0.046 C 
HETATM   20  C   UNK N   1      36.827  14.405   9.346  0.00  0.00     0.018 C 
ENDROOT
BRANCH  18  21
HETATM   21  O   UNK N   1      33.867  14.168  11.654  0.00  0.00    -0.389 OA
HETATM   22  H   UNK N   1      32.991  14.410  11.993  0.00  0.00     0.210 HD
ENDBRANCH  18  21
BRANCH   5  23
HETATM   23  O   UNK N   1      30.844  17.712   3.959  0.00  0.00    -0.396 OA
HETATM   24  H   UNK N   1      30.477  17.745   3.061  0.00  0.00     0.210 HD
ENDBRANCH   5  23
TORSDOF 2
ENDMDL
MODEL 3
REMARK VINA RESULT:      -6.9     23.900     26.285
REMARK  2 active torsions:
REMARK  status: ('A' for Active; 'I' for Inactive)
REMARK    1  A    between atoms: C_5  and  O_22 
REMARK    2  A    between atoms: C_18  and  O_20 
ROOT
HETATM    1  C   UNK N   1      27.865  23.941  -3.984  0.00  0.00     0.016 C 
HETATM    2  C   UNK N   1      28.444  23.803  -5.387  0.00  0.00    -0.036 C 
HETATM    3  C   UNK N   1      29.903  23.299  -5.270  0.00  0.00     0.012 C 
HETATM    4  C   UNK N   1      30.043  21.801  -5.551  0.00  0.00     0.032 C 
HETATM    5  C   UNK N   1      29.563  21.468  -6.973  0.00  0.00     0.118 C 
HETATM    6  C   UNK N   1      28.306  22.248  -7.392  0.00  0.00     0.037 C 
HETATM    7  C   UNK N   1      27.573  22.782  -6.162  0.00  0.00    -0.004 C 
HETATM    8  C   UNK N   1      26.189  23.332  -6.502  0.00  0.00     0.006 C 
HETATM    9  C   UNK N   1      26.304  24.593  -7.349  0.00  0.00     0.006 C 
HETATM   10  C   UNK N   1      27.102  25.682  -6.632  0.00  0.00    -0.005 C 
HETATM   11  C   UNK N   1      28.479  25.165  -6.139  0.00  0.00    -0.002 C 
HETATM   12  C   UNK N   1      29.273  26.276  -5.402  0.00  0.00     0.007 C 
HETATM   13  C   UNK N   1      28.438  27.028  -4.340  0.00  0.00     0.013 C 
HETATM   14  C   UNK N   1      27.133  27.540  -4.958  0.00  0.00    -0.009 C 
HETATM   15  C   UNK N   1      26.343  26.358  -5.490  0.00  0.00     0.001 C 
HETATM   16  C   UNK N   1      24.966  26.934  -5.797  0.00  0.00     0.009 C 
HETATM   17  C   UNK N   1      24.813  28.108  -4.812  0.00  0.00     0.038 C 
HETATM   18  C   UNK N   1      26.104  28.137  -3.991  0.00  0.00     0.062 C 
HETATM   19  C   UNK N   1      26.442  29.542  -3.514  0.00  0.00     0.046 C 
HETATM   20  C   UNK N   1      27.462  28.547  -6.082  0.00  0.00     0.018 C 
ENDROOT
BRANCH  18  21
HETATM   21  O   UNK N   1      25.940  27.309  -2.873  0.00  0.00    -0.389 OA
HETATM   22  H   UNK N   1      25.573  26.976  -2.040  0.00  0.00     0.210 HD
ENDBRANCH  18  21
BRANCH   5  23
HETATM   23  O   UNK N   1      29.313  20.099  -7.063  0.00  0.00    -0.396 OA
HETATM   24  H   UNK N   1      29.514  19.542  -7.831  0.00  0.00     0.210 HD
ENDBRANCH   5  23
TORSDOF 2
ENDMDL
MODEL 4
REMARK VINA RESULT:      -6.9     21.450     23.948
REMARK  2 active torsions:
REMARK  status: ('A' for Active; 'I' for Inactive)
REMARK    1  A    between atoms: C_5  and  O_22 
REMARK    2  A    between atoms: C_18  and  O_20 
ROOT
HETATM    1  C   UNK N   1      30.043  21.716  -3.226  0.00  0.00     0.016 C 
HETATM    2  C   UNK N   1      31.059  21.993  -4.327  0.00  0.00    -0.036 C 
HETATM    3  C   UNK N   1      32.468  22.062  -3.692  0.00  0.00     0.012 C 
HETATM    4  C   UNK N   1      33.277  20.778  -3.886  0.00  0.00     0.032 C 
HETATM    5  C   UNK N   1      33.471  20.480  -5.382  0.00  0.00     0.118 C 
HETATM    6  C   UNK N   1      32.225  20.780  -6.231  0.00  0.00     0.037 C 
HETATM    7  C   UNK N   1      30.978  20.832  -5.351  0.00  0.00    -0.004 C 
HETATM    8  C   UNK N   1      29.687  20.862  -6.170  0.00  0.00     0.006 C 
HETATM    9  C   UNK N   1      29.566  22.174  -6.934  0.00  0.00     0.006 C 
HETATM   10  C   UNK N   1      29.577  23.378  -5.992  0.00  0.00    -0.005 C 
HETATM   11  C   UNK N   1      30.796  23.355  -5.033  0.00  0.00    -0.002 C 
HETATM   12  C   UNK N   1      30.789  24.575  -4.073  0.00  0.00     0.007 C 
HETATM   13  C   UNK N   1      29.424  24.811  -3.388  0.00  0.00     0.013 C 
HETATM   14  C   UNK N   1      28.309  24.873  -4.438  0.00  0.00    -0.009 C 
HETATM   15  C   UNK N   1      28.280  23.563  -5.204  0.00  0.00     0.001 C 
HETATM   16  C   UNK N   1      26.975  23.614  -5.989  0.00  0.00     0.009 C 
HETATM   17  C   UNK N   1      26.050  24.504  -5.138  0.00  0.00     0.038 C 
HETATM   18  C   UNK N   1      26.871  24.907  -3.909  0.00  0.00     0.062 C 
HETATM   19  C   UNK N   1      26.442  26.259  -3.359  0.00  0.00     0.046 C 
HETATM   20  C   UNK N   1      28.563  26.068  -5.382  0.00  0.00     0.018 C 
ENDROOT
BRANCH  18  21
HETATM   21  O   UNK N   1      26.687  23.937  -2.915  0.00  0.00    -0.389 OA
HETATM   22  H   UNK N   1      26.236  23.405  -2.242  0.00  0.00     0.210 HD
ENDBRANCH  18  21
BRANCH   5  23
HETATM   23  O   UNK N   1      33.831  19.142  -5.540  0.00  0.00    -0.396 OA
HETATM   24  H   UNK N   1      33.255  18.444  -5.890  0.00  0.00     0.210 HD
ENDBRANCH   5  23
TORSDOF 2
ENDMDL
MODEL 5
REMARK VINA RESULT:      -6.7     24.672     26.676
REMARK  2 active torsions:
REMARK  status: ('A' for Active; 'I' for Inactive)
REMARK    1  A    between atoms: C_5  and  O_22 
REMARK    2  A    between atoms: C_18  and  O_20 
ROOT
HETATM    1  C   UNK N   1      25.250  24.801  -5.175  0.00  0.00     0.016 C 
HETATM    2  C   UNK N   1      26.256  25.926  -5.383  0.00  0.00    -0.036 C 
HETATM    3  C   UNK N   1      25.488  27.267  -5.455  0.00  0.00     0.012 C 
HETATM    4  C   UNK N   1      25.545  28.063  -4.149  0.00  0.00     0.032 C 
HETATM    5  C   UNK N   1      27.000  28.396  -3.779  0.00  0.00     0.118 C 
HETATM    6  C   UNK N   1      27.981  27.246  -4.062  0.00  0.00     0.037 C 
HETATM    7  C   UNK N   1      27.231  25.920  -4.177  0.00  0.00    -0.004 C 
HETATM    8  C   UNK N   1      28.174  24.717  -4.194  0.00  0.00     0.006 C 
HETATM    9  C   UNK N   1      29.003  24.701  -5.471  0.00  0.00     0.006 C 
HETATM   10  C   UNK N   1      28.118  24.647  -6.716  0.00  0.00    -0.005 C 
HETATM   11  C   UNK N   1      27.043  25.765  -6.715  0.00  0.00    -0.002 C 
HETATM   12  C   UNK N   1      26.144  25.691  -7.978  0.00  0.00     0.007 C 
HETATM   13  C   UNK N   1      25.608  24.271  -8.269  0.00  0.00     0.013 C 
HETATM   14  C   UNK N   1      26.765  23.266  -8.304  0.00  0.00    -0.009 C 
HETATM   15  C   UNK N   1      27.471  23.283  -6.960  0.00  0.00     0.001 C 
HETATM   16  C   UNK N   1      28.383  22.062  -7.000  0.00  0.00     0.009 C 
HETATM   17  C   UNK N   1      27.668  21.079  -7.944  0.00  0.00     0.038 C 
HETATM   18  C   UNK N   1      26.383  21.784  -8.388  0.00  0.00     0.062 C 
HETATM   19  C   UNK N   1      25.937  21.334  -9.772  0.00  0.00     0.046 C 
HETATM   20  C   UNK N   1      27.730  23.638  -9.450  0.00  0.00     0.018 C 
ENDROOT
BRANCH  18  21
HETATM   21  O   UNK N   1      25.370  21.482  -7.468  0.00  0.00    -0.389 OA
HETATM   22  H   UNK N   1      24.947  21.129  -6.671  0.00  0.00     0.210 HD
ENDBRANCH  18  21
BRANCH   5  23
HETATM   23  O   UNK N   1      27.063  28.739  -2.429  0.00  0.00    -0.396 OA
HETATM   24  H   UNK N   1      26.575  28.298  -1.716  0.00  0.00     0.210 HD
ENDBRANCH   5  23
TORSDOF 2
ENDMDL
MODEL 6
REMARK VINA RESULT:      -6.7     25.402     26.979
REMARK  2 active torsions:
REMARK  status: ('A' for Active; 'I' for Inactive)
REMARK    1  A    between atoms: C_5  and  O_22 
REMARK    2  A    between atoms: C_18  and  O_20 
ROOT
HETATM    1  C   UNK N   1      26.687  26.938  -7.552  0.00  0.00     0.016 C 
HETATM    2  C   UNK N   1      27.080  27.029  -6.082  0.00  0.00    -0.036 C 
HETATM    3  C   UNK N   1      28.096  28.184  -5.915  0.00  0.00     0.012 C 
HETATM    4  C   UNK N   1      27.463  29.464  -5.362  0.00  0.00     0.032 C 
HETATM    5  C   UNK N   1      26.839  29.208  -3.980  0.00  0.00     0.118 C 
HETATM    6  C   UNK N   1      26.127  27.849  -3.873  0.00  0.00     0.037 C 
HETATM    7  C   UNK N   1      25.794  27.310  -5.263  0.00  0.00    -0.004 C 
HETATM    8  C   UNK N   1      24.859  26.102  -5.211  0.00  0.00     0.006 C 
HETATM    9  C   UNK N   1      25.562  24.903  -4.588  0.00  0.00     0.006 C 
HETATM   10  C   UNK N   1      26.817  24.518  -5.371  0.00  0.00    -0.005 C 
HETATM   11  C   UNK N   1      27.767  25.726  -5.580  0.00  0.00    -0.002 C 
HETATM   12  C   UNK N   1      29.030  25.324  -6.387  0.00  0.00     0.007 C 
HETATM   13  C   UNK N   1      28.712  24.515  -7.665  0.00  0.00     0.013 C 
HETATM   14  C   UNK N   1      27.819  23.317  -7.324  0.00  0.00    -0.009 C 
HETATM   15  C   UNK N   1      26.530  23.825  -6.704  0.00  0.00     0.001 C 
HETATM   16  C   UNK N   1      25.614  22.607  -6.688  0.00  0.00     0.009 C 
HETATM   17  C   UNK N   1      26.095  21.750  -7.872  0.00  0.00     0.038 C 
HETATM   18  C   UNK N   1      27.253  22.525  -8.507  0.00  0.00     0.062 C 
HETATM   19  C   UNK N   1      28.259  21.597  -9.173  0.00  0.00     0.046 C 
HETATM   20  C   UNK N   1      28.572  22.377  -6.358  0.00  0.00     0.018 C 
ENDROOT
BRANCH  18  21
HETATM   21  O   UNK N   1      26.730  23.391  -9.476  0.00  0.00    -0.389 OA
HETATM   22  H   UNK N   1      26.323  24.185  -9.856  0.00  0.00     0.210 HD
ENDBRANCH  18  21
BRANCH   5  23
HETATM   23  O   UNK N   1      25.938  30.230  -3.688  0.00  0.00    -0.396 OA
HETATM   24  H   UNK N   1      25.129  30.131  -3.160  0.00  0.00     0.210 HD
ENDBRANCH   5  23
TORSDOF 2
ENDMDL
MODEL 7
REMARK VINA RESULT:      -6.7      8.875     12.466
REMARK  2 active torsions:
REMARK  status: ('A' for Active; 'I' for Inactive)
REMARK    1  A    between atoms: C_5  and  O_22 
REMARK    2  A    between atoms: C_18  and  O_20 
ROOT
HETATM    1  C   UNK N   1      31.699  17.481   5.223  0.00  0.00     0.016 C 
HETATM    2  C   UNK N   1      31.447  16.297   6.149  0.00  0.00    -0.036 C 
HETATM    3  C   UNK N   1      32.109  15.041   5.533  0.00  0.00     0.012 C 
HETATM    4  C   UNK N   1      33.449  14.689   6.183  0.00  0.00     0.032 C 
HETATM    5  C   UNK N   1      33.268  14.413   7.685  0.00  0.00     0.118 C 
HETATM    6  C   UNK N   1      32.271  15.365   8.365  0.00  0.00     0.037 C 
HETATM    7  C   UNK N   1      32.079  16.627   7.526  0.00  0.00    -0.004 C 
HETATM    8  C   UNK N   1      31.311  17.715   8.276  0.00  0.00     0.006 C 
HETATM    9  C   UNK N   1      29.867  17.290   8.509  0.00  0.00     0.006 C 
HETATM   10  C   UNK N   1      29.145  17.001   7.192  0.00  0.00    -0.005 C 
HETATM   11  C   UNK N   1      29.929  15.995   6.309  0.00  0.00    -0.002 C 
HETATM   12  C   UNK N   1      29.193  15.719   4.971  0.00  0.00     0.007 C 
HETATM   13  C   UNK N   1      28.732  17.004   4.246  0.00  0.00     0.013 C 
HETATM   14  C   UNK N   1      27.921  17.888   5.200  0.00  0.00    -0.009 C 
HETATM   15  C   UNK N   1      28.788  18.253   6.391  0.00  0.00     0.001 C 
HETATM   16  C   UNK N   1      28.008  19.352   7.102  0.00  0.00     0.009 C 
HETATM   17  C   UNK N   1      27.193  20.028   5.984  0.00  0.00     0.038 C 
HETATM   18  C   UNK N   1      27.556  19.288   4.694  0.00  0.00     0.062 C 
HETATM   19  C   UNK N   1      26.414  19.308   3.688  0.00  0.00     0.046 C 
HETATM   20  C   UNK N   1      26.651  17.128   5.643  0.00  0.00     0.018 C 
ENDROOT
BRANCH  18  21
HETATM   21  O   UNK N   1      28.671  19.912   4.121  0.00  0.00    -0.389 OA
HETATM   22  H   UNK N   1      29.198  20.414   3.481  0.00  0.00     0.210 HD
ENDBRANCH  18  21
BRANCH   5  23
HETATM   23  O   UNK N   1      34.506  14.503   8.320  0.00  0.00    -0.396 OA
HETATM   24  H   UNK N   1      34.773  13.996   9.103  0.00  0.00     0.210 HD
ENDBRANCH   5  23
TORSDOF 2
ENDMDL
MODEL 8
REMARK VINA RESULT:      -6.6     21.777     26.013
REMARK  2 active torsions:
REMARK  status: ('A' for Active; 'I' for Inactive)
REMARK    1  A    between atoms: C_5  and  O_22 
REMARK    2  A    between atoms: C_18  and  O_20 
ROOT
HETATM    1  C   UNK N   1      29.808  24.249  -6.398  0.00  0.00     0.016 C 
HETATM    2  C   UNK N   1      29.042  23.469  -5.336  0.00  0.00    -0.036 C 
HETATM    3  C   UNK N   1      29.840  22.189  -4.992  0.00  0.00     0.012 C 
HETATM    4  C   UNK N   1      30.634  22.310  -3.689  0.00  0.00     0.032 C 
HETATM    5  C   UNK N   1      29.694  22.587  -2.504  0.00  0.00     0.118 C 
HETATM    6  C   UNK N   1      28.555  23.563  -2.843  0.00  0.00     0.037 C 
HETATM    7  C   UNK N   1      28.902  24.378  -4.088  0.00  0.00    -0.004 C 
HETATM    8  C   UNK N   1      27.933  25.538  -4.313  0.00  0.00     0.006 C 
HETATM    9  C   UNK N   1      26.547  25.018  -4.676  0.00  0.00     0.006 C 
HETATM   10  C   UNK N   1      26.582  24.155  -5.938  0.00  0.00    -0.005 C 
HETATM   11  C   UNK N   1      27.638  23.024  -5.840  0.00  0.00    -0.002 C 
HETATM   12  C   UNK N   1      27.672  22.164  -7.131  0.00  0.00     0.007 C 
HETATM   13  C   UNK N   1      27.732  23.003  -8.428  0.00  0.00     0.013 C 
HETATM   14  C   UNK N   1      26.608  24.044  -8.437  0.00  0.00    -0.009 C 
HETATM   15  C   UNK N   1      26.768  24.951  -7.230  0.00  0.00     0.001 C 
HETATM   16  C   UNK N   1      25.808  26.104  -7.497  0.00  0.00     0.009 C 
HETATM   17  C   UNK N   1      25.725  26.188  -9.032  0.00  0.00     0.038 C 
HETATM   18  C   UNK N   1      26.646  25.084  -9.561  0.00  0.00     0.062 C 
HETATM   19  C   UNK N   1      26.182  24.558 -10.912  0.00  0.00     0.046 C 
HETATM   20  C   UNK N   1      25.243  23.322  -8.418  0.00  0.00     0.018 C 
ENDROOT
BRANCH  18  21
HETATM   21  O   UNK N   1      27.936  25.611  -9.703  0.00  0.00    -0.389 OA
HETATM   22  H   UNK N   1      28.755  25.895 -10.137  0.00  0.00     0.210 HD
ENDBRANCH  18  21
BRANCH   5  23
HETATM   23  O   UNK N   1      30.438  23.092  -1.438  0.00  0.00    -0.396 OA
HETATM   24  H   UNK N   1      30.121  23.177  -0.525  0.00  0.00     0.210 HD
ENDBRANCH   5  23
TORSDOF 2
ENDMDL
MODEL 9
REMARK VINA RESULT:      -6.6      8.061     11.892
REMARK  2 active torsions:
REMARK  status: ('A' for Active; 'I' for Inactive)
REMARK    1  A    between atoms: C_5  and  O_22 
REMARK    2  A    between atoms: C_18  and  O_20 
ROOT
HETATM    1  C   UNK N   1      29.209  15.687   5.769  0.00  0.00     0.016 C 
HETATM    2  C   UNK N   1      29.335  17.198   5.917  0.00  0.00    -0.036 C 
HETATM    3  C   UNK N   1      28.924  17.860   4.580  0.00  0.00     0.012 C 
HETATM    4  C   UNK N   1      27.502  18.426   4.603  0.00  0.00     0.032 C 
HETATM    5  C   UNK N   1      27.362  19.497   5.698  0.00  0.00     0.118 C 
HETATM    6  C   UNK N   1      28.107  19.144   6.996  0.00  0.00     0.037 C 
HETATM    7  C   UNK N   1      28.388  17.644   7.061  0.00  0.00    -0.004 C 
HETATM    8  C   UNK N   1      28.885  17.203   8.437  0.00  0.00     0.006 C 
HETATM    9  C   UNK N   1      30.267  17.776   8.719  0.00  0.00     0.006 C 
HETATM   10  C   UNK N   1      31.285  17.336   7.666  0.00  0.00    -0.005 C 
HETATM   11  C   UNK N   1      30.796  17.634   6.225  0.00  0.00    -0.002 C 
HETATM   12  C   UNK N   1      31.832  17.171   5.166  0.00  0.00     0.007 C 
HETATM   13  C   UNK N   1      32.346  15.732   5.396  0.00  0.00     0.013 C 
HETATM   14  C   UNK N   1      32.855  15.576   6.833  0.00  0.00    -0.009 C 
HETATM   15  C   UNK N   1      31.718  15.875   7.793  0.00  0.00     0.001 C 
HETATM   16  C   UNK N   1      32.235  15.404   9.147  0.00  0.00     0.009 C 
HETATM   17  C   UNK N   1      33.226  14.276   8.808  0.00  0.00     0.038 C 
HETATM   18  C   UNK N   1      33.219  14.156   7.282  0.00  0.00     0.062 C 
HETATM   19  C   UNK N   1      34.552  13.656   6.745  0.00  0.00     0.046 C 
HETATM   20  C   UNK N   1      34.046  16.532   7.060  0.00  0.00     0.018 C 
ENDROOT
BRANCH  18  21
HETATM   21  O   UNK N   1      32.216  13.250   6.912  0.00  0.00    -0.389 OA
HETATM   22  H   UNK N   1      31.672  12.448   6.924  0.00  0.00     0.210 HD
ENDBRANCH  18  21
BRANCH   5  23
HETATM   23  O   UNK N   1      26.009  19.694   5.976  0.00  0.00    -0.396 OA
HETATM   24  H   UNK N   1      25.444  20.364   5.561  0.00  0.00     0.210 HD
ENDBRANCH   5  23
TORSDOF 2
ENDMDL
