MODEL 1
REMARK VINA RESULT:      -7.4      0.000      0.000
REMARK  2 active torsions:
REMARK  status: ('A' for Active; 'I' for Inactive)
REMARK    1  A    between atoms: O_21  and  C_17 
REMARK    2  A    between atoms: C_19  and  O_22 
ROOT
HETATM    1  C   UNK N   1      28.393  23.386  -9.017  0.00  0.00     0.018 C 
HETATM    2  C   UNK N   1      25.233  21.192  -8.468  0.00  0.00     0.046 C 
HETATM    3  C   UNK N   1      28.035  23.542  -4.607  0.00  0.00     0.010 C 
HETATM    4  C   UNK N   1      29.296  23.915  -3.832  0.00  0.00     0.038 C 
HETATM    5  C   UNK N   1      31.449  20.879  -5.120  0.00  0.00     0.017 C 
HETATM    6  C   UNK N   1      32.663  21.097  -4.240  0.00  0.00     0.086 C 
HETATM    7  C   UNK N   1      29.544  21.242  -7.368  0.00  0.00     0.006 C 
HETATM    8  C   UNK N   1      26.202  24.008  -7.132  0.00  0.00     0.009 C 
HETATM    9  C   UNK N   1      28.257  21.035  -8.190  0.00  0.00     0.013 C 
HETATM   10  C   UNK N   1      25.499  23.662  -8.465  0.00  0.00     0.038 C 
HETATM   11  C   UNK N   1      30.610  22.164  -5.258  0.00  0.00     0.022 C 
HETATM   12  C   UNK N   1      29.272  21.823  -5.959  0.00  0.00    -0.002 C 
HETATM   13  C   UNK N   1      28.397  23.109  -6.032  0.00  0.00    -0.005 C 
HETATM   14  C   UNK N   1      30.345  22.833  -3.907  0.00  0.00    -0.038 C 
HETATM   15  C   UNK N   1      27.138  22.831  -6.868  0.00  0.00     0.001 C 
HETATM   16  C   UNK N   1      32.205  21.576  -2.900  0.00  0.00     0.182 C 
HETATM   17  C   UNK N   1      31.070  22.524  -2.808  0.00  0.00     0.114 C 
HETATM   18  C   UNK N   1      27.498  22.362  -8.279  0.00  0.00    -0.009 C 
HETATM   19  C   UNK N   1      26.116  22.341  -8.945  0.00  0.00     0.062 C 
HETATM   20  O   UNK N   1      32.827  21.259  -1.900  0.00  0.00    -0.290 OA
ENDROOT
BRANCH  19  21
HETATM   21  O   UNK N   1      26.201  22.292 -10.340  0.00  0.00    -0.389 OA
HETATM   22  H   UNK N   1      26.644  22.955 -10.891  0.00  0.00     0.210 HD
ENDBRANCH  19  21
BRANCH  17  23
HETATM   23  O   UNK N   1      30.800  23.117  -1.626  0.00  0.00    -0.357 OA
HETATM   24  H   UNK N   1      30.504  24.006  -1.601  0.00  0.00     0.218 HD
ENDBRANCH  17  23
TORSDOF 2
ENDMDL
MODEL 2
REMARK VINA RESULT:      -7.3     16.274     17.634
REMARK  2 active torsions:
REMARK  status: ('A' for Active; 'I' for Inactive)
REMARK    1  A    between atoms: O_21  and  C_17 
REMARK    2  A    between atoms: C_19  and  O_22 
ROOT
HETATM    1  C   UNK N   1      21.349  14.070   4.894  0.00  0.00     0.018 C 
HETATM    2  C   UNK N   1      22.010  17.889   5.180  0.00  0.00     0.046 C 
HETATM    3  C   UNK N   1      24.624  14.121   7.872  0.00  0.00     0.010 C 
HETATM    4  C   UNK N   1      24.764  12.884   8.756  0.00  0.00     0.038 C 
HETATM    5  C   UNK N   1      21.180  13.161  10.367  0.00  0.00     0.017 C 
HETATM    6  C   UNK N   1      21.328  12.055  11.392  0.00  0.00     0.086 C 
HETATM    7  C   UNK N   1      20.746  14.477   7.741  0.00  0.00     0.006 C 
HETATM    8  C   UNK N   1      24.023  15.324   5.018  0.00  0.00     0.009 C 
HETATM    9  C   UNK N   1      20.678  15.631   6.722  0.00  0.00     0.013 C 
HETATM   10  C   UNK N   1      23.253  16.126   3.945  0.00  0.00     0.038 C 
HETATM   11  C   UNK N   1      22.195  13.007   9.217  0.00  0.00     0.022 C 
HETATM   12  C   UNK N   1      22.161  14.282   8.337  0.00  0.00    -0.002 C 
HETATM   13  C   UNK N   1      23.237  14.153   7.220  0.00  0.00    -0.005 C 
HETATM   14  C   UNK N   1      23.616  12.753   9.726  0.00  0.00    -0.038 C 
HETATM   15  C   UNK N   1      23.108  15.330   6.240  0.00  0.00     0.001 C 
HETATM   16  C   UNK N   1      22.728  12.070  11.917  0.00  0.00     0.182 C 
HETATM   17  C   UNK N   1      23.853  12.351  10.996  0.00  0.00     0.114 C 
HETATM   18  C   UNK N   1      21.712  15.387   5.619  0.00  0.00    -0.009 C 
HETATM   19  C   UNK N   1      21.900  16.494   4.571  0.00  0.00     0.062 C 
HETATM   20  O   UNK N   1      22.942  11.758  13.076  0.00  0.00    -0.290 OA
ENDROOT
BRANCH  19  21
HETATM   21  O   UNK N   1      20.878  16.499   3.618  0.00  0.00    -0.389 OA
HETATM   22  H   UNK N   1      19.932  16.427   3.820  0.00  0.00     0.210 HD
ENDBRANCH  19  21
BRANCH  17  23
HETATM   23  O   UNK N   1      25.119  12.153  11.421  0.00  0.00    -0.357 OA
HETATM   24  H   UNK N   1      25.457  12.648  12.142  0.00  0.00     0.218 HD
ENDBRANCH  17  23
TORSDOF 2
ENDMDL
MODEL 3
REMARK VINA RESULT:      -7.1     23.195     26.945
REMARK  2 active torsions:
REMARK  status: ('A' for Active; 'I' for Inactive)
REMARK    1  A    between atoms: O_21  and  C_17 
REMARK    2  A    between atoms: C_19  and  O_22 
ROOT
HETATM    1  C   UNK N   1      37.605  10.732  15.038  0.00  0.00     0.018 C 
HETATM    2  C   UNK N   1      34.761  12.348  12.940  0.00  0.00     0.046 C 
HETATM    3  C   UNK N   1      35.169  12.583  18.237  0.00  0.00     0.010 C 
HETATM    4  C   UNK N   1      35.352  12.024  19.646  0.00  0.00     0.038 C 
HETATM    5  C   UNK N   1      34.228   8.357  18.749  0.00  0.00     0.017 C 
HETATM    6  C   UNK N   1      34.218   7.793  20.154  0.00  0.00     0.086 C 
HETATM    7  C   UNK N   1      35.286   9.301  16.139  0.00  0.00     0.006 C 
HETATM    8  C   UNK N   1      36.482  13.428  15.495  0.00  0.00     0.009 C 
HETATM    9  C   UNK N   1      35.254   9.948  14.742  0.00  0.00     0.013 C 
HETATM   10  C   UNK N   1      36.776  13.367  13.979  0.00  0.00     0.038 C 
HETATM   11  C   UNK N   1      35.105   9.621  18.650  0.00  0.00     0.022 C 
HETATM   12  C   UNK N   1      34.887  10.284  17.268  0.00  0.00    -0.002 C 
HETATM   13  C   UNK N   1      35.718  11.598  17.199  0.00  0.00    -0.005 C 
HETATM   14  C   UNK N   1      34.808  10.622  19.770  0.00  0.00    -0.038 C 
HETATM   15  C   UNK N   1      35.646  12.182  15.780  0.00  0.00     0.001 C 
HETATM   16  C   UNK N   1      33.729   8.850  21.092  0.00  0.00     0.182 C 
HETATM   17  C   UNK N   1      34.135  10.260  20.886  0.00  0.00     0.114 C 
HETATM   18  C   UNK N   1      36.157  11.185  14.740  0.00  0.00    -0.009 C 
HETATM   19  C   UNK N   1      36.160  12.054  13.475  0.00  0.00     0.062 C 
HETATM   20  O   UNK N   1      33.078   8.533  22.073  0.00  0.00    -0.290 OA
ENDROOT
BRANCH  19  21
HETATM   21  O   UNK N   1      36.923  11.491  12.447  0.00  0.00    -0.389 OA
HETATM   22  H   UNK N   1      36.758  10.623  12.046  0.00  0.00     0.210 HD
ENDBRANCH  19  21
BRANCH  17  23
HETATM   23  O   UNK N   1      33.872  11.170  21.847  0.00  0.00    -0.357 OA
HETATM   24  H   UNK N   1      33.871  12.084  21.643  0.00  0.00     0.218 HD
ENDBRANCH  17  23
TORSDOF 2
ENDMDL
MODEL 4
REMARK VINA RESULT:      -7.0      1.682      2.380
REMARK  2 active torsions:
REMARK  status: ('A' for Active; 'I' for Inactive)
REMARK    1  A    between atoms: O_21  and  C_17 
REMARK    2  A    between atoms: C_19  and  O_22 
ROOT
HETATM    1  C   UNK N   1      28.348  25.119  -6.648  0.00  0.00     0.018 C 
HETATM    2  C   UNK N   1      25.337  22.675  -6.400  0.00  0.00     0.046 C 
HETATM    3  C   UNK N   1      29.449  22.817  -3.031  0.00  0.00     0.010 C 
HETATM    4  C   UNK N   1      30.923  22.834  -2.631  0.00  0.00     0.038 C 
HETATM    5  C   UNK N   1      32.240  21.219  -5.974  0.00  0.00     0.017 C 
HETATM    6  C   UNK N   1      33.688  21.045  -5.564  0.00  0.00     0.086 C 
HETATM    7  C   UNK N   1      29.756  22.552  -6.906  0.00  0.00     0.006 C 
HETATM    8  C   UNK N   1      26.954  24.394  -4.144  0.00  0.00     0.009 C 
HETATM    9  C   UNK N   1      28.260  22.697  -7.243  0.00  0.00     0.013 C 
HETATM   10  C   UNK N   1      25.829  24.759  -5.139  0.00  0.00     0.038 C 
HETATM   11  C   UNK N   1      31.530  22.281  -5.112  0.00  0.00     0.022 C 
HETATM   12  C   UNK N   1      30.011  22.244  -5.410  0.00  0.00    -0.002 C 
HETATM   13  C   UNK N   1      29.288  23.267  -4.487  0.00  0.00    -0.005 C 
HETATM   14  C   UNK N   1      31.781  22.078  -3.616  0.00  0.00    -0.038 C 
HETATM   15  C   UNK N   1      27.806  23.364  -4.881  0.00  0.00     0.001 C 
HETATM   16  C   UNK N   1      33.735  20.670  -4.117  0.00  0.00     0.182 C 
HETATM   17  C   UNK N   1      32.789  21.297  -3.166  0.00  0.00     0.114 C 
HETATM   18  C   UNK N   1      27.645  23.775  -6.345  0.00  0.00    -0.009 C 
HETATM   19  C   UNK N   1      26.126  23.981  -6.428  0.00  0.00     0.062 C 
HETATM   20  O   UNK N   1      34.613  19.925  -3.715  0.00  0.00    -0.290 OA
ENDROOT
BRANCH  19  21
HETATM   21  O   UNK N   1      25.751  24.706  -7.564  0.00  0.00    -0.389 OA
HETATM   22  H   UNK N   1      25.950  25.644  -7.712  0.00  0.00     0.210 HD
ENDBRANCH  19  21
BRANCH  17  23
HETATM   23  O   UNK N   1      32.973  21.121  -1.840  0.00  0.00    -0.357 OA
HETATM   24  H   UNK N   1      33.531  20.435  -1.528  0.00  0.00     0.218 HD
ENDBRANCH  17  23
TORSDOF 2
ENDMDL
MODEL 5
REMARK VINA RESULT:      -6.9     23.200     27.450
REMARK  2 active torsions:
REMARK  status: ('A' for Active; 'I' for Inactive)
REMARK    1  A    between atoms: O_21  and  C_17 
REMARK    2  A    between atoms: C_19  and  O_22 
ROOT
HETATM    1  C   UNK N   1      36.764  10.272  20.213  0.00  0.00     0.018 C 
HETATM    2  C   UNK N   1      33.112  10.358  21.537  0.00  0.00     0.046 C 
HETATM    3  C   UNK N   1      34.508   9.670  16.452  0.00  0.00     0.010 C 
HETATM    4  C   UNK N   1      35.244   9.992  15.154  0.00  0.00     0.038 C 
HETATM    5  C   UNK N   1      35.876  13.785  16.009  0.00  0.00     0.017 C 
HETATM    6  C   UNK N   1      36.451  14.206  14.672  0.00  0.00     0.086 C 
HETATM    7  C   UNK N   1      35.739  12.588  18.723  0.00  0.00     0.006 C 
HETATM    8  C   UNK N   1      34.606   8.442  19.357  0.00  0.00     0.009 C 
HETATM    9  C   UNK N   1      35.091  12.115  20.037  0.00  0.00     0.013 C 
HETATM   10  C   UNK N   1      34.550   8.434  20.902  0.00  0.00     0.038 C 
HETATM   11  C   UNK N   1      35.982  12.262  16.218  0.00  0.00     0.022 C 
HETATM   12  C   UNK N   1      35.172  11.865  17.476  0.00  0.00    -0.002 C 
HETATM   13  C   UNK N   1      35.223  10.318  17.643  0.00  0.00    -0.005 C 
HETATM   14  C   UNK N   1      35.492  11.474  15.001  0.00  0.00    -0.038 C 
HETATM   15  C   UNK N   1      34.565   9.920  18.974  0.00  0.00     0.001 C 
HETATM   16  C   UNK N   1      35.730  13.472  13.587  0.00  0.00     0.182 C 
HETATM   17  C   UNK N   1      35.344  12.056  13.790  0.00  0.00     0.114 C 
HETATM   18  C   UNK N   1      35.253  10.597  20.160  0.00  0.00    -0.009 C 
HETATM   19  C   UNK N   1      34.556   9.906  21.339  0.00  0.00     0.062 C 
HETATM   20  O   UNK N   1      35.549  14.013  12.508  0.00  0.00    -0.290 OA
ENDROOT
BRANCH  19  21
HETATM   21  O   UNK N   1      35.249  10.081  22.541  0.00  0.00    -0.389 OA
HETATM   22  H   UNK N   1      35.769  10.867  22.771  0.00  0.00     0.210 HD
ENDBRANCH  19  21
BRANCH  17  23
HETATM   23  O   UNK N   1      34.891  11.339  12.740  0.00  0.00    -0.357 OA
HETATM   24  H   UNK N   1      34.134  10.795  12.832  0.00  0.00     0.218 HD
ENDBRANCH  17  23
TORSDOF 2
ENDMDL
MODEL 6
REMARK VINA RESULT:      -6.8      4.091      5.574
REMARK  2 active torsions:
REMARK  status: ('A' for Active; 'I' for Inactive)
REMARK    1  A    between atoms: O_21  and  C_17 
REMARK    2  A    between atoms: C_19  and  O_22 
ROOT
HETATM    1  C   UNK N   1      26.061  23.575  -9.632  0.00  0.00     0.018 C 
HETATM    2  C   UNK N   1      28.180  20.872  -7.814  0.00  0.00     0.046 C 
HETATM    3  C   UNK N   1      25.379  24.697  -5.405  0.00  0.00     0.010 C 
HETATM    4  C   UNK N   1      24.913  26.127  -5.143  0.00  0.00     0.038 C 
HETATM    5  C   UNK N   1      28.078  27.855  -6.729  0.00  0.00     0.017 C 
HETATM    6  C   UNK N   1      27.754  29.282  -6.337  0.00  0.00     0.086 C 
HETATM    7  C   UNK N   1      27.990  25.297  -8.235  0.00  0.00     0.006 C 
HETATM    8  C   UNK N   1      25.222  22.111  -7.205  0.00  0.00     0.009 C 
HETATM    9  C   UNK N   1      28.297  23.821  -8.550  0.00  0.00     0.013 C 
HETATM   10  C   UNK N   1      25.726  21.021  -8.178  0.00  0.00     0.038 C 
HETATM   11  C   UNK N   1      26.820  26.964  -6.721  0.00  0.00     0.022 C 
HETATM   12  C   UNK N   1      27.245  25.485  -6.891  0.00  0.00    -0.002 C 
HETATM   13  C   UNK N   1      25.979  24.583  -6.811  0.00  0.00    -0.005 C 
HETATM   14  C   UNK N   1      25.995  27.136  -5.444  0.00  0.00    -0.038 C 
HETATM   15  C   UNK N   1      26.357  23.130  -7.140  0.00  0.00     0.001 C 
HETATM   16  C   UNK N   1      27.119  29.275  -4.983  0.00  0.00     0.182 C 
HETATM   17  C   UNK N   1      26.168  28.197  -4.624  0.00  0.00     0.114 C 
HETATM   18  C   UNK N   1      26.991  23.021  -8.528  0.00  0.00    -0.009 C 
HETATM   19  C   UNK N   1      27.094  21.497  -8.686  0.00  0.00     0.062 C 
HETATM   20  O   UNK N   1      27.313  30.207  -4.221  0.00  0.00    -0.290 OA
ENDROOT
BRANCH  19  21
HETATM   21  O   UNK N   1      27.310  21.116 -10.013  0.00  0.00    -0.389 OA
HETATM   22  H   UNK N   1      26.822  20.416 -10.475  0.00  0.00     0.210 HD
ENDBRANCH  19  21
BRANCH  17  23
HETATM   23  O   UNK N   1      25.439  28.311  -3.494  0.00  0.00    -0.357 OA
HETATM   24  H   UNK N   1      25.420  27.610  -2.873  0.00  0.00     0.218 HD
ENDBRANCH  17  23
TORSDOF 2
ENDMDL
MODEL 7
REMARK VINA RESULT:      -6.8     11.350     13.105
REMARK  2 active torsions:
REMARK  status: ('A' for Active; 'I' for Inactive)
REMARK    1  A    between atoms: O_21  and  C_17 
REMARK    2  A    between atoms: C_19  and  O_22 
ROOT
HETATM    1  C   UNK N   1      27.236  14.588   5.200  0.00  0.00     0.018 C 
HETATM    2  C   UNK N   1      25.613  17.585   3.335  0.00  0.00     0.046 C 
HETATM    3  C   UNK N   1      30.842  16.771   3.851  0.00  0.00     0.010 C 
HETATM    4  C   UNK N   1      32.139  16.480   4.602  0.00  0.00     0.038 C 
HETATM    5  C   UNK N   1      30.816  17.667   8.117  0.00  0.00     0.017 C 
HETATM    6  C   UNK N   1      32.124  17.569   8.875  0.00  0.00     0.086 C 
HETATM    7  C   UNK N   1      28.295  16.814   6.800  0.00  0.00     0.006 C 
HETATM    8  C   UNK N   1      28.157  15.674   2.610  0.00  0.00     0.009 C 
HETATM    9  C   UNK N   1      27.011  16.954   5.961  0.00  0.00     0.013 C 
HETATM   10  C   UNK N   1      26.630  15.497   2.451  0.00  0.00     0.038 C 
HETATM   11  C   UNK N   1      30.833  16.802   6.842  0.00  0.00     0.022 C 
HETATM   12  C   UNK N   1      29.579  17.126   5.992  0.00  0.00    -0.002 C 
HETATM   13  C   UNK N   1      29.636  16.303   4.672  0.00  0.00    -0.005 C 
HETATM   14  C   UNK N   1      32.102  17.012   6.014  0.00  0.00    -0.038 C 
HETATM   15  C   UNK N   1      28.325  16.485   3.892  0.00  0.00     0.001 C 
HETATM   16  C   UNK N   1      33.237  17.985   7.968  0.00  0.00     0.182 C 
HETATM   17  C   UNK N   1      33.203  17.596   6.539  0.00  0.00     0.114 C 
HETATM   18  C   UNK N   1      27.117  16.055   4.726  0.00  0.00    -0.009 C 
HETATM   19  C   UNK N   1      25.992  16.149   3.685  0.00  0.00     0.062 C 
HETATM   20  O   UNK N   1      34.210  18.558   8.429  0.00  0.00    -0.290 OA
ENDROOT
BRANCH  19  21
HETATM   21  O   UNK N   1      24.839  15.467   4.088  0.00  0.00    -0.389 OA
HETATM   22  H   UNK N   1      24.827  14.715   4.701  0.00  0.00     0.210 HD
ENDBRANCH  19  21
BRANCH  17  23
HETATM   23  O   UNK N   1      34.302  17.785   5.778  0.00  0.00    -0.357 OA
HETATM   24  H   UNK N   1      34.710  18.628   5.739  0.00  0.00     0.218 HD
ENDBRANCH  17  23
TORSDOF 2
ENDMDL
MODEL 8
REMARK VINA RESULT:      -6.7     12.372     15.902
REMARK  2 active torsions:
REMARK  status: ('A' for Active; 'I' for Inactive)
REMARK    1  A    between atoms: O_21  and  C_17 
REMARK    2  A    between atoms: C_19  and  O_22 
ROOT
HETATM    1  C   UNK N   1      31.112  17.229   5.794  0.00  0.00     0.018 C 
HETATM    2  C   UNK N   1      33.349  16.081   2.832  0.00  0.00     0.046 C 
HETATM    3  C   UNK N   1      32.933  13.574   7.504  0.00  0.00     0.010 C 
HETATM    4  C   UNK N   1      32.931  13.457   9.026  0.00  0.00     0.038 C 
HETATM    5  C   UNK N   1      35.060  16.709   9.661  0.00  0.00     0.017 C 
HETATM    6  C   UNK N   1      35.244  16.549  11.156  0.00  0.00     0.086 C 
HETATM    7  C   UNK N   1      33.754  17.360   7.074  0.00  0.00     0.006 C 
HETATM    8  C   UNK N   1      31.411  14.434   4.878  0.00  0.00     0.009 C 
HETATM    9  C   UNK N   1      33.586  17.435   5.545  0.00  0.00     0.013 C 
HETATM   10  C   UNK N   1      31.135  15.250   3.595  0.00  0.00     0.038 C 
HETATM   11  C   UNK N   1      33.855  15.898   9.147  0.00  0.00     0.022 C 
HETATM   12  C   UNK N   1      33.861  15.906   7.598  0.00  0.00    -0.002 C 
HETATM   13  C   UNK N   1      32.685  15.027   7.083  0.00  0.00    -0.005 C 
HETATM   14  C   UNK N   1      33.858  14.460   9.669  0.00  0.00    -0.038 C 
HETATM   15  C   UNK N   1      32.574  15.155   5.556  0.00  0.00     0.001 C 
HETATM   16  C   UNK N   1      35.415  15.096  11.465  0.00  0.00     0.182 C 
HETATM   17  C   UNK N   1      34.616  14.090  10.727  0.00  0.00     0.114 C 
HETATM   18  C   UNK N   1      32.364  16.609   5.132  0.00  0.00    -0.009 C 
HETATM   19  C   UNK N   1      32.100  16.444   3.629  0.00  0.00     0.062 C 
HETATM   20  O   UNK N   1      36.137  14.755  12.386  0.00  0.00    -0.290 OA
ENDROOT
BRANCH  19  21
HETATM   21  O   UNK N   1      31.524  17.586   3.064  0.00  0.00    -0.389 OA
HETATM   22  H   UNK N   1      31.654  17.876   2.148  0.00  0.00     0.210 HD
ENDBRANCH  19  21
BRANCH  17  23
HETATM   23  O   UNK N   1      34.612  12.809  11.152  0.00  0.00    -0.357 OA
HETATM   24  H   UNK N   1      34.480  12.110  10.542  0.00  0.00     0.218 HD
ENDBRANCH  17  23
TORSDOF 2
ENDMDL
MODEL 9
REMARK VINA RESULT:      -6.7     12.090     14.500
REMARK  2 active torsions:
REMARK  status: ('A' for Active; 'I' for Inactive)
REMARK    1  A    between atoms: O_21  and  C_17 
REMARK    2  A    between atoms: C_19  and  O_22 
ROOT
HETATM    1  C   UNK N   1      29.523  17.108   4.227  0.00  0.00     0.018 C 
HETATM    2  C   UNK N   1      26.558  15.686   6.297  0.00  0.00     0.046 C 
HETATM    3  C   UNK N   1      30.965  17.844   8.347  0.00  0.00     0.010 C 
HETATM    4  C   UNK N   1      32.470  18.039   8.521  0.00  0.00     0.038 C 
HETATM    5  C   UNK N   1      33.476  14.498   7.120  0.00  0.00     0.017 C 
HETATM    6  C   UNK N   1      34.957  14.563   7.434  0.00  0.00     0.086 C 
HETATM    7  C   UNK N   1      30.911  14.980   5.705  0.00  0.00     0.006 C 
HETATM    8  C   UNK N   1      28.371  18.380   6.634  0.00  0.00     0.009 C 
HETATM    9  C   UNK N   1      29.389  14.947   5.467  0.00  0.00     0.013 C 
HETATM   10  C   UNK N   1      27.157  18.033   5.743  0.00  0.00     0.038 C 
HETATM   11  C   UNK N   1      32.845  15.903   7.064  0.00  0.00     0.022 C 
HETATM   12  C   UNK N   1      31.305  15.764   6.981  0.00  0.00    -0.002 C 
HETATM   13  C   UNK N   1      30.668  17.184   6.996  0.00  0.00    -0.005 C 
HETATM   14  C   UNK N   1      33.235  16.763   8.268  0.00  0.00    -0.038 C 
HETATM   15  C   UNK N   1      29.155  17.075   6.749  0.00  0.00     0.001 C 
HETATM   16  C   UNK N   1      35.140  15.278   8.735  0.00  0.00     0.182 C 
HETATM   17  C   UNK N   1      34.284  16.442   9.059  0.00  0.00     0.114 C 
HETATM   18  C   UNK N   1      28.857  16.382   5.419  0.00  0.00    -0.009 C 
HETATM   19  C   UNK N   1      27.336  16.567   5.324  0.00  0.00     0.062 C 
HETATM   20  O   UNK N   1      36.054  14.958   9.477  0.00  0.00    -0.290 OA
ENDROOT
BRANCH  19  21
HETATM   21  O   UNK N   1      26.854  16.340   4.031  0.00  0.00    -0.389 OA
HETATM   22  H   UNK N   1      27.335  16.553   3.216  0.00  0.00     0.210 HD
ENDBRANCH  19  21
BRANCH  17  23
HETATM   23  O   UNK N   1      34.592  17.211  10.126  0.00  0.00    -0.357 OA
HETATM   24  H   UNK N   1      35.454  17.186  10.492  0.00  0.00     0.218 HD
ENDBRANCH  17  23
TORSDOF 2
ENDMDL
