MODEL 1
REMARK VINA RESULT:      -5.4      0.000      0.000
REMARK  1 active torsions:
REMARK  status: ('A' for Active; 'I' for Inactive)
REMARK    1  A    between atoms: C_1  and  C_2 
ROOT
HETATM    1  C   UNK N   1      36.095  11.322  15.326  0.00  0.00     0.187 C 
HETATM    2  C   UNK N   1      35.007  11.482  14.229  0.00  0.00     0.251 C 
HETATM    3  O   UNK N   1      37.282  11.937  14.890  0.00  0.00    -0.377 OA
HETATM    4  N   UNK N   1      35.487  10.908  12.959  0.00  0.00     0.093 N 
HETATM    5  C   UNK N   1      33.729  10.758  14.643  0.00  0.00     0.046 C 
HETATM    6  C   UNK N   1      37.758  11.161  13.825  0.00  0.00     0.199 C 
HETATM    7  C   UNK N   1      36.836  11.377  12.631  0.00  0.00     0.298 C 
HETATM    8  C   UNK N   1      34.623  11.366  11.881  0.00  0.00     0.310 C 
ENDROOT
BRANCH   1   9
HETATM    9  C   UNK N   1      35.750  11.853  16.698  0.00  0.00    -0.027 A 
HETATM   10  C   UNK N   1      35.696  11.023  17.831  0.00  0.00     0.010 A 
HETATM   11  C   UNK N   1      35.379  11.558  19.083  0.00  0.00     0.001 A 
HETATM   12  C   UNK N   1      35.104  12.922  19.213  0.00  0.00     0.000 A 
HETATM   13  C   UNK N   1      35.147  13.752  18.090  0.00  0.00     0.001 A 
HETATM   14  C   UNK N   1      35.473  13.220  16.841  0.00  0.00     0.010 A 
ENDBRANCH   1   9
TORSDOF 1
ENDMDL
MODEL 2
REMARK VINA RESULT:      -5.3      1.861      2.732
REMARK  1 active torsions:
REMARK  status: ('A' for Active; 'I' for Inactive)
REMARK    1  A    between atoms: C_1  and  C_2 
ROOT
HETATM    1  C   UNK N   1      36.130  13.108  14.024  0.00  0.00     0.187 C 
HETATM    2  C   UNK N   1      36.349  11.570  14.032  0.00  0.00     0.251 C 
HETATM    3  O   UNK N   1      34.884  13.394  13.439  0.00  0.00    -0.377 OA
HETATM    4  N   UNK N   1      36.254  11.044  12.658  0.00  0.00     0.093 N 
HETATM    5  C   UNK N   1      37.727  11.235  14.594  0.00  0.00     0.046 C 
HETATM    6  C   UNK N   1      35.003  13.062  12.083  0.00  0.00     0.199 C 
HETATM    7  C   UNK N   1      35.062  11.543  11.969  0.00  0.00     0.298 C 
HETATM    8  C   UNK N   1      36.114   9.597  12.719  0.00  0.00     0.310 C 
ENDROOT
BRANCH   1   9
HETATM    9  C   UNK N   1      36.207  13.805  15.363  0.00  0.00    -0.027 A 
HETATM   10  C   UNK N   1      35.412  13.418  16.456  0.00  0.00     0.010 A 
HETATM   11  C   UNK N   1      35.520  14.087  17.679  0.00  0.00     0.001 A 
HETATM   12  C   UNK N   1      36.414  15.152  17.819  0.00  0.00     0.000 A 
HETATM   13  C   UNK N   1      37.202  15.548  16.734  0.00  0.00     0.001 A 
HETATM   14  C   UNK N   1      37.100  14.874  15.515  0.00  0.00     0.010 A 
ENDBRANCH   1   9
TORSDOF 1
ENDMDL
MODEL 3
REMARK VINA RESULT:      -5.2      8.278     11.640
REMARK  1 active torsions:
REMARK  status: ('A' for Active; 'I' for Inactive)
REMARK    1  A    between atoms: C_1  and  C_2 
ROOT
HETATM    1  C   UNK N   1      33.438  17.090   6.856  0.00  0.00     0.187 C 
HETATM    2  C   UNK N   1      33.439  15.877   7.826  0.00  0.00     0.251 C 
HETATM    3  O   UNK N   1      34.640  17.803   7.008  0.00  0.00    -0.377 OA
HETATM    4  N   UNK N   1      33.628  16.344   9.212  0.00  0.00     0.093 N 
HETATM    5  C   UNK N   1      32.113  15.127   7.736  0.00  0.00     0.046 C 
HETATM    6  C   UNK N   1      34.591  18.387   8.281  0.00  0.00     0.199 C 
HETATM    7  C   UNK N   1      34.748  17.281   9.317  0.00  0.00     0.298 C 
HETATM    8  C   UNK N   1      33.970  15.203  10.048  0.00  0.00     0.310 C 
ENDROOT
BRANCH   1   9
HETATM    9  C   UNK N   1      33.242  16.778   5.390  0.00  0.00    -0.027 A 
HETATM   10  C   UNK N   1      32.381  17.530   4.572  0.00  0.00     0.010 A 
HETATM   11  C   UNK N   1      32.235  17.211   3.219  0.00  0.00     0.001 A 
HETATM   12  C   UNK N   1      32.938  16.134   2.674  0.00  0.00     0.000 A 
HETATM   13  C   UNK N   1      33.790  15.376   3.482  0.00  0.00     0.001 A 
HETATM   14  C   UNK N   1      33.943  15.700   4.832  0.00  0.00     0.010 A 
ENDBRANCH   1   9
TORSDOF 1
ENDMDL
MODEL 4
REMARK VINA RESULT:      -5.1     13.747     15.602
REMARK  1 active torsions:
REMARK  status: ('A' for Active; 'I' for Inactive)
REMARK    1  A    between atoms: C_1  and  C_2 
ROOT
HETATM    1  C   UNK N   1      21.477  12.725   8.391  0.00  0.00     0.187 C 
HETATM    2  C   UNK N   1      21.315  14.204   7.946  0.00  0.00     0.251 C 
HETATM    3  O   UNK N   1      21.931  11.963   7.301  0.00  0.00    -0.377 OA
HETATM    4  N   UNK N   1      20.392  14.284   6.799  0.00  0.00     0.093 N 
HETATM    5  C   UNK N   1      20.752  15.042   9.091  0.00  0.00     0.046 C 
HETATM    6  C   UNK N   1      20.874  11.926   6.382  0.00  0.00     0.199 C 
HETATM    7  C   UNK N   1      20.737  13.311   5.761  0.00  0.00     0.298 C 
HETATM    8  C   UNK N   1      20.519  15.598   6.186  0.00  0.00     0.310 C 
ENDROOT
BRANCH   1   9
HETATM    9  C   UNK N   1      22.389  12.474   9.570  0.00  0.00    -0.027 A 
HETATM   10  C   UNK N   1      21.893  12.162  10.848  0.00  0.00     0.010 A 
HETATM   11  C   UNK N   1      22.773  11.930  11.910  0.00  0.00     0.001 A 
HETATM   12  C   UNK N   1      24.153  12.018  11.708  0.00  0.00     0.000 A 
HETATM   13  C   UNK N   1      24.654  12.336  10.442  0.00  0.00     0.001 A 
HETATM   14  C   UNK N   1      23.775  12.559   9.379  0.00  0.00     0.010 A 
ENDBRANCH   1   9
TORSDOF 1
ENDMDL
MODEL 5
REMARK VINA RESULT:      -5.1      1.523      2.202
REMARK  1 active torsions:
REMARK  status: ('A' for Active; 'I' for Inactive)
REMARK    1  A    between atoms: C_1  and  C_2 
ROOT
HETATM    1  C   UNK N   1      36.091  12.849  14.631  0.00  0.00     0.187 C 
HETATM    2  C   UNK N   1      36.759  11.691  13.840  0.00  0.00     0.251 C 
HETATM    3  O   UNK N   1      34.910  13.235  13.975  0.00  0.00    -0.377 OA
HETATM    4  N   UNK N   1      37.017  12.116  12.452  0.00  0.00     0.093 N 
HETATM    5  C   UNK N   1      38.084  11.302  14.489  0.00  0.00     0.046 C 
HETATM    6  C   UNK N   1      35.307  13.832  12.772  0.00  0.00     0.199 C 
HETATM    7  C   UNK N   1      35.835  12.739  11.851  0.00  0.00     0.298 C 
HETATM    8  C   UNK N   1      37.311  10.939  11.648  0.00  0.00     0.310 C 
ENDROOT
BRANCH   1   9
HETATM    9  C   UNK N   1      35.771  12.574  16.083  0.00  0.00    -0.027 A 
HETATM   10  C   UNK N   1      35.685  11.269  16.598  0.00  0.00     0.010 A 
HETATM   11  C   UNK N   1      35.393  11.060  17.949  0.00  0.00     0.001 A 
HETATM   12  C   UNK N   1      35.173  12.151  18.794  0.00  0.00     0.000 A 
HETATM   13  C   UNK N   1      35.248  13.452  18.288  0.00  0.00     0.001 A 
HETATM   14  C   UNK N   1      35.549  13.660  16.940  0.00  0.00     0.010 A 
ENDBRANCH   1   9
TORSDOF 1
ENDMDL
MODEL 6
REMARK VINA RESULT:      -5.1      1.341      2.484
REMARK  1 active torsions:
REMARK  status: ('A' for Active; 'I' for Inactive)
REMARK    1  A    between atoms: C_1  and  C_2 
ROOT
HETATM    1  C   UNK N   1      34.971  11.874  15.674  0.00  0.00     0.187 C 
HETATM    2  C   UNK N   1      36.211  12.086  14.764  0.00  0.00     0.251 C 
HETATM    3  O   UNK N   1      34.355  10.656  15.337  0.00  0.00    -0.377 OA
HETATM    4  N   UNK N   1      35.805  12.051  13.346  0.00  0.00     0.093 N 
HETATM    5  C   UNK N   1      36.857  13.438  15.056  0.00  0.00     0.046 C 
HETATM    6  C   UNK N   1      33.810  10.833  14.058  0.00  0.00     0.199 C 
HETATM    7  C   UNK N   1      34.957  10.892  13.057  0.00  0.00     0.298 C 
HETATM    8  C   UNK N   1      36.994  11.904  12.521  0.00  0.00     0.310 C 
ENDROOT
BRANCH   1   9
HETATM    9  C   UNK N   1      35.220  11.894  17.165  0.00  0.00    -0.027 A 
HETATM   10  C   UNK N   1      34.990  13.039  17.948  0.00  0.00     0.010 A 
HETATM   11  C   UNK N   1      35.228  13.012  19.325  0.00  0.00     0.001 A 
HETATM   12  C   UNK N   1      35.706  11.847  19.930  0.00  0.00     0.000 A 
HETATM   13  C   UNK N   1      35.944  10.707  19.158  0.00  0.00     0.001 A 
HETATM   14  C   UNK N   1      35.699  10.731  17.783  0.00  0.00     0.010 A 
ENDBRANCH   1   9
TORSDOF 1
ENDMDL
MODEL 7
REMARK VINA RESULT:      -5.1     14.497     16.348
REMARK  1 active torsions:
REMARK  status: ('A' for Active; 'I' for Inactive)
REMARK    1  A    between atoms: C_1  and  C_2 
ROOT
HETATM    1  C   UNK N   1      21.558  14.371   8.212  0.00  0.00     0.187 C 
HETATM    2  C   UNK N   1      20.702  13.709   7.098  0.00  0.00     0.251 C 
HETATM    3  O   UNK N   1      20.917  15.542   8.652  0.00  0.00    -0.377 OA
HETATM    4  N   UNK N   1      20.488  14.665   5.995  0.00  0.00     0.093 N 
HETATM    5  C   UNK N   1      21.411  12.475   6.549  0.00  0.00     0.046 C 
HETATM    6  C   UNK N   1      20.986  16.450   7.587  0.00  0.00     0.199 C 
HETATM    7  C   UNK N   1      20.043  15.969   6.491  0.00  0.00     0.298 C 
HETATM    8  C   UNK N   1      19.420  14.166   5.142  0.00  0.00     0.310 C 
ENDROOT
BRANCH   1   9
HETATM    9  C   UNK N   1      21.877  13.513   9.414  0.00  0.00    -0.027 A 
HETATM   10  C   UNK N   1      23.192  13.145   9.746  0.00  0.00     0.010 A 
HETATM   11  C   UNK N   1      23.442  12.355  10.871  0.00  0.00     0.001 A 
HETATM   12  C   UNK N   1      22.382  11.916  11.669  0.00  0.00     0.000 A 
HETATM   13  C   UNK N   1      21.071  12.271  11.342  0.00  0.00     0.001 A 
HETATM   14  C   UNK N   1      20.821  13.067  10.222  0.00  0.00     0.010 A 
ENDBRANCH   1   9
TORSDOF 1
ENDMDL
MODEL 8
REMARK VINA RESULT:      -5.0      1.426      2.239
REMARK  1 active torsions:
REMARK  status: ('A' for Active; 'I' for Inactive)
REMARK    1  A    between atoms: C_1  and  C_2 
ROOT
HETATM    1  C   UNK N   1      35.081  11.297  15.092  0.00  0.00     0.187 C 
HETATM    2  C   UNK N   1      36.289  10.514  14.509  0.00  0.00     0.251 C 
HETATM    3  O   UNK N   1      33.913  10.532  14.927  0.00  0.00    -0.377 OA
HETATM    4  N   UNK N   1      36.040  10.192  13.092  0.00  0.00     0.093 N 
HETATM    5  C   UNK N   1      37.560  11.353  14.607  0.00  0.00     0.046 C 
HETATM    6  C   UNK N   1      33.660  10.496  13.549  0.00  0.00     0.199 C 
HETATM    7  C   UNK N   1      34.711   9.607  12.897  0.00  0.00     0.298 C 
HETATM    8  C   UNK N   1      36.997   9.181  12.666  0.00  0.00     0.310 C 
ENDROOT
BRANCH   1   9
HETATM    9  C   UNK N   1      35.186  11.714  16.541  0.00  0.00    -0.027 A 
HETATM   10  C   UNK N   1      35.414  10.787  17.573  0.00  0.00     0.010 A 
HETATM   11  C   UNK N   1      35.510  11.217  18.900  0.00  0.00     0.001 A 
HETATM   12  C   UNK N   1      35.370  12.572  19.209  0.00  0.00     0.000 A 
HETATM   13  C   UNK N   1      35.135  13.499  18.190  0.00  0.00     0.001 A 
HETATM   14  C   UNK N   1      35.047  13.071  16.863  0.00  0.00     0.010 A 
ENDBRANCH   1   9
TORSDOF 1
ENDMDL
MODEL 9
REMARK VINA RESULT:      -4.9      7.790     10.414
REMARK  1 active torsions:
REMARK  status: ('A' for Active; 'I' for Inactive)
REMARK    1  A    between atoms: C_1  and  C_2 
ROOT
HETATM    1  C   UNK N   1      32.121  16.297   8.303  0.00  0.00     0.187 C 
HETATM    2  C   UNK N   1      33.276  17.086   8.979  0.00  0.00     0.251 C 
HETATM    3  O   UNK N   1      31.771  15.205   9.116  0.00  0.00    -0.377 OA
HETATM    4  N   UNK N   1      34.423  16.190   9.217  0.00  0.00     0.093 N 
HETATM    5  C   UNK N   1      33.728  18.234   8.081  0.00  0.00     0.046 C 
HETATM    6  C   UNK N   1      32.857  14.320   9.073  0.00  0.00     0.199 C 
HETATM    7  C   UNK N   1      34.006  14.940   9.858  0.00  0.00     0.298 C 
HETATM    8  C   UNK N   1      35.339  16.838  10.144  0.00  0.00     0.310 C 
ENDROOT
BRANCH   1   9
HETATM    9  C   UNK N   1      30.870  17.081   7.980  0.00  0.00    -0.027 A 
HETATM   10  C   UNK N   1      30.209  17.867   8.940  0.00  0.00     0.010 A 
HETATM   11  C   UNK N   1      29.057  18.581   8.597  0.00  0.00     0.001 A 
HETATM   12  C   UNK N   1      28.551  18.509   7.296  0.00  0.00     0.000 A 
HETATM   13  C   UNK N   1      29.197  17.724   6.338  0.00  0.00     0.001 A 
HETATM   14  C   UNK N   1      30.353  17.017   6.679  0.00  0.00     0.010 A 
ENDBRANCH   1   9
TORSDOF 1
ENDMDL
