REMARK  0 active torsions:
REMARK  status: ('A' for Active; 'I' for Inactive)
ROOT
HETATM    1  C   UNK N   1      -3.896  -0.387  -0.800  0.00  0.00     0.079 C 
HETATM    2  C   UNK N   1      -3.896  -1.819  -0.356  0.00  0.00     0.127 C 
HETATM    3  C   UNK N   1      -2.649  -2.633  -0.500  0.00  0.00     0.083 C 
HETATM    4  C   UNK N   1      -1.430  -1.920   0.105  0.00  0.00     0.001 C 
HETATM    5  C   UNK N   1      -1.446  -0.351  -0.099  0.00  0.00    -0.036 C 
HETATM    6  C   UNK N   1      -2.477   0.065  -1.174  0.00  0.00     0.017 C 
HETATM    7  C   UNK N   1      -0.183  -2.570  -0.491  0.00  0.00     0.006 C 
HETATM    8  C   UNK N   1       1.112  -1.989   0.098  0.00  0.00     0.006 C 
HETATM    9  C   UNK N   1       1.071  -0.466   0.341  0.00  0.00    -0.005 C 
HETATM   10  C   UNK N   1      -0.045   0.195  -0.517  0.00  0.00    -0.002 C 
HETATM   11  C   UNK N   1       2.425   0.162  -0.042  0.00  0.00     0.001 C 
HETATM   12  C   UNK N   1       2.428   1.670   0.181  0.00  0.00    -0.014 C 
HETATM   13  C   UNK N   1       1.393   2.321  -0.739  0.00  0.00     0.012 C 
HETATM   14  C   UNK N   1      -0.002   1.744  -0.449  0.00  0.00     0.007 C 
HETATM   15  C   UNK N   1       3.654  -0.295   0.721  0.00  0.00     0.008 C 
HETATM   16  C   UNK N   1       4.661   0.850   0.515  0.00  0.00     0.033 C 
HETATM   17  C   UNK N   1       3.884   2.032  -0.093  0.00  0.00     0.126 C 
HETATM   18  O   UNK N   1      -4.901  -2.315   0.123  0.00  0.00    -0.298 OA
HETATM   19  C   UNK N   1      -1.873   0.291   1.231  0.00  0.00     0.016 C 
HETATM   20  C   UNK N   1       2.122   2.055   1.637  0.00  0.00     0.018 C 
HETATM   21  O   UNK N   1       4.141   2.074  -1.467  0.00  0.00    -0.395 OA
HETATM   22  H   UNK N   1       4.255   1.934  -2.420  0.00  0.00     0.210 HD
ENDROOT
TORSDOF 0
