MODEL 1
REMARK VINA RESULT:      -7.5      0.000      0.000
REMARK  0 active torsions:
REMARK  status: ('A' for Active; 'I' for Inactive)
ROOT
HETATM    1  C   UNK N   1      25.188  28.415  -4.813  0.00  0.00     0.079 C 
HETATM    2  C   UNK N   1      26.013  28.175  -3.584  0.00  0.00     0.127 C 
HETATM    3  C   UNK N   1      26.312  26.771  -3.162  0.00  0.00     0.083 C 
HETATM    4  C   UNK N   1      26.884  25.938  -4.320  0.00  0.00     0.001 C 
HETATM    5  C   UNK N   1      26.244  26.283  -5.726  0.00  0.00    -0.036 C 
HETATM    6  C   UNK N   1      24.941  27.100  -5.565  0.00  0.00     0.017 C 
HETATM    7  C   UNK N   1      26.710  24.467  -3.949  0.00  0.00     0.006 C 
HETATM    8  C   UNK N   1      27.316  23.527  -5.003  0.00  0.00     0.006 C 
HETATM    9  C   UNK N   1      27.108  23.990  -6.460  0.00  0.00    -0.005 C 
HETATM   10  C   UNK N   1      25.926  24.997  -6.551  0.00  0.00    -0.002 C 
HETATM   11  C   UNK N   1      26.792  22.776  -7.355  0.00  0.00     0.001 C 
HETATM   12  C   UNK N   1      26.576  23.189  -8.806  0.00  0.00    -0.014 C 
HETATM   13  C   UNK N   1      25.352  24.103  -8.898  0.00  0.00     0.012 C 
HETATM   14  C   UNK N   1      25.559  25.346  -8.017  0.00  0.00     0.007 C 
HETATM   15  C   UNK N   1      27.845  21.690  -7.465  0.00  0.00     0.008 C 
HETATM   16  C   UNK N   1      27.492  20.969  -8.778  0.00  0.00     0.033 C 
HETATM   17  C   UNK N   1      26.455  21.841  -9.509  0.00  0.00     0.126 C 
HETATM   18  O   UNK N   1      26.440  29.115  -2.936  0.00  0.00    -0.298 OA
HETATM   19  C   UNK N   1      27.249  27.154  -6.498  0.00  0.00     0.016 C 
HETATM   20  C   UNK N   1      27.793  23.914  -9.404  0.00  0.00     0.018 C 
HETATM   21  O   UNK N   1      25.188  21.284  -9.313  0.00  0.00    -0.395 OA
HETATM   22  H   UNK N   1      24.345  20.918  -9.000  0.00  0.00     0.210 HD
ENDROOT
TORSDOF 0
ENDMDL
MODEL 2
REMARK VINA RESULT:      -7.3      1.225      6.423
REMARK  0 active torsions:
REMARK  status: ('A' for Active; 'I' for Inactive)
ROOT
HETATM    1  C   UNK N   1      25.894  21.252  -7.909  0.00  0.00     0.079 C 
HETATM    2  C   UNK N   1      26.132  21.680  -9.326  0.00  0.00     0.127 C 
HETATM    3  C   UNK N   1      25.845  23.094  -9.725  0.00  0.00     0.083 C 
HETATM    4  C   UNK N   1      26.515  24.100  -8.777  0.00  0.00     0.001 C 
HETATM    5  C   UNK N   1      26.535  23.633  -7.265  0.00  0.00    -0.036 C 
HETATM    6  C   UNK N   1      25.554  22.462  -7.027  0.00  0.00     0.017 C 
HETATM    7  C   UNK N   1      25.804  25.439  -8.962  0.00  0.00     0.006 C 
HETATM    8  C   UNK N   1      26.438  26.554  -8.116  0.00  0.00     0.006 C 
HETATM    9  C   UNK N   1      26.894  26.105  -6.712  0.00  0.00    -0.005 C 
HETATM   10  C   UNK N   1      26.164  24.797  -6.293  0.00  0.00    -0.002 C 
HETATM   11  C   UNK N   1      26.571  27.202  -5.680  0.00  0.00     0.001 C 
HETATM   12  C   UNK N   1      27.004  26.798  -4.275  0.00  0.00    -0.014 C 
HETATM   13  C   UNK N   1      26.210  25.566  -3.835  0.00  0.00     0.012 C 
HETATM   14  C   UNK N   1      26.449  24.409  -4.818  0.00  0.00     0.007 C 
HETATM   15  C   UNK N   1      27.232  28.555  -5.861  0.00  0.00     0.008 C 
HETATM   16  C   UNK N   1      27.165  29.187  -4.459  0.00  0.00     0.033 C 
HETATM   17  C   UNK N   1      26.749  28.074  -3.481  0.00  0.00     0.126 C 
HETATM   18  O   UNK N   1      26.561  20.886 -10.146  0.00  0.00    -0.298 OA
HETATM   19  C   UNK N   1      27.952  23.129  -6.948  0.00  0.00     0.016 C 
HETATM   20  C   UNK N   1      28.506  26.488  -4.184  0.00  0.00     0.018 C 
HETATM   21  O   UNK N   1      25.388  28.222  -3.191  0.00  0.00    -0.395 OA
HETATM   22  H   UNK N   1      24.423  28.310  -3.170  0.00  0.00     0.210 HD
ENDROOT
TORSDOF 0
ENDMDL
MODEL 3
REMARK VINA RESULT:      -7.3      3.959      5.385
REMARK  0 active torsions:
REMARK  status: ('A' for Active; 'I' for Inactive)
ROOT
HETATM    1  C   UNK N   1      25.934  24.076  -6.800  0.00  0.00     0.079 C 
HETATM    2  C   UNK N   1      25.592  25.008  -5.677  0.00  0.00     0.127 C 
HETATM    3  C   UNK N   1      26.037  24.677  -4.287  0.00  0.00     0.083 C 
HETATM    4  C   UNK N   1      27.537  24.353  -4.230  0.00  0.00     0.001 C 
HETATM    5  C   UNK N   1      28.065  23.567  -5.498  0.00  0.00    -0.036 C 
HETATM    6  C   UNK N   1      26.896  22.978  -6.321  0.00  0.00     0.017 C 
HETATM    7  C   UNK N   1      27.788  23.592  -2.930  0.00  0.00     0.006 C 
HETATM    8  C   UNK N   1      29.277  23.275  -2.721  0.00  0.00     0.006 C 
HETATM    9  C   UNK N   1      30.028  22.879  -4.009  0.00  0.00    -0.005 C 
HETATM   10  C   UNK N   1      29.028  22.404  -5.102  0.00  0.00    -0.002 C 
HETATM   11  C   UNK N   1      31.013  21.732  -3.710  0.00  0.00     0.001 C 
HETATM   12  C   UNK N   1      31.776  21.307  -4.959  0.00  0.00    -0.014 C 
HETATM   13  C   UNK N   1      30.793  20.751  -5.990  0.00  0.00     0.012 C 
HETATM   14  C   UNK N   1      29.747  21.820  -6.346  0.00  0.00     0.007 C 
HETATM   15  C   UNK N   1      32.122  22.000  -2.710  0.00  0.00     0.008 C 
HETATM   16  C   UNK N   1      33.184  20.939  -3.047  0.00  0.00     0.033 C 
HETATM   17  C   UNK N   1      32.784  20.311  -4.395  0.00  0.00     0.126 C 
HETATM   18  O   UNK N   1      24.962  26.028  -5.894  0.00  0.00    -0.298 OA
HETATM   19  C   UNK N   1      28.810  24.569  -6.395  0.00  0.00     0.016 C 
HETATM   20  C   UNK N   1      32.571  22.461  -5.589  0.00  0.00     0.018 C 
HETATM   21  O   UNK N   1      32.182  19.073  -4.148  0.00  0.00    -0.395 OA
HETATM   22  H   UNK N   1      31.649  18.310  -3.875  0.00  0.00     0.210 HD
ENDROOT
TORSDOF 0
ENDMDL
MODEL 4
REMARK VINA RESULT:      -7.2      3.439      4.929
REMARK  0 active torsions:
REMARK  status: ('A' for Active; 'I' for Inactive)
ROOT
HETATM    1  C   UNK N   1      26.271  27.823  -5.085  0.00  0.00     0.079 C 
HETATM    2  C   UNK N   1      25.214  27.079  -5.843  0.00  0.00     0.127 C 
HETATM    3  C   UNK N   1      25.603  25.908  -6.690  0.00  0.00     0.083 C 
HETATM    4  C   UNK N   1      26.464  24.902  -5.910  0.00  0.00     0.001 C 
HETATM    5  C   UNK N   1      27.465  25.580  -4.888  0.00  0.00    -0.036 C 
HETATM    6  C   UNK N   1      27.619  27.092  -5.173  0.00  0.00     0.017 C 
HETATM    7  C   UNK N   1      27.184  24.030  -6.936  0.00  0.00     0.006 C 
HETATM    8  C   UNK N   1      28.024  22.927  -6.273  0.00  0.00     0.006 C 
HETATM    9  C   UNK N   1      28.749  23.370  -4.985  0.00  0.00    -0.005 C 
HETATM   10  C   UNK N   1      28.878  24.919  -4.935  0.00  0.00    -0.002 C 
HETATM   11  C   UNK N   1      30.162  22.756  -4.942  0.00  0.00     0.001 C 
HETATM   12  C   UNK N   1      30.916  23.170  -3.684  0.00  0.00    -0.014 C 
HETATM   13  C   UNK N   1      31.122  24.687  -3.692  0.00  0.00     0.012 C 
HETATM   14  C   UNK N   1      29.762  25.400  -3.754  0.00  0.00     0.007 C 
HETATM   15  C   UNK N   1      30.272  21.243  -4.919  0.00  0.00     0.008 C 
HETATM   16  C   UNK N   1      31.672  20.985  -4.336  0.00  0.00     0.033 C 
HETATM   17  C   UNK N   1      32.183  22.326  -3.776  0.00  0.00     0.126 C 
HETATM   18  O   UNK N   1      24.046  27.420  -5.768  0.00  0.00    -0.298 OA
HETATM   19  C   UNK N   1      26.871  25.428  -3.478  0.00  0.00     0.016 C 
HETATM   20  C   UNK N   1      30.185  22.767  -2.394  0.00  0.00     0.018 C 
HETATM   21  O   UNK N   1      33.087  22.874  -4.692  0.00  0.00    -0.395 OA
HETATM   22  H   UNK N   1      33.576  23.244  -5.443  0.00  0.00     0.210 HD
ENDROOT
TORSDOF 0
ENDMDL
MODEL 5
REMARK VINA RESULT:      -7.1     16.581     18.979
REMARK  0 active torsions:
REMARK  status: ('A' for Active; 'I' for Inactive)
ROOT
HETATM    1  C   UNK N   1      32.303  17.764   4.169  0.00  0.00     0.079 C 
HETATM    2  C   UNK N   1      32.416  16.607   3.223  0.00  0.00     0.127 C 
HETATM    3  C   UNK N   1      33.555  15.647   3.369  0.00  0.00     0.083 C 
HETATM    4  C   UNK N   1      33.684  15.131   4.810  0.00  0.00     0.001 C 
HETATM    5  C   UNK N   1      33.347  16.220   5.907  0.00  0.00    -0.036 C 
HETATM    6  C   UNK N   1      33.334  17.643   5.301  0.00  0.00     0.017 C 
HETATM    7  C   UNK N   1      35.095  14.567   4.965  0.00  0.00     0.006 C 
HETATM    8  C   UNK N   1      35.322  13.947   6.352  0.00  0.00     0.006 C 
HETATM    9  C   UNK N   1      34.666  14.726   7.511  0.00  0.00    -0.005 C 
HETATM   10  C   UNK N   1      34.370  16.193   7.086  0.00  0.00    -0.002 C 
HETATM   11  C   UNK N   1      35.609  14.747   8.729  0.00  0.00     0.001 C 
HETATM   12  C   UNK N   1      35.000  15.510   9.899  0.00  0.00    -0.014 C 
HETATM   13  C   UNK N   1      34.802  16.975   9.502  0.00  0.00     0.012 C 
HETATM   14  C   UNK N   1      33.884  17.065   8.273  0.00  0.00     0.007 C 
HETATM   15  C   UNK N   1      35.983  13.415   9.352  0.00  0.00     0.008 C 
HETATM   16  C   UNK N   1      36.425  13.788  10.778  0.00  0.00     0.033 C 
HETATM   17  C   UNK N   1      36.010  15.252  11.012  0.00  0.00     0.126 C 
HETATM   18  O   UNK N   1      31.587  16.446   2.345  0.00  0.00    -0.298 OA
HETATM   19  C   UNK N   1      31.937  15.927   6.443  0.00  0.00     0.016 C 
HETATM   20  C   UNK N   1      33.653  14.924  10.353  0.00  0.00     0.018 C 
HETATM   21  O   UNK N   1      37.139  16.064  10.864  0.00  0.00    -0.395 OA
HETATM   22  H   UNK N   1      37.932  16.554  10.596  0.00  0.00     0.210 HD
ENDROOT
TORSDOF 0
ENDMDL
MODEL 6
REMARK VINA RESULT:      -7.1     16.893     19.272
REMARK  0 active torsions:
REMARK  status: ('A' for Active; 'I' for Inactive)
ROOT
HETATM    1  C   UNK N   1      32.107  15.097   3.962  0.00  0.00     0.079 C 
HETATM    2  C   UNK N   1      32.337  16.541   3.632  0.00  0.00     0.127 C 
HETATM    3  C   UNK N   1      32.449  17.540   4.740  0.00  0.00     0.083 C 
HETATM    4  C   UNK N   1      33.467  17.100   5.803  0.00  0.00     0.001 C 
HETATM    5  C   UNK N   1      33.478  15.540   6.065  0.00  0.00    -0.036 C 
HETATM    6  C   UNK N   1      32.218  14.863   5.476  0.00  0.00     0.017 C 
HETATM    7  C   UNK N   1      33.171  17.899   7.071  0.00  0.00     0.006 C 
HETATM    8  C   UNK N   1      34.178  17.600   8.193  0.00  0.00     0.006 C 
HETATM    9  C   UNK N   1      34.600  16.119   8.289  0.00  0.00    -0.005 C 
HETATM   10  C   UNK N   1      33.555  15.206   7.587  0.00  0.00    -0.002 C 
HETATM   11  C   UNK N   1      34.707  15.700   9.768  0.00  0.00     0.001 C 
HETATM   12  C   UNK N   1      35.121  14.240   9.909  0.00  0.00    -0.014 C 
HETATM   13  C   UNK N   1      34.039  13.345   9.302  0.00  0.00     0.012 C 
HETATM   14  C   UNK N   1      33.838  13.699   7.819  0.00  0.00     0.007 C 
HETATM   15  C   UNK N   1      35.722  16.424  10.633  0.00  0.00     0.008 C 
HETATM   16  C   UNK N   1      35.967  15.454  11.802  0.00  0.00     0.033 C 
HETATM   17  C   UNK N   1      35.326  14.109  11.415  0.00  0.00     0.126 C 
HETATM   18  O   UNK N   1      32.438  16.899   2.471  0.00  0.00    -0.298 OA
HETATM   19  C   UNK N   1      34.703  14.952   5.346  0.00  0.00     0.016 C 
HETATM   20  C   UNK N   1      36.466  13.936   9.232  0.00  0.00     0.018 C 
HETATM   21  O   UNK N   1      34.101  13.992  12.080  0.00  0.00    -0.395 OA
HETATM   22  H   UNK N   1      33.210  14.067  12.458  0.00  0.00     0.210 HD
ENDROOT
TORSDOF 0
ENDMDL
MODEL 7
REMARK VINA RESULT:      -7.1     24.731     26.881
REMARK  0 active torsions:
REMARK  status: ('A' for Active; 'I' for Inactive)
ROOT
HETATM    1  C   UNK N   1      35.961   9.180  17.745  0.00  0.00     0.079 C 
HETATM    2  C   UNK N   1      35.161  10.140  18.573  0.00  0.00     0.127 C 
HETATM    3  C   UNK N   1      35.312  11.611  18.343  0.00  0.00     0.083 C 
HETATM    4  C   UNK N   1      35.155  11.976  16.859  0.00  0.00     0.001 C 
HETATM    5  C   UNK N   1      35.762  10.897  15.873  0.00  0.00    -0.036 C 
HETATM    6  C   UNK N   1      36.698   9.918  16.618  0.00  0.00     0.017 C 
HETATM    7  C   UNK N   1      35.778  13.356  16.664  0.00  0.00     0.006 C 
HETATM    8  C   UNK N   1      35.615  13.868  15.224  0.00  0.00     0.006 C 
HETATM    9  C   UNK N   1      35.782  12.780  14.142  0.00  0.00    -0.005 C 
HETATM   10  C   UNK N   1      36.562  11.560  14.708  0.00  0.00    -0.002 C 
HETATM   11  C   UNK N   1      36.562  13.351  12.942  0.00  0.00     0.001 C 
HETATM   12  C   UNK N   1      36.753  12.307  11.848  0.00  0.00    -0.014 C 
HETATM   13  C   UNK N   1      37.604  11.156  12.387  0.00  0.00     0.012 C 
HETATM   14  C   UNK N   1      36.917  10.525  13.609  0.00  0.00     0.007 C 
HETATM   15  C   UNK N   1      35.947  14.518  12.193  0.00  0.00     0.008 C 
HETATM   16  C   UNK N   1      36.633  14.473  10.816  0.00  0.00     0.033 C 
HETATM   17  C   UNK N   1      37.378  13.129  10.725  0.00  0.00     0.126 C 
HETATM   18  O   UNK N   1      34.389   9.727  19.421  0.00  0.00    -0.298 OA
HETATM   19  C   UNK N   1      34.595  10.080  15.295  0.00  0.00     0.016 C 
HETATM   20  C   UNK N   1      35.421  11.747  11.324  0.00  0.00     0.018 C 
HETATM   21  O   UNK N   1      38.737  13.356  10.966  0.00  0.00    -0.395 OA
HETATM   22  H   UNK N   1      39.622  13.582  11.291  0.00  0.00     0.210 HD
ENDROOT
TORSDOF 0
ENDMDL
MODEL 8
REMARK VINA RESULT:      -7.1      4.752      7.306
REMARK  0 active torsions:
REMARK  status: ('A' for Active; 'I' for Inactive)
ROOT
HETATM    1  C   UNK N   1      33.829  20.938  -2.903  0.00  0.00     0.079 C 
HETATM    2  C   UNK N   1      34.099  20.086  -4.106  0.00  0.00     0.127 C 
HETATM    3  C   UNK N   1      32.956  19.636  -4.959  0.00  0.00     0.083 C 
HETATM    4  C   UNK N   1      32.052  20.809  -5.367  0.00  0.00     0.001 C 
HETATM    5  C   UNK N   1      31.887  21.906  -4.238  0.00  0.00    -0.036 C 
HETATM    6  C   UNK N   1      32.357  21.373  -2.865  0.00  0.00     0.017 C 
HETATM    7  C   UNK N   1      30.712  20.219  -5.803  0.00  0.00     0.006 C 
HETATM    8  C   UNK N   1      29.741  21.296  -6.310  0.00  0.00     0.006 C 
HETATM    9  C   UNK N   1      29.785  22.616  -5.511  0.00  0.00    -0.005 C 
HETATM   10  C   UNK N   1      30.407  22.384  -4.105  0.00  0.00    -0.002 C 
HETATM   11  C   UNK N   1      28.357  23.169  -5.334  0.00  0.00     0.001 C 
HETATM   12  C   UNK N   1      28.354  24.474  -4.547  0.00  0.00    -0.014 C 
HETATM   13  C   UNK N   1      28.878  24.215  -3.133  0.00  0.00     0.012 C 
HETATM   14  C   UNK N   1      30.301  23.638  -3.199  0.00  0.00     0.007 C 
HETATM   15  C   UNK N   1      27.581  23.527  -6.587  0.00  0.00     0.008 C 
HETATM   16  C   UNK N   1      26.510  24.512  -6.086  0.00  0.00     0.033 C 
HETATM   17  C   UNK N   1      26.895  24.906  -4.649  0.00  0.00     0.126 C 
HETATM   18  O   UNK N   1      35.241  19.768  -4.392  0.00  0.00    -0.298 OA
HETATM   19  C   UNK N   1      32.782  23.099  -4.609  0.00  0.00     0.016 C 
HETATM   20  C   UNK N   1      29.207  25.568  -5.209  0.00  0.00     0.018 C 
HETATM   21  O   UNK N   1      26.094  24.183  -3.759  0.00  0.00    -0.395 OA
HETATM   22  H   UNK N   1      25.607  23.535  -3.226  0.00  0.00     0.210 HD
ENDROOT
TORSDOF 0
ENDMDL
MODEL 9
REMARK VINA RESULT:      -6.9     26.170     28.519
REMARK  0 active torsions:
REMARK  status: ('A' for Active; 'I' for Inactive)
ROOT
HETATM    1  C   UNK N   1      36.674  11.234  12.014  0.00  0.00     0.079 C 
HETATM    2  C   UNK N   1      36.973  12.702  12.074  0.00  0.00     0.127 C 
HETATM    3  C   UNK N   1      36.317  13.543  13.123  0.00  0.00     0.083 C 
HETATM    4  C   UNK N   1      36.485  12.939  14.525  0.00  0.00     0.001 C 
HETATM    5  C   UNK N   1      36.425  11.358  14.547  0.00  0.00    -0.036 C 
HETATM    6  C   UNK N   1      35.840  10.800  13.228  0.00  0.00     0.017 C 
HETATM    7  C   UNK N   1      35.423  13.573  15.422  0.00  0.00     0.006 C 
HETATM    8  C   UNK N   1      35.538  13.101  16.880  0.00  0.00     0.006 C 
HETATM    9  C   UNK N   1      35.897  11.609  17.037  0.00  0.00    -0.005 C 
HETATM   10  C   UNK N   1      35.565  10.826  15.735  0.00  0.00    -0.002 C 
HETATM   11  C   UNK N   1      35.093  10.997  18.200  0.00  0.00     0.001 C 
HETATM   12  C   UNK N   1      35.417   9.519  18.390  0.00  0.00    -0.014 C 
HETATM   13  C   UNK N   1      34.996   8.743  17.141  0.00  0.00     0.012 C 
HETATM   14  C   UNK N   1      35.733   9.294  15.909  0.00  0.00     0.007 C 
HETATM   15  C   UNK N   1      35.312  11.572  19.587  0.00  0.00     0.008 C 
HETATM   16  C   UNK N   1      34.841  10.450  20.529  0.00  0.00     0.033 C 
HETATM   17  C   UNK N   1      34.656   9.186  19.669  0.00  0.00     0.126 C 
HETATM   18  O   UNK N   1      37.748  13.205  11.279  0.00  0.00    -0.298 OA
HETATM   19  C   UNK N   1      37.864  10.835  14.678  0.00  0.00     0.016 C 
HETATM   20  C   UNK N   1      36.909   9.269  18.662  0.00  0.00     0.018 C 
HETATM   21  O   UNK N   1      33.291   9.018  19.412  0.00  0.00    -0.395 OA
HETATM   22  H   UNK N   1      32.355   9.067  19.162  0.00  0.00     0.210 HD
ENDROOT
TORSDOF 0
ENDMDL
