MODEL 1
REMARK VINA RESULT:      -7.1      0.000      0.000
REMARK  1 active torsions:
REMARK  status: ('A' for Active; 'I' for Inactive)
REMARK    1  A    between atoms: N_2  and  C_5 
ROOT
HETATM    1  O   UNK N   1      34.463  12.079  13.900  0.00  0.00    -0.267 OA
HETATM    2  N   UNK N   1      35.893  13.509  15.023  0.00  0.00    -0.267 N 
HETATM    3  N   UNK N   1      36.717  15.296  13.633  0.00  0.00    -0.345 N 
ATOM      4  HN  UNK N   1      37.296  16.131  13.549  1.00  0.00     0.167 HD
HETATM    5  C   UNK N   1      36.671  14.667  14.831  0.00  0.00     0.087 A 
HETATM    6  C   UNK N   1      35.252  13.754  12.646  0.00  0.00     0.059 A 
HETATM    7  C   UNK N   1      35.174  13.068  13.871  0.00  0.00     0.266 A 
HETATM    8  C   UNK N   1      36.045  14.884  12.557  0.00  0.00     0.049 A 
HETATM    9  C   UNK N   1      34.545  13.322  11.507  0.00  0.00     0.019 A 
HETATM   10  C   UNK N   1      37.501  15.331  15.837  0.00  0.00     0.089 C 
HETATM   11  C   UNK N   1      36.152  15.596  11.359  0.00  0.00     0.030 A 
HETATM   12  C   UNK N   1      34.647  14.030  10.304  0.00  0.00     0.001 A 
HETATM   13  C   UNK N   1      35.452  15.169  10.231  0.00  0.00     0.002 A 
ENDROOT
BRANCH   2  14
HETATM   14  C   UNK N   1      35.755  12.711  16.314  0.00  0.00     0.050 A 
HETATM   15  C   UNK N   1      36.154  11.331  16.598  0.00  0.00    -0.035 A 
HETATM   16  C   UNK N   1      35.936  10.779  17.867  0.00  0.00     0.009 A 
HETATM   17  C   UNK N   1      36.794  10.345  15.710  0.00  0.00     0.050 C 
HETATM   18  C   UNK N   1      35.348  11.489  18.895  0.00  0.00     0.001 A 
HETATM   19  C   UNK N   1      34.958  12.790  18.673  0.00  0.00     0.002 A 
HETATM   20  C   UNK N   1      35.160  13.368  17.424  0.00  0.00     0.031 A 
ENDBRANCH   2  14
TORSDOF 1
ENDMDL
MODEL 2
REMARK VINA RESULT:      -7.0      1.419      2.405
REMARK  1 active torsions:
REMARK  status: ('A' for Active; 'I' for Inactive)
REMARK    1  A    between atoms: N_2  and  C_5 
ROOT
HETATM    1  O   UNK N   1      36.527  14.431  14.875  0.00  0.00    -0.267 OA
HETATM    2  N   UNK N   1      35.212  12.534  14.726  0.00  0.00    -0.267 N 
HETATM    3  N   UNK N   1      34.376  12.142  12.502  0.00  0.00    -0.345 N 
ATOM      4  HN  UNK N   1      33.822  11.559  11.875  1.00  0.00     0.167 HD
HETATM    5  C   UNK N   1      34.466  11.778  13.802  0.00  0.00     0.087 A 
HETATM    6  C   UNK N   1      35.729  14.029  12.825  0.00  0.00     0.059 A 
HETATM    7  C   UNK N   1      35.850  13.690  14.184  0.00  0.00     0.266 A 
HETATM    8  C   UNK N   1      34.972  13.222  11.994  0.00  0.00     0.049 A 
HETATM    9  C   UNK N   1      36.357  15.169  12.286  0.00  0.00     0.019 A 
HETATM   10  C   UNK N   1      33.716  10.554  14.087  0.00  0.00     0.089 C 
HETATM   11  C   UNK N   1      34.825  13.523  10.637  0.00  0.00     0.030 A 
HETATM   12  C   UNK N   1      36.214  15.477  10.927  0.00  0.00     0.001 A 
HETATM   13  C   UNK N   1      35.446  14.651  10.103  0.00  0.00     0.002 A 
ENDROOT
BRANCH   2  14
HETATM   14  C   UNK N   1      35.392  12.234  16.210  0.00  0.00     0.050 A 
HETATM   15  C   UNK N   1      36.002  11.068  16.853  0.00  0.00    -0.035 A 
HETATM   16  C   UNK N   1      36.069  10.986  18.250  0.00  0.00     0.009 A 
HETATM   17  C   UNK N   1      36.604   9.874  16.237  0.00  0.00     0.050 C 
HETATM   18  C   UNK N   1      35.575  11.976  19.077  0.00  0.00     0.001 A 
HETATM   19  C   UNK N   1      34.994  13.090  18.515  0.00  0.00     0.002 A 
HETATM   20  C   UNK N   1      34.912  13.202  17.132  0.00  0.00     0.031 A 
ENDBRANCH   2  14
TORSDOF 1
ENDMDL
MODEL 3
REMARK VINA RESULT:      -6.7     10.579     14.366
REMARK  1 active torsions:
REMARK  status: ('A' for Active; 'I' for Inactive)
REMARK    1  A    between atoms: N_2  and  C_5 
ROOT
HETATM    1  O   UNK N   1      27.202  19.790   6.925  0.00  0.00    -0.267 OA
HETATM    2  N   UNK N   1      27.514  18.389   5.111  0.00  0.00    -0.267 N 
HETATM    3  N   UNK N   1      29.305  16.812   5.439  0.00  0.00    -0.345 N 
ATOM      4  HN  UNK N   1      29.858  16.040   5.067  1.00  0.00     0.167 HD
HETATM    5  C   UNK N   1      28.319  17.323   4.665  0.00  0.00     0.087 A 
HETATM    6  C   UNK N   1      28.857  18.308   7.187  0.00  0.00     0.059 A 
HETATM    7  C   UNK N   1      27.822  18.871   6.419  0.00  0.00     0.266 A 
HETATM    8  C   UNK N   1      29.593  17.262   6.661  0.00  0.00     0.049 A 
HETATM    9  C   UNK N   1      29.163  18.780   8.478  0.00  0.00     0.019 A 
HETATM   10  C   UNK N   1      28.221  16.644   3.373  0.00  0.00     0.089 C 
HETATM   11  C   UNK N   1      30.630  16.673   7.390  0.00  0.00     0.030 A 
HETATM   12  C   UNK N   1      30.201  18.195   9.215  0.00  0.00     0.001 A 
HETATM   13  C   UNK N   1      30.934  17.140   8.668  0.00  0.00     0.002 A 
ENDROOT
BRANCH   2  14
HETATM   14  C   UNK N   1      26.378  19.053   4.342  0.00  0.00     0.050 A 
HETATM   15  C   UNK N   1      24.951  18.725   4.330  0.00  0.00    -0.035 A 
HETATM   16  C   UNK N   1      24.061  19.469   3.543  0.00  0.00     0.009 A 
HETATM   17  C   UNK N   1      24.232  17.666   5.059  0.00  0.00     0.050 C 
HETATM   18  C   UNK N   1      24.472  20.526   2.756  0.00  0.00     0.001 A 
HETATM   19  C   UNK N   1      25.804  20.869   2.736  0.00  0.00     0.002 A 
HETATM   20  C   UNK N   1      26.713  20.152   3.505  0.00  0.00     0.031 A 
ENDBRANCH   2  14
TORSDOF 1
ENDMDL
MODEL 4
REMARK VINA RESULT:      -6.6      8.880     11.911
REMARK  1 active torsions:
REMARK  status: ('A' for Active; 'I' for Inactive)
REMARK    1  A    between atoms: N_2  and  C_5 
ROOT
HETATM    1  O   UNK N   1      30.249  16.879   4.889  0.00  0.00    -0.267 OA
HETATM    2  N   UNK N   1      29.187  17.438   6.865  0.00  0.00    -0.267 N 
HETATM    3  N   UNK N   1      30.723  17.885   8.665  0.00  0.00    -0.345 N 
ATOM      4  HN  UNK N   1      30.861  18.144   9.642  1.00  0.00     0.167 HD
HETATM    5  C   UNK N   1      29.455  17.791   8.202  0.00  0.00     0.087 A 
HETATM    6  C   UNK N   1      31.641  17.303   6.588  0.00  0.00     0.059 A 
HETATM    7  C   UNK N   1      30.341  17.193   6.063  0.00  0.00     0.266 A 
HETATM    8  C   UNK N   1      31.802  17.656   7.915  0.00  0.00     0.049 A 
HETATM    9  C   UNK N   1      32.783  17.062   5.799  0.00  0.00     0.019 A 
HETATM   10  C   UNK N   1      28.464  18.094   9.235  0.00  0.00     0.089 C 
HETATM   11  C   UNK N   1      33.076  17.776   8.478  0.00  0.00     0.030 A 
HETATM   12  C   UNK N   1      34.062  17.180   6.356  0.00  0.00     0.001 A 
HETATM   13  C   UNK N   1      34.207  17.538   7.699  0.00  0.00     0.002 A 
ENDROOT
BRANCH   2  14
HETATM   14  C   UNK N   1      27.812  17.299   6.221  0.00  0.00     0.050 A 
HETATM   15  C   UNK N   1      27.102  18.228   5.340  0.00  0.00    -0.035 A 
HETATM   16  C   UNK N   1      25.829  17.906   4.850  0.00  0.00     0.009 A 
HETATM   17  C   UNK N   1      27.527  19.546   4.840  0.00  0.00     0.050 C 
HETATM   18  C   UNK N   1      25.191  16.722   5.165  0.00  0.00     0.001 A 
HETATM   19  C   UNK N   1      25.821  15.819   5.990  0.00  0.00     0.002 A 
HETATM   20  C   UNK N   1      27.084  16.108   6.493  0.00  0.00     0.031 A 
ENDBRANCH   2  14
TORSDOF 1
ENDMDL
MODEL 5
REMARK VINA RESULT:      -6.6     10.582     13.588
REMARK  1 active torsions:
REMARK  status: ('A' for Active; 'I' for Inactive)
REMARK    1  A    between atoms: N_2  and  C_5 
ROOT
HETATM    1  O   UNK N   1      28.191  19.841   4.942  0.00  0.00    -0.267 OA
HETATM    2  N   UNK N   1      27.607  17.819   5.901  0.00  0.00    -0.267 N 
HETATM    3  N   UNK N   1      25.334  17.177   5.431  0.00  0.00    -0.345 N 
ATOM      4  HN  UNK N   1      24.584  16.496   5.549  1.00  0.00     0.167 HD
HETATM    5  C   UNK N   1      26.526  16.925   6.020  0.00  0.00     0.087 A 
HETATM    6  C   UNK N   1      26.086  19.207   4.530  0.00  0.00     0.059 A 
HETATM    7  C   UNK N   1      27.342  18.986   5.124  0.00  0.00     0.266 A 
HETATM    8  C   UNK N   1      25.085  18.268   4.705  0.00  0.00     0.049 A 
HETATM    9  C   UNK N   1      25.820  20.357   3.763  0.00  0.00     0.019 A 
HETATM   10  C   UNK N   1      26.524  15.659   6.755  0.00  0.00     0.089 C 
HETATM   11  C   UNK N   1      23.823  18.447   4.133  0.00  0.00     0.030 A 
HETATM   12  C   UNK N   1      24.558  20.544   3.186  0.00  0.00     0.001 A 
HETATM   13  C   UNK N   1      23.558  19.586   3.372  0.00  0.00     0.002 A 
ENDROOT
BRANCH   2  14
HETATM   14  C   UNK N   1      28.994  17.654   6.512  0.00  0.00     0.050 A 
HETATM   15  C   UNK N   1      29.445  17.928   7.878  0.00  0.00    -0.035 A 
HETATM   16  C   UNK N   1      30.780  17.705   8.240  0.00  0.00     0.009 A 
HETATM   17  C   UNK N   1      28.677  18.437   9.027  0.00  0.00     0.050 C 
HETATM   18  C   UNK N   1      31.721  17.226   7.350  0.00  0.00     0.001 A 
HETATM   19  C   UNK N   1      31.341  16.955   6.055  0.00  0.00     0.002 A 
HETATM   20  C   UNK N   1      30.024  17.165   5.663  0.00  0.00     0.031 A 
ENDBRANCH   2  14
TORSDOF 1
ENDMDL
MODEL 6
REMARK VINA RESULT:      -6.6     24.146     25.546
REMARK  1 active torsions:
REMARK  status: ('A' for Active; 'I' for Inactive)
REMARK    1  A    between atoms: N_2  and  C_5 
ROOT
HETATM    1  O   UNK N   1      25.217  24.778  -6.530  0.00  0.00    -0.267 OA
HETATM    2  N   UNK N   1      27.377  25.156  -5.793  0.00  0.00    -0.267 N 
HETATM    3  N   UNK N   1      28.895  23.381  -6.379  0.00  0.00    -0.345 N 
ATOM      4  HN  UNK N   1      29.843  23.006  -6.348  1.00  0.00     0.167 HD
HETATM    5  C   UNK N   1      28.660  24.577  -5.790  0.00  0.00     0.087 A 
HETATM    6  C   UNK N   1      26.661  23.152  -7.053  0.00  0.00     0.059 A 
HETATM    7  C   UNK N   1      26.371  24.391  -6.455  0.00  0.00     0.266 A 
HETATM    8  C   UNK N   1      27.954  22.665  -6.998  0.00  0.00     0.049 A 
HETATM    9  C   UNK N   1      25.671  22.393  -7.707  0.00  0.00     0.019 A 
HETATM   10  C   UNK N   1      29.867  25.143  -5.187  0.00  0.00     0.089 C 
HETATM   11  C   UNK N   1      28.287  21.438  -7.579  0.00  0.00     0.030 A 
HETATM   12  C   UNK N   1      25.996  21.163  -8.291  0.00  0.00     0.001 A 
HETATM   13  C   UNK N   1      27.308  20.686  -8.226  0.00  0.00     0.002 A 
ENDROOT
BRANCH   2  14
HETATM   14  C   UNK N   1      26.982  26.490  -5.170  0.00  0.00     0.050 A 
HETATM   15  C   UNK N   1      27.156  27.846  -5.694  0.00  0.00    -0.035 A 
HETATM   16  C   UNK N   1      26.717  28.952  -4.953  0.00  0.00     0.009 A 
HETATM   17  C   UNK N   1      27.759  28.284  -6.964  0.00  0.00     0.050 C 
HETATM   18  C   UNK N   1      26.112  28.826  -3.718  0.00  0.00     0.001 A 
HETATM   19  C   UNK N   1      25.928  27.570  -3.187  0.00  0.00     0.002 A 
HETATM   20  C   UNK N   1      26.352  26.452  -3.896  0.00  0.00     0.031 A 
ENDBRANCH   2  14
TORSDOF 1
ENDMDL
MODEL 7
REMARK VINA RESULT:      -6.6     15.783     18.045
REMARK  1 active torsions:
REMARK  status: ('A' for Active; 'I' for Inactive)
REMARK    1  A    between atoms: N_2  and  C_5 
ROOT
HETATM    1  O   UNK N   1      21.868  17.867   6.410  0.00  0.00    -0.267 OA
HETATM    2  N   UNK N   1      20.475  16.118   5.818  0.00  0.00    -0.267 N 
HETATM    3  N   UNK N   1      19.456  16.419   3.656  0.00  0.00    -0.345 N 
ATOM      4  HN  UNK N   1      18.833  16.056   2.934  1.00  0.00     0.167 HD
HETATM    5  C   UNK N   1      19.631  15.682   4.778  0.00  0.00     0.087 A 
HETATM    6  C   UNK N   1      20.900  18.106   4.408  0.00  0.00     0.059 A 
HETATM    7  C   UNK N   1      21.112  17.374   5.590  0.00  0.00     0.266 A 
HETATM    8  C   UNK N   1      20.051  17.593   3.444  0.00  0.00     0.049 A 
HETATM    9  C   UNK N   1      21.527  19.346   4.180  0.00  0.00     0.019 A 
HETATM   10  C   UNK N   1      18.860  14.439   4.750  0.00  0.00     0.089 C 
HETATM   11  C   UNK N   1      19.811  18.287   2.254  0.00  0.00     0.030 A 
HETATM   12  C   UNK N   1      21.291  20.047   2.991  0.00  0.00     0.001 A 
HETATM   13  C   UNK N   1      20.431  19.515   2.027  0.00  0.00     0.002 A 
ENDROOT
BRANCH   2  14
HETATM   14  C   UNK N   1      20.758  15.386   7.125  0.00  0.00     0.050 A 
HETATM   15  C   UNK N   1      20.125  15.552   8.435  0.00  0.00    -0.035 A 
HETATM   16  C   UNK N   1      20.537  14.769   9.523  0.00  0.00     0.009 A 
HETATM   17  C   UNK N   1      19.047  16.469   8.840  0.00  0.00     0.050 C 
HETATM   18  C   UNK N   1      21.538  13.823   9.420  0.00  0.00     0.001 A 
HETATM   19  C   UNK N   1      22.159  13.634   8.207  0.00  0.00     0.002 A 
HETATM   20  C   UNK N   1      21.775  14.394   7.108  0.00  0.00     0.031 A 
ENDBRANCH   2  14
TORSDOF 1
ENDMDL
MODEL 8
REMARK VINA RESULT:      -6.5     22.803     25.135
REMARK  1 active torsions:
REMARK  status: ('A' for Active; 'I' for Inactive)
REMARK    1  A    between atoms: N_2  and  C_5 
ROOT
HETATM    1  O   UNK N   1      29.015  24.823  -4.167  0.00  0.00    -0.267 OA
HETATM    2  N   UNK N   1      27.395  25.111  -5.792  0.00  0.00    -0.267 N 
HETATM    3  N   UNK N   1      27.291  23.279  -7.351  0.00  0.00    -0.345 N 
ATOM      4  HN  UNK N   1      26.853  22.866  -8.175  1.00  0.00     0.167 HD
HETATM    5  C   UNK N   1      26.840  24.481  -6.922  0.00  0.00     0.087 A 
HETATM    6  C   UNK N   1      28.884  23.142  -5.637  0.00  0.00     0.059 A 
HETATM    7  C   UNK N   1      28.449  24.390  -5.155  0.00  0.00     0.266 A 
HETATM    8  C   UNK N   1      28.275  22.604  -6.756  0.00  0.00     0.049 A 
HETATM    9  C   UNK N   1      29.923  22.426  -5.011  0.00  0.00     0.019 A 
HETATM   10  C   UNK N   1      25.755  24.996  -7.758  0.00  0.00     0.089 C 
HETATM   11  C   UNK N   1      28.677  21.367  -7.269  0.00  0.00     0.030 A 
HETATM   12  C   UNK N   1      30.331  21.187  -5.519  0.00  0.00     0.001 A 
HETATM   13  C   UNK N   1      29.705  20.657  -6.650  0.00  0.00     0.002 A 
ENDROOT
BRANCH   2  14
HETATM   14  C   UNK N   1      26.981  26.457  -5.208  0.00  0.00     0.050 A 
HETATM   15  C   UNK N   1      27.249  27.807  -5.709  0.00  0.00    -0.035 A 
HETATM   16  C   UNK N   1      26.772  28.927  -5.013  0.00  0.00     0.009 A 
HETATM   17  C   UNK N   1      27.990  28.225  -6.911  0.00  0.00     0.050 C 
HETATM   18  C   UNK N   1      26.042  28.820  -3.846  0.00  0.00     0.001 A 
HETATM   19  C   UNK N   1      25.767  27.570  -3.340  0.00  0.00     0.002 A 
HETATM   20  C   UNK N   1      26.225  26.440  -4.005  0.00  0.00     0.031 A 
ENDBRANCH   2  14
TORSDOF 1
ENDMDL
MODEL 9
REMARK VINA RESULT:      -6.5     20.729     23.596
REMARK  1 active torsions:
REMARK  status: ('A' for Active; 'I' for Inactive)
REMARK    1  A    between atoms: N_2  and  C_5 
ROOT
HETATM    1  O   UNK N   1      27.470  24.335  -3.268  0.00  0.00    -0.267 OA
HETATM    2  N   UNK N   1      29.310  24.850  -4.571  0.00  0.00    -0.267 N 
HETATM    3  N   UNK N   1      29.240  27.089  -5.454  0.00  0.00    -0.345 N 
ATOM      4  HN  UNK N   1      29.687  27.813  -6.017  1.00  0.00     0.167 HD
HETATM    5  C   UNK N   1      29.866  25.895  -5.332  0.00  0.00     0.087 A 
HETATM    6  C   UNK N   1      27.445  26.408  -4.108  0.00  0.00     0.059 A 
HETATM    7  C   UNK N   1      28.059  25.152  -3.954  0.00  0.00     0.266 A 
HETATM    8  C   UNK N   1      28.071  27.372  -4.877  0.00  0.00     0.049 A 
HETATM    9  C   UNK N   1      26.211  26.710  -3.501  0.00  0.00     0.019 A 
HETATM   10  C   UNK N   1      31.131  25.857  -6.066  0.00  0.00     0.089 C 
HETATM   11  C   UNK N   1      27.496  28.634  -5.057  0.00  0.00     0.030 A 
HETATM   12  C   UNK N   1      25.629  27.971  -3.677  0.00  0.00     0.001 A 
HETATM   13  C   UNK N   1      26.274  28.934  -4.457  0.00  0.00     0.002 A 
ENDROOT
BRANCH   2  14
HETATM   14  C   UNK N   1      29.910  23.465  -4.355  0.00  0.00     0.050 A 
HETATM   15  C   UNK N   1      29.774  22.258  -5.173  0.00  0.00    -0.035 A 
HETATM   16  C   UNK N   1      30.416  21.071  -4.794  0.00  0.00     0.009 A 
HETATM   17  C   UNK N   1      29.020  22.059  -6.422  0.00  0.00     0.050 C 
HETATM   18  C   UNK N   1      31.193  20.978  -3.656  0.00  0.00     0.001 A 
HETATM   19  C   UNK N   1      31.348  22.089  -2.858  0.00  0.00     0.002 A 
HETATM   20  C   UNK N   1      30.725  23.281  -3.206  0.00  0.00     0.031 A 
ENDBRANCH   2  14
TORSDOF 1
ENDMDL
