MODEL 1
REMARK VINA RESULT:      -8.0      0.000      0.000
REMARK  1 active torsions:
REMARK  status: ('A' for Active; 'I' for Inactive)
REMARK    1  A    between atoms: C_18  and  O_22 
ROOT
HETATM    1  C   UNK N   1      29.171  24.566  -5.189  0.00  0.00    -0.001 C 
HETATM    2  C   UNK N   1      28.922  23.049  -5.436  0.00  0.00    -0.005 C 
HETATM    3  C   UNK N   1      27.890  25.460  -5.411  0.00  0.00    -0.032 C 
HETATM    4  C   UNK N   1      29.879  24.822  -3.836  0.00  0.00     0.007 C 
HETATM    5  C   UNK N   1      30.281  22.330  -5.319  0.00  0.00     0.001 C 
HETATM    6  C   UNK N   1      28.358  22.840  -6.857  0.00  0.00     0.006 C 
HETATM    7  C   UNK N   1      26.743  24.653  -6.087  0.00  0.00     0.002 C 
HETATM    8  C   UNK N   1      27.299  26.012  -4.099  0.00  0.00     0.054 C 
HETATM    9  C   UNK N   1      31.180  24.012  -3.693  0.00  0.00     0.013 C 
HETATM   10  C   UNK N   1      30.924  22.522  -3.947  0.00  0.00    -0.009 C 
HETATM   11  C   UNK N   1      30.331  20.821  -5.518  0.00  0.00     0.009 C 
HETATM   12  C   UNK N   1      27.254  23.833  -7.267  0.00  0.00     0.006 C 
HETATM   13  C   UNK N   1      25.574  25.542  -6.529  0.00  0.00     0.089 C 
HETATM   14  C   UNK N   1      26.078  26.872  -4.343  0.00  0.00     0.010 C 
HETATM   15  C   UNK N   1      32.179  21.650  -4.114  0.00  0.00     0.062 C 
HETATM   16  C   UNK N   1      31.625  20.389  -4.795  0.00  0.00     0.038 C 
HETATM   17  C   UNK N   1      25.213  26.611  -5.529  0.00  0.00     0.157 C 
HETATM   18  C   UNK N   1      25.804  27.900  -3.529  0.00  0.00     0.142 C 
HETATM   19  C   UNK N   1      32.897  21.331  -2.812  0.00  0.00     0.046 C 
HETATM   20  O   UNK N   1      33.092  22.260  -4.983  0.00  0.00    -0.389 OA
HETATM   21  O   UNK N   1      24.236  27.312  -5.742  0.00  0.00    -0.293 OA
HETATM   22  C   UNK N   1      30.024  21.967  -2.824  0.00  0.00     0.018 C 
HETATM   23  C   UNK N   1      28.316  26.658  -6.273  0.00  0.00     0.016 C 
HETATM   24  H   UNK N   1      33.650  22.606  -5.698  0.00  0.00     0.210 HD
ENDROOT
BRANCH  18  25
HETATM   25  O   UNK N   1      26.592  28.185  -2.473  0.00  0.00    -0.372 OA
HETATM   26  H   UNK N   1      26.297  28.017  -1.599  0.00  0.00     0.216 HD
ENDBRANCH  18  25
TORSDOF 1
ENDMDL
MODEL 2
REMARK VINA RESULT:      -7.7     12.879     16.858
REMARK  1 active torsions:
REMARK  status: ('A' for Active; 'I' for Inactive)
REMARK    1  A    between atoms: C_18  and  O_22 
ROOT
HETATM    1  C   UNK N   1      33.568  15.046   7.765  0.00  0.00    -0.001 C 
HETATM    2  C   UNK N   1      34.459  16.090   8.499  0.00  0.00    -0.005 C 
HETATM    3  C   UNK N   1      33.158  15.482   6.305  0.00  0.00    -0.032 C 
HETATM    4  C   UNK N   1      34.169  13.620   7.839  0.00  0.00     0.007 C 
HETATM    5  C   UNK N   1      34.660  15.594   9.945  0.00  0.00     0.001 C 
HETATM    6  C   UNK N   1      33.742  17.457   8.526  0.00  0.00     0.006 C 
HETATM    7  C   UNK N   1      33.513  16.974   6.036  0.00  0.00     0.002 C 
HETATM    8  C   UNK N   1      33.873  14.674   5.204  0.00  0.00     0.054 C 
HETATM    9  C   UNK N   1      34.463  13.184   9.286  0.00  0.00     0.013 C 
HETATM   10  C   UNK N   1      35.334  14.224  10.002  0.00  0.00    -0.009 C 
HETATM   11  C   UNK N   1      35.502  16.434  10.898  0.00  0.00     0.009 C 
HETATM   12  C   UNK N   1      33.088  17.869   7.195  0.00  0.00     0.006 C 
HETATM   13  C   UNK N   1      32.920  17.496   4.721  0.00  0.00     0.089 C 
HETATM   14  C   UNK N   1      33.454  15.109   3.817  0.00  0.00     0.010 C 
HETATM   15  C   UNK N   1      35.462  14.050  11.524  0.00  0.00     0.062 C 
HETATM   16  C   UNK N   1      35.959  15.431  11.980  0.00  0.00     0.038 C 
HETATM   17  C   UNK N   1      33.015  16.513   3.581  0.00  0.00     0.157 C 
HETATM   18  C   UNK N   1      33.421  14.221   2.814  0.00  0.00     0.142 C 
HETATM   19  C   UNK N   1      36.403  12.933  11.948  0.00  0.00     0.046 C 
HETATM   20  O   UNK N   1      34.208  13.814  12.101  0.00  0.00    -0.389 OA
HETATM   21  O   UNK N   1      32.659  16.866   2.468  0.00  0.00    -0.293 OA
HETATM   22  C   UNK N   1      36.726  14.256   9.340  0.00  0.00     0.018 C 
HETATM   23  C   UNK N   1      31.648  15.231   6.164  0.00  0.00     0.016 C 
HETATM   24  H   UNK N   1      33.331  13.806  12.515  0.00  0.00     0.210 HD
ENDROOT
BRANCH  18  25
HETATM   25  O   UNK N   1      33.773  12.934   3.008  0.00  0.00    -0.372 OA
HETATM   26  H   UNK N   1      34.061  12.640   3.849  0.00  0.00     0.216 HD
ENDBRANCH  18  25
TORSDOF 1
ENDMDL
MODEL 3
REMARK VINA RESULT:      -7.6     13.679     16.775
REMARK  1 active torsions:
REMARK  status: ('A' for Active; 'I' for Inactive)
REMARK    1  A    between atoms: C_18  and  O_22 
ROOT
HETATM    1  C   UNK N   1      34.408  16.070   8.480  0.00  0.00    -0.001 C 
HETATM    2  C   UNK N   1      34.942  14.883   7.625  0.00  0.00    -0.005 C 
HETATM    3  C   UNK N   1      33.071  16.695   7.925  0.00  0.00    -0.032 C 
HETATM    4  C   UNK N   1      34.348  15.716   9.986  0.00  0.00     0.007 C 
HETATM    5  C   UNK N   1      36.311  14.472   8.204  0.00  0.00     0.001 C 
HETATM    6  C   UNK N   1      35.127  15.338   6.162  0.00  0.00     0.006 C 
HETATM    7  C   UNK N   1      32.739  16.158   6.501  0.00  0.00     0.002 C 
HETATM    8  C   UNK N   1      31.840  16.370   8.794  0.00  0.00     0.054 C 
HETATM    9  C   UNK N   1      35.698  15.205  10.522  0.00  0.00     0.013 C 
HETATM   10  C   UNK N   1      36.218  14.042   9.667  0.00  0.00    -0.009 C 
HETATM   11  C   UNK N   1      37.068  13.322   7.552  0.00  0.00     0.009 C 
HETATM   12  C   UNK N   1      33.966  16.176   5.595  0.00  0.00     0.006 C 
HETATM   13  C   UNK N   1      31.581  16.915   5.837  0.00  0.00     0.089 C 
HETATM   14  C   UNK N   1      30.574  16.990   8.241  0.00  0.00     0.010 C 
HETATM   15  C   UNK N   1      37.677  13.631   9.920  0.00  0.00     0.062 C 
HETATM   16  C   UNK N   1      38.024  12.826   8.659  0.00  0.00     0.038 C 
HETATM   17  C   UNK N   1      30.443  17.225   6.776  0.00  0.00     0.157 C 
HETATM   18  C   UNK N   1      29.598  17.379   9.072  0.00  0.00     0.142 C 
HETATM   19  C   UNK N   1      37.889  12.824  11.192  0.00  0.00     0.046 C 
HETATM   20  O   UNK N   1      38.506  14.759   9.971  0.00  0.00    -0.389 OA
HETATM   21  O   UNK N   1      29.432  17.741   6.326  0.00  0.00    -0.293 OA
HETATM   22  C   UNK N   1      35.276  12.832   9.837  0.00  0.00     0.018 C 
HETATM   23  C   UNK N   1      33.251  18.221   7.919  0.00  0.00     0.016 C 
HETATM   24  H   UNK N   1      39.096  15.520   9.852  0.00  0.00     0.210 HD
ENDROOT
BRANCH  18  25
HETATM   25  O   UNK N   1      29.707  17.216  10.405  0.00  0.00    -0.372 OA
HETATM   26  H   UNK N   1      29.456  17.903  10.992  0.00  0.00     0.216 HD
ENDBRANCH  18  25
TORSDOF 1
ENDMDL
MODEL 4
REMARK VINA RESULT:      -7.3      4.200      5.476
REMARK  1 active torsions:
REMARK  status: ('A' for Active; 'I' for Inactive)
REMARK    1  A    between atoms: C_18  and  O_22 
ROOT
HETATM    1  C   UNK N   1      26.108  25.715  -7.208  0.00  0.00    -0.001 C 
HETATM    2  C   UNK N   1      26.678  24.275  -7.044  0.00  0.00    -0.005 C 
HETATM    3  C   UNK N   1      26.173  26.573  -5.886  0.00  0.00    -0.032 C 
HETATM    4  C   UNK N   1      26.703  26.435  -8.443  0.00  0.00     0.007 C 
HETATM    5  C   UNK N   1      26.422  23.521  -8.365  0.00  0.00     0.001 C 
HETATM    6  C   UNK N   1      25.942  23.553  -5.896  0.00  0.00     0.006 C 
HETATM    7  C   UNK N   1      26.542  25.694  -4.654  0.00  0.00     0.002 C 
HETATM    8  C   UNK N   1      27.232  27.691  -5.937  0.00  0.00     0.054 C 
HETATM    9  C   UNK N   1      26.533  25.616  -9.736  0.00  0.00     0.013 C 
HETATM   10  C   UNK N   1      27.090  24.198  -9.560  0.00  0.00    -0.009 C 
HETATM   11  C   UNK N   1      26.882  22.074  -8.484  0.00  0.00     0.009 C 
HETATM   12  C   UNK N   1      25.735  24.400  -4.627  0.00  0.00     0.006 C 
HETATM   13  C   UNK N   1      26.385  26.442  -3.324  0.00  0.00     0.089 C 
HETATM   14  C   UNK N   1      27.265  28.502  -4.659  0.00  0.00     0.010 C 
HETATM   15  C   UNK N   1      26.729  23.199 -10.671  0.00  0.00     0.062 C 
HETATM   16  C   UNK N   1      27.003  21.842 -10.006  0.00  0.00     0.038 C 
HETATM   17  C   UNK N   1      26.876  27.867  -3.369  0.00  0.00     0.157 C 
HETATM   18  C   UNK N   1      27.588  29.801  -4.695  0.00  0.00     0.142 C 
HETATM   19  C   UNK N   1      27.522  23.379 -11.956  0.00  0.00     0.046 C 
HETATM   20  O   UNK N   1      25.365  23.277 -10.981  0.00  0.00    -0.389 OA
HETATM   21  O   UNK N   1      26.884  28.520  -2.337  0.00  0.00    -0.293 OA
HETATM   22  C   UNK N   1      28.619  24.277  -9.377  0.00  0.00     0.018 C 
HETATM   23  C   UNK N   1      24.799  27.237  -5.708  0.00  0.00     0.016 C 
HETATM   24  H   UNK N   1      24.402  23.222 -11.085  0.00  0.00     0.210 HD
ENDROOT
BRANCH  18  25
HETATM   25  O   UNK N   1      27.905  30.412  -5.854  0.00  0.00    -0.372 OA
HETATM   26  H   UNK N   1      27.380  30.283  -6.620  0.00  0.00     0.216 HD
ENDBRANCH  18  25
TORSDOF 1
ENDMDL
MODEL 5
REMARK VINA RESULT:      -7.3     23.608     27.518
REMARK  1 active torsions:
REMARK  status: ('A' for Active; 'I' for Inactive)
REMARK    1  A    between atoms: C_18  and  O_22 
ROOT
HETATM    1  C   UNK N   1      35.884  10.510  17.465  0.00  0.00    -0.001 C 
HETATM    2  C   UNK N   1      35.274  11.905  17.138  0.00  0.00    -0.005 C 
HETATM    3  C   UNK N   1      35.382   9.907  18.833  0.00  0.00    -0.032 C 
HETATM    4  C   UNK N   1      35.756   9.530  16.272  0.00  0.00     0.007 C 
HETATM    5  C   UNK N   1      35.956  12.422  15.856  0.00  0.00     0.001 C 
HETATM    6  C   UNK N   1      35.564  12.882  18.297  0.00  0.00     0.006 C 
HETATM    7  C   UNK N   1      34.603  10.965  19.670  0.00  0.00     0.002 C 
HETATM    8  C   UNK N   1      34.418   8.717  18.657  0.00  0.00     0.054 C 
HETATM    9  C   UNK N   1      36.347  10.109  14.973  0.00  0.00     0.013 C 
HETATM   10  C   UNK N   1      35.746  11.486  14.667  0.00  0.00    -0.009 C 
HETATM   11  C   UNK N   1      35.546  13.781  15.303  0.00  0.00     0.009 C 
HETATM   12  C   UNK N   1      35.335  12.302  19.704  0.00  0.00     0.006 C 
HETATM   13  C   UNK N   1      34.306  10.488  21.098  0.00  0.00     0.089 C 
HETATM   14  C   UNK N   1      33.961   8.155  19.986  0.00  0.00     0.010 C 
HETATM   15  C   UNK N   1      36.452  12.289  13.563  0.00  0.00     0.062 C 
HETATM   16  C   UNK N   1      35.949  13.720  13.814  0.00  0.00     0.038 C 
HETATM   17  C   UNK N   1      33.878   9.044  21.178  0.00  0.00     0.157 C 
HETATM   18  C   UNK N   1      33.687   6.849  20.105  0.00  0.00     0.142 C 
HETATM   19  C   UNK N   1      36.147  11.814  12.151  0.00  0.00     0.046 C 
HETATM   20  O   UNK N   1      37.840  12.266  13.747  0.00  0.00    -0.389 OA
HETATM   21  O   UNK N   1      33.527   8.594  22.257  0.00  0.00    -0.293 OA
HETATM   22  C   UNK N   1      34.247  11.319  14.343  0.00  0.00     0.018 C 
HETATM   23  C   UNK N   1      36.621   9.399  19.587  0.00  0.00     0.016 C 
HETATM   24  H   UNK N   1      38.780  12.378  13.960  0.00  0.00     0.210 HD
ENDROOT
BRANCH  18  25
HETATM   25  O   UNK N   1      33.793   6.012  19.054  0.00  0.00    -0.372 OA
HETATM   26  H   UNK N   1      34.420   6.175  18.377  0.00  0.00     0.216 HD
ENDBRANCH  18  25
TORSDOF 1
ENDMDL
MODEL 6
REMARK VINA RESULT:      -7.3     10.587     12.806
REMARK  1 active torsions:
REMARK  status: ('A' for Active; 'I' for Inactive)
REMARK    1  A    between atoms: C_18  and  O_22 
ROOT
HETATM    1  C   UNK N   1      29.718  16.799   5.344  0.00  0.00    -0.001 C 
HETATM    2  C   UNK N   1      31.075  16.876   6.102  0.00  0.00    -0.005 C 
HETATM    3  C   UNK N   1      28.649  17.840   5.856  0.00  0.00    -0.032 C 
HETATM    4  C   UNK N   1      29.912  16.816   3.807  0.00  0.00     0.007 C 
HETATM    5  C   UNK N   1      31.959  15.720   5.592  0.00  0.00     0.001 C 
HETATM    6  C   UNK N   1      30.835  16.701   7.616  0.00  0.00     0.006 C 
HETATM    7  C   UNK N   1      29.107  18.520   7.180  0.00  0.00     0.002 C 
HETATM    8  C   UNK N   1      28.393  18.989   4.860  0.00  0.00     0.054 C 
HETATM    9  C   UNK N   1      30.883  15.720   3.328  0.00  0.00     0.013 C 
HETATM   10  C   UNK N   1      32.213  15.801   4.088  0.00  0.00    -0.009 C 
HETATM   11  C   UNK N   1      33.358  15.555   6.171  0.00  0.00     0.009 C 
HETATM   12  C   UNK N   1      29.644  17.500   8.177  0.00  0.00     0.006 C 
HETATM   13  C   UNK N   1      27.998  19.359   7.829  0.00  0.00     0.089 C 
HETATM   14  C   UNK N   1      27.358  19.966   5.375  0.00  0.00     0.010 C 
HETATM   15  C   UNK N   1      33.155  14.600   3.909  0.00  0.00     0.062 C 
HETATM   16  C   UNK N   1      34.118  14.747   5.097  0.00  0.00     0.038 C 
HETATM   17  C   UNK N   1      27.193  20.167   6.842  0.00  0.00     0.157 C 
HETATM   18  C   UNK N   1      26.554  20.608   4.517  0.00  0.00     0.142 C 
HETATM   19  C   UNK N   1      33.888  14.573   2.577  0.00  0.00     0.046 C 
HETATM   20  O   UNK N   1      32.453  13.397   4.049  0.00  0.00    -0.389 OA
HETATM   21  O   UNK N   1      26.348  20.941   7.264  0.00  0.00    -0.293 OA
HETATM   22  C   UNK N   1      32.929  17.114   3.710  0.00  0.00     0.018 C 
HETATM   23  C   UNK N   1      27.328  17.079   6.044  0.00  0.00     0.016 C 
HETATM   24  H   UNK N   1      32.002  12.574   4.298  0.00  0.00     0.210 HD
ENDROOT
BRANCH  18  25
HETATM   25  O   UNK N   1      26.653  20.416   3.187  0.00  0.00    -0.372 OA
HETATM   26  H   UNK N   1      26.897  19.579   2.843  0.00  0.00     0.216 HD
ENDBRANCH  18  25
TORSDOF 1
ENDMDL
MODEL 7
REMARK VINA RESULT:      -7.2     22.773     26.686
REMARK  1 active torsions:
REMARK  status: ('A' for Active; 'I' for Inactive)
REMARK    1  A    between atoms: C_18  and  O_22 
ROOT
HETATM    1  C   UNK N   1      35.067  10.685  16.418  0.00  0.00    -0.001 C 
HETATM    2  C   UNK N   1      35.531  11.436  17.700  0.00  0.00    -0.005 C 
HETATM    3  C   UNK N   1      35.484  11.406  15.079  0.00  0.00    -0.032 C 
HETATM    4  C   UNK N   1      35.448   9.184  16.457  0.00  0.00     0.007 C 
HETATM    5  C   UNK N   1      34.938  10.693  18.914  0.00  0.00     0.001 C 
HETATM    6  C   UNK N   1      34.995  12.882  17.678  0.00  0.00     0.006 C 
HETATM    7  C   UNK N   1      36.027  12.841  15.350  0.00  0.00     0.002 C 
HETATM    8  C   UNK N   1      36.601  10.672  14.313  0.00  0.00     0.054 C 
HETATM    9  C   UNK N   1      34.938   8.484  17.730  0.00  0.00     0.013 C 
HETATM   10  C   UNK N   1      35.394   9.237  18.985  0.00  0.00    -0.009 C 
HETATM   11  C   UNK N   1      35.235  11.219  20.313  0.00  0.00     0.009 C 
HETATM   12  C   UNK N   1      35.135  13.603  16.324  0.00  0.00     0.006 C 
HETATM   13  C   UNK N   1      36.220  13.654  14.064  0.00  0.00     0.089 C 
HETATM   14  C   UNK N   1      36.974  11.382  13.030  0.00  0.00     0.010 C 
HETATM   15  C   UNK N   1      34.721   8.809  20.300  0.00  0.00     0.062 C 
HETATM   16  C   UNK N   1      35.011   9.997  21.230  0.00  0.00     0.038 C 
HETATM   17  C   UNK N   1      36.812  12.860  12.927  0.00  0.00     0.157 C 
HETATM   18  C   UNK N   1      37.394  10.680  11.969  0.00  0.00     0.142 C 
HETATM   19  C   UNK N   1      35.238   7.496  20.868  0.00  0.00     0.046 C 
HETATM   20  O   UNK N   1      33.335   8.701  20.132  0.00  0.00    -0.389 OA
HETATM   21  O   UNK N   1      37.094  13.437  11.889  0.00  0.00    -0.293 OA
HETATM   22  C   UNK N   1      36.928   9.136  19.103  0.00  0.00     0.018 C 
HETATM   23  C   UNK N   1      34.241  11.440  14.175  0.00  0.00     0.016 C 
HETATM   24  H   UNK N   1      32.370   8.777  20.057  0.00  0.00     0.210 HD
ENDROOT
BRANCH  18  25
HETATM   25  O   UNK N   1      37.510   9.338  12.020  0.00  0.00    -0.372 OA
HETATM   26  H   UNK N   1      36.999   8.837  12.625  0.00  0.00     0.216 HD
ENDBRANCH  18  25
TORSDOF 1
ENDMDL
MODEL 8
REMARK VINA RESULT:      -6.9     11.660     13.859
REMARK  1 active torsions:
REMARK  status: ('A' for Active; 'I' for Inactive)
REMARK    1  A    between atoms: C_18  and  O_22 
ROOT
HETATM    1  C   UNK N   1      29.603  16.106   6.368  0.00  0.00    -0.001 C 
HETATM    2  C   UNK N   1      30.328  17.389   6.868  0.00  0.00    -0.005 C 
HETATM    3  C   UNK N   1      28.254  16.400   5.605  0.00  0.00    -0.032 C 
HETATM    4  C   UNK N   1      30.560  15.166   5.594  0.00  0.00     0.007 C 
HETATM    5  C   UNK N   1      31.543  16.940   7.706  0.00  0.00     0.001 C 
HETATM    6  C   UNK N   1      29.374  18.212   7.759  0.00  0.00     0.006 C 
HETATM    7  C   UNK N   1      27.823  17.889   5.764  0.00  0.00     0.002 C 
HETATM    8  C   UNK N   1      28.346  16.150   4.087  0.00  0.00     0.054 C 
HETATM    9  C   UNK N   1      31.819  14.814   6.406  0.00  0.00     0.013 C 
HETATM   10  C   UNK N   1      32.520  16.086   6.901  0.00  0.00    -0.009 C 
HETATM   11  C   UNK N   1      32.440  18.004   8.325  0.00  0.00     0.009 C 
HETATM   12  C   UNK N   1      27.941  18.354   7.211  0.00  0.00     0.006 C 
HETATM   13  C   UNK N   1      26.407  18.155   5.238  0.00  0.00     0.089 C 
HETATM   14  C   UNK N   1      27.036  16.432   3.383  0.00  0.00     0.010 C 
HETATM   15  C   UNK N   1      33.620  15.873   7.953  0.00  0.00     0.062 C 
HETATM   16  C   UNK N   1      33.780  17.274   8.562  0.00  0.00     0.038 C 
HETATM   17  C   UNK N   1      26.099  17.448   3.942  0.00  0.00     0.157 C 
HETATM   18  C   UNK N   1      26.692  15.733   2.294  0.00  0.00     0.142 C 
HETATM   19  C   UNK N   1      34.929  15.339   7.391  0.00  0.00     0.046 C 
HETATM   20  O   UNK N   1      33.182  14.998   8.955  0.00  0.00    -0.389 OA
HETATM   21  O   UNK N   1      25.033  17.669   3.389  0.00  0.00    -0.293 OA
HETATM   22  C   UNK N   1      33.073  16.860   5.687  0.00  0.00     0.018 C 
HETATM   23  C   UNK N   1      27.193  15.446   6.174  0.00  0.00     0.016 C 
HETATM   24  H   UNK N   1      32.827  14.520   9.722  0.00  0.00     0.210 HD
ENDROOT
BRANCH  18  25
HETATM   25  O   UNK N   1      27.501  14.779   1.791  0.00  0.00    -0.372 OA
HETATM   26  H   UNK N   1      27.854  14.860   0.926  0.00  0.00     0.216 HD
ENDBRANCH  18  25
TORSDOF 1
ENDMDL
MODEL 9
REMARK VINA RESULT:      -6.7     19.645     24.084
REMARK  1 active torsions:
REMARK  status: ('A' for Active; 'I' for Inactive)
REMARK    1  A    between atoms: C_18  and  O_22 
ROOT
HETATM    1  C   UNK N   1      36.928  11.752  13.214  0.00  0.00    -0.001 C 
HETATM    2  C   UNK N   1      36.005  12.999  13.334  0.00  0.00    -0.005 C 
HETATM    3  C   UNK N   1      36.713  10.695  14.365  0.00  0.00    -0.032 C 
HETATM    4  C   UNK N   1      36.888  11.137  11.794  0.00  0.00     0.007 C 
HETATM    5  C   UNK N   1      36.422  13.994  12.233  0.00  0.00     0.001 C 
HETATM    6  C   UNK N   1      36.199  13.660  14.715  0.00  0.00     0.006 C 
HETATM    7  C   UNK N   1      35.819  11.269  15.505  0.00  0.00     0.002 C 
HETATM    8  C   UNK N   1      36.012   9.408  13.888  0.00  0.00     0.054 C 
HETATM    9  C   UNK N   1      37.203  12.172  10.698  0.00  0.00     0.013 C 
HETATM   10  C   UNK N   1      36.293  13.399  10.832  0.00  0.00    -0.009 C 
HETATM   11  C   UNK N   1      35.676  15.318  12.118  0.00  0.00     0.009 C 
HETATM   12  C   UNK N   1      36.249  12.677  15.899  0.00  0.00     0.006 C 
HETATM   13  C   UNK N   1      35.782  10.362  16.741  0.00  0.00     0.089 C 
HETATM   14  C   UNK N   1      35.828   8.411  15.011  0.00  0.00     0.010 C 
HETATM   15  C   UNK N   1      36.691  14.618   9.984  0.00  0.00     0.062 C 
HETATM   16  C   UNK N   1      35.925  15.765  10.661  0.00  0.00     0.038 C 
HETATM   17  C   UNK N   1      35.682   8.893  16.414  0.00  0.00     0.157 C 
HETATM   18  C   UNK N   1      35.851   7.097  14.755  0.00  0.00     0.142 C 
HETATM   19  C   UNK N   1      36.349  14.493   8.508  0.00  0.00     0.046 C 
HETATM   20  O   UNK N   1      38.064  14.871  10.098  0.00  0.00    -0.389 OA
HETATM   21  O   UNK N   1      35.550   8.093  17.327  0.00  0.00    -0.293 OA
HETATM   22  C   UNK N   1      34.838  12.982  10.532  0.00  0.00     0.018 C 
HETATM   23  C   UNK N   1      38.104  10.304  14.889  0.00  0.00     0.016 C 
HETATM   24  H   UNK N   1      38.976  15.137  10.297  0.00  0.00     0.210 HD
ENDROOT
BRANCH  18  25
HETATM   25  O   UNK N   1      36.023   6.631  13.501  0.00  0.00    -0.372 OA
HETATM   26  H   UNK N   1      35.295   6.303  13.011  0.00  0.00     0.216 HD
ENDBRANCH  18  25
TORSDOF 1
ENDMDL
