MODEL 1
REMARK VINA RESULT:      -7.2      0.000      0.000
REMARK  7 active torsions:
REMARK  status: ('A' for Active; 'I' for Inactive)
REMARK    1  A    between atoms: N_2  and  C_10 
REMARK    2  A    between atoms: N_3  and  C_4 
REMARK    3  A    between atoms: N_3  and  C_11 
REMARK       I    between atoms: N_3  and  C_12 
REMARK    4  A    between atoms: C_4  and  C_9 
REMARK    5  A    between atoms: C_10  and  C_15 
REMARK    6  A    between atoms: C_12  and  C_16 
REMARK    7  A    between atoms: C_15  and  C_21 
ROOT
HETATM    1  N   UNK N   1      29.545  24.448  -3.830  0.00  0.00     0.088 N 
HETATM    2  C   UNK N   1      27.949  24.164  -6.327  0.00  0.00     0.071 C 
HETATM    3  C   UNK N   1      27.367  24.152  -4.895  0.00  0.00     0.067 C 
HETATM    4  C   UNK N   1      29.500  24.062  -6.301  0.00  0.00     0.067 C 
HETATM    5  C   UNK N   1      28.366  23.574  -3.897  0.00  0.00     0.275 C 
HETATM    6  C   UNK N   1      30.149  24.797  -5.130  0.00  0.00     0.275 C 
ENDROOT
BRANCH   2   7
HETATM    7  N   UNK N   1      27.598  25.451  -7.027  0.00  0.00    -0.304 N 
HETATM    8  C   UNK N   1      28.062  25.745  -8.306  0.00  0.00     0.225 C 
HETATM    9  O   UNK N   1      28.854  25.018  -8.873  0.00  0.00    -0.273 OA
BRANCH   7  10
HETATM   10  C   UNK N   1      26.830  26.454  -6.289  0.00  0.00     0.038 A 
HETATM   11  C   UNK N   1      25.423  26.414  -6.232  0.00  0.00     0.030 A 
HETATM   12  C   UNK N   1      24.689  27.331  -5.479  0.00  0.00     0.002 A 
HETATM   13  C   UNK N   1      25.351  28.314  -4.747  0.00  0.00     0.000 A 
HETATM   14  C   UNK N   1      26.743  28.380  -4.776  0.00  0.00     0.002 A 
HETATM   15  C   UNK N   1      27.474  27.461  -5.537  0.00  0.00     0.030 A 
ENDBRANCH   7  10
BRANCH   8  16
HETATM   16  C   UNK N   1      27.615  26.967  -9.067  0.00  0.00     0.099 C 
HETATM   17  C   UNK N   1      28.775  27.932  -9.257  0.00  0.00     0.014 C 
ENDBRANCH   8  16
ENDBRANCH   2   7
BRANCH   2  18
HETATM   18  C   UNK N   1      27.392  22.844  -6.900  0.00  0.00    -0.029 A 
HETATM   19  C   UNK N   1      28.261  21.863  -7.420  0.00  0.00     0.010 A 
HETATM   20  C   UNK N   1      27.753  20.722  -8.050  0.00  0.00     0.001 A 
HETATM   21  C   UNK N   1      26.375  20.566  -8.217  0.00  0.00     0.000 A 
HETATM   22  C   UNK N   1      25.501  21.541  -7.736  0.00  0.00     0.001 A 
HETATM   23  C   UNK N   1      26.002  22.666  -7.079  0.00  0.00     0.010 A 
ENDBRANCH   2  18
BRANCH   1  24
HETATM   24  C   UNK N   1      30.547  23.877  -2.938  0.00  0.00     0.277 C 
BRANCH  24  25
HETATM   25  C   UNK N   1      30.278  22.410  -2.607  0.00  0.00     0.068 C 
BRANCH  25  26
HETATM   26  C   UNK N   1      31.251  21.559  -3.340  0.00  0.00    -0.057 A 
HETATM   27  C   UNK N   1      30.835  20.863  -4.479  0.00  0.00     0.007 A 
HETATM   28  C   UNK N   1      31.734  20.037  -5.159  0.00  0.00     0.001 A 
HETATM   29  C   UNK N   1      33.048  19.904  -4.699  0.00  0.00     0.000 A 
HETATM   30  C   UNK N   1      33.466  20.603  -3.563  0.00  0.00     0.001 A 
HETATM   31  C   UNK N   1      32.569  21.431  -2.884  0.00  0.00     0.007 A 
ENDBRANCH  25  26
ENDBRANCH  24  25
ENDBRANCH   1  24
TORSDOF 7
ENDMDL
MODEL 2
REMARK VINA RESULT:      -7.2     12.793     15.160
REMARK  7 active torsions:
REMARK  status: ('A' for Active; 'I' for Inactive)
REMARK    1  A    between atoms: N_2  and  C_10 
REMARK    2  A    between atoms: N_3  and  C_4 
REMARK    3  A    between atoms: N_3  and  C_11 
REMARK       I    between atoms: N_3  and  C_12 
REMARK    4  A    between atoms: C_4  and  C_9 
REMARK    5  A    between atoms: C_10  and  C_15 
REMARK    6  A    between atoms: C_12  and  C_16 
REMARK    7  A    between atoms: C_15  and  C_21 
ROOT
HETATM    1  N   UNK N   1      24.657  15.493   4.397  0.00  0.00     0.088 N 
HETATM    2  C   UNK N   1      22.070  16.854   4.959  0.00  0.00     0.071 C 
HETATM    3  C   UNK N   1      22.271  15.719   3.928  0.00  0.00     0.067 C 
HETATM    4  C   UNK N   1      23.435  17.393   5.470  0.00  0.00     0.067 C 
HETATM    5  C   UNK N   1      23.676  15.755   3.334  0.00  0.00     0.275 C 
HETATM    6  C   UNK N   1      24.511  16.319   5.610  0.00  0.00     0.275 C 
ENDROOT
BRANCH   2   7
HETATM    7  N   UNK N   1      21.312  16.346   6.159  0.00  0.00    -0.304 N 
HETATM    8  C   UNK N   1      20.821  17.205   7.138  0.00  0.00     0.225 C 
HETATM    9  O   UNK N   1      21.069  18.395   7.117  0.00  0.00    -0.273 OA
BRANCH   7  10
HETATM   10  C   UNK N   1      21.187  14.900   6.338  0.00  0.00     0.038 A 
HETATM   11  C   UNK N   1      20.211  14.151   5.650  0.00  0.00     0.030 A 
HETATM   12  C   UNK N   1      20.127  12.763   5.770  0.00  0.00     0.002 A 
HETATM   13  C   UNK N   1      21.033  12.081   6.578  0.00  0.00     0.000 A 
HETATM   14  C   UNK N   1      22.015  12.790   7.269  0.00  0.00     0.002 A 
HETATM   15  C   UNK N   1      22.092  14.181   7.149  0.00  0.00     0.030 A 
ENDBRANCH   7  10
BRANCH   8  16
HETATM   16  C   UNK N   1      19.953  16.725   8.272  0.00  0.00     0.099 C 
HETATM   17  C   UNK N   1      19.391  17.905   9.050  0.00  0.00     0.014 C 
ENDBRANCH   8  16
ENDBRANCH   2   7
BRANCH   2  18
HETATM   18  C   UNK N   1      21.416  17.949   4.092  0.00  0.00    -0.029 A 
HETATM   19  C   UNK N   1      20.172  17.725   3.467  0.00  0.00     0.010 A 
HETATM   20  C   UNK N   1      19.637  18.668   2.583  0.00  0.00     0.001 A 
HETATM   21  C   UNK N   1      20.354  19.824   2.270  0.00  0.00     0.000 A 
HETATM   22  C   UNK N   1      21.601  20.050   2.855  0.00  0.00     0.001 A 
HETATM   23  C   UNK N   1      22.124  19.126   3.761  0.00  0.00     0.010 A 
ENDBRANCH   2  18
BRANCH   1  24
HETATM   24  C   UNK N   1      26.012  15.596   3.868  0.00  0.00     0.277 C 
BRANCH  24  25
HETATM   25  C   UNK N   1      26.155  16.688   2.810  0.00  0.00     0.068 C 
BRANCH  25  26
HETATM   26  C   UNK N   1      26.573  17.952   3.469  0.00  0.00    -0.057 A 
HETATM   27  C   UNK N   1      25.789  19.100   3.318  0.00  0.00     0.007 A 
HETATM   28  C   UNK N   1      26.189  20.301   3.909  0.00  0.00     0.001 A 
HETATM   29  C   UNK N   1      27.376  20.356   4.648  0.00  0.00     0.000 A 
HETATM   30  C   UNK N   1      28.158  19.209   4.803  0.00  0.00     0.001 A 
HETATM   31  C   UNK N   1      27.758  18.007   4.215  0.00  0.00     0.007 A 
ENDBRANCH  25  26
ENDBRANCH  24  25
ENDBRANCH   1  24
TORSDOF 7
ENDMDL
MODEL 3
REMARK VINA RESULT:      -7.0     13.912     15.927
REMARK  7 active torsions:
REMARK  status: ('A' for Active; 'I' for Inactive)
REMARK    1  A    between atoms: N_2  and  C_10 
REMARK    2  A    between atoms: N_3  and  C_4 
REMARK    3  A    between atoms: N_3  and  C_11 
REMARK       I    between atoms: N_3  and  C_12 
REMARK    4  A    between atoms: C_4  and  C_9 
REMARK    5  A    between atoms: C_10  and  C_15 
REMARK    6  A    between atoms: C_12  and  C_16 
REMARK    7  A    between atoms: C_15  and  C_21 
ROOT
HETATM    1  N   UNK N   1      21.423  15.377   7.060  0.00  0.00     0.088 N 
HETATM    2  C   UNK N   1      22.431  16.983   4.765  0.00  0.00     0.071 C 
HETATM    3  C   UNK N   1      22.579  15.451   4.911  0.00  0.00     0.067 C 
HETATM    4  C   UNK N   1      21.938  17.625   6.093  0.00  0.00     0.067 C 
HETATM    5  C   UNK N   1      22.680  15.042   6.377  0.00  0.00     0.275 C 
HETATM    6  C   UNK N   1      20.947  16.760   6.868  0.00  0.00     0.275 C 
ENDROOT
BRANCH   2   7
HETATM    7  N   UNK N   1      21.413  17.315   3.704  0.00  0.00    -0.304 N 
HETATM    8  C   UNK N   1      20.930  18.607   3.525  0.00  0.00     0.225 C 
HETATM    9  O   UNK N   1      21.234  19.507   4.285  0.00  0.00    -0.273 OA
BRANCH   7  10
HETATM   10  C   UNK N   1      20.851  16.218   2.915  0.00  0.00     0.038 A 
HETATM   11  C   UNK N   1      21.405  15.839   1.676  0.00  0.00     0.030 A 
HETATM   12  C   UNK N   1      20.912  14.755   0.949  0.00  0.00     0.002 A 
HETATM   13  C   UNK N   1      19.852  14.006   1.454  0.00  0.00     0.000 A 
HETATM   14  C   UNK N   1      19.283  14.350   2.680  0.00  0.00     0.002 A 
HETATM   15  C   UNK N   1      19.778  15.441   3.402  0.00  0.00     0.030 A 
ENDBRANCH   7  10
BRANCH   8  16
HETATM   16  C   UNK N   1      20.012  18.977   2.388  0.00  0.00     0.099 C 
HETATM   17  C   UNK N   1      20.699  19.952   1.444  0.00  0.00     0.014 C 
ENDBRANCH   8  16
ENDBRANCH   2   7
BRANCH   2  18
HETATM   18  C   UNK N   1      23.893  17.417   4.537  0.00  0.00    -0.029 A 
HETATM   19  C   UNK N   1      24.351  18.670   4.994  0.00  0.00     0.010 A 
HETATM   20  C   UNK N   1      25.639  19.116   4.681  0.00  0.00     0.001 A 
HETATM   21  C   UNK N   1      26.472  18.346   3.867  0.00  0.00     0.000 A 
HETATM   22  C   UNK N   1      26.026  17.116   3.380  0.00  0.00     0.001 A 
HETATM   23  C   UNK N   1      24.752  16.654   3.716  0.00  0.00     0.010 A 
ENDBRANCH   2  18
BRANCH   1  24
HETATM   24  C   UNK N   1      21.522  15.064   8.481  0.00  0.00     0.277 C 
BRANCH  24  25
HETATM   25  C   UNK N   1      21.175  13.609   8.793  0.00  0.00     0.068 C 
BRANCH  25  26
HETATM   26  C   UNK N   1      22.215  13.042   9.690  0.00  0.00    -0.057 A 
HETATM   27  C   UNK N   1      21.835  12.453  10.900  0.00  0.00     0.007 A 
HETATM   28  C   UNK N   1      22.808  11.943  11.764  0.00  0.00     0.001 A 
HETATM   29  C   UNK N   1      24.161  12.024  11.420  0.00  0.00     0.000 A 
HETATM   30  C   UNK N   1      24.542  12.609  10.209  0.00  0.00     0.001 A 
HETATM   31  C   UNK N   1      23.571  13.117   9.343  0.00  0.00     0.007 A 
ENDBRANCH  25  26
ENDBRANCH  24  25
ENDBRANCH   1  24
TORSDOF 7
ENDMDL
MODEL 4
REMARK VINA RESULT:      -6.9     10.606     13.586
REMARK  7 active torsions:
REMARK  status: ('A' for Active; 'I' for Inactive)
REMARK    1  A    between atoms: N_2  and  C_10 
REMARK    2  A    between atoms: N_3  and  C_4 
REMARK    3  A    between atoms: N_3  and  C_11 
REMARK       I    between atoms: N_3  and  C_12 
REMARK    4  A    between atoms: C_4  and  C_9 
REMARK    5  A    between atoms: C_10  and  C_15 
REMARK    6  A    between atoms: C_12  and  C_16 
REMARK    7  A    between atoms: C_15  and  C_21 
ROOT
HETATM    1  N   UNK N   1      25.976  15.540   4.187  0.00  0.00     0.088 N 
HETATM    2  C   UNK N   1      27.892  17.560   5.241  0.00  0.00     0.071 C 
HETATM    3  C   UNK N   1      27.776  17.134   3.760  0.00  0.00     0.067 C 
HETATM    4  C   UNK N   1      27.079  16.607   6.162  0.00  0.00     0.067 C 
HETATM    5  C   UNK N   1      27.331  15.680   3.636  0.00  0.00     0.275 C 
HETATM    6  C   UNK N   1      25.782  16.101   5.537  0.00  0.00     0.275 C 
ENDROOT
BRANCH   2   7
HETATM    7  N   UNK N   1      27.336  18.948   5.434  0.00  0.00    -0.304 N 
HETATM    8  C   UNK N   1      27.657  19.722   6.545  0.00  0.00     0.225 C 
HETATM    9  O   UNK N   1      28.322  19.273   7.458  0.00  0.00    -0.273 OA
BRANCH   7  10
HETATM   10  C   UNK N   1      26.352  19.441   4.470  0.00  0.00     0.038 A 
HETATM   11  C   UNK N   1      24.978  19.158   4.604  0.00  0.00     0.030 A 
HETATM   12  C   UNK N   1      24.029  19.677   3.723  0.00  0.00     0.002 A 
HETATM   13  C   UNK N   1      24.432  20.512   2.683  0.00  0.00     0.000 A 
HETATM   14  C   UNK N   1      25.783  20.818   2.524  0.00  0.00     0.002 A 
HETATM   15  C   UNK N   1      26.731  20.290   3.408  0.00  0.00     0.030 A 
ENDBRANCH   7  10
BRANCH   8  16
HETATM   16  C   UNK N   1      27.213  21.156   6.687  0.00  0.00     0.099 C 
HETATM   17  C   UNK N   1      26.040  21.259   7.650  0.00  0.00     0.014 C 
ENDBRANCH   8  16
ENDBRANCH   2   7
BRANCH   2  18
HETATM   18  C   UNK N   1      29.392  17.329   5.515  0.00  0.00    -0.029 A 
HETATM   19  C   UNK N   1      30.367  17.779   4.601  0.00  0.00     0.010 A 
HETATM   20  C   UNK N   1      31.717  17.463   4.787  0.00  0.00     0.001 A 
HETATM   21  C   UNK N   1      32.110  16.654   5.855  0.00  0.00     0.000 A 
HETATM   22  C   UNK N   1      31.156  16.175   6.753  0.00  0.00     0.001 A 
HETATM   23  C   UNK N   1      29.812  16.513   6.589  0.00  0.00     0.010 A 
ENDBRANCH   2  18
BRANCH   1  24
HETATM   24  C   UNK N   1      25.558  14.144   4.148  0.00  0.00     0.277 C 
BRANCH  24  25
HETATM   25  C   UNK N   1      26.263  13.344   3.054  0.00  0.00     0.068 C 
BRANCH  25  26
HETATM   26  C   UNK N   1      25.302  13.070   1.954  0.00  0.00    -0.057 A 
HETATM   27  C   UNK N   1      25.201  11.777   1.435  0.00  0.00     0.007 A 
HETATM   28  C   UNK N   1      24.321  11.515   0.381  0.00  0.00     0.001 A 
HETATM   29  C   UNK N   1      23.544  12.547  -0.155  0.00  0.00     0.000 A 
HETATM   30  C   UNK N   1      23.642  13.840   0.367  0.00  0.00     0.001 A 
HETATM   31  C   UNK N   1      24.519  14.102   1.421  0.00  0.00     0.007 A 
ENDBRANCH  25  26
ENDBRANCH  24  25
ENDBRANCH   1  24
TORSDOF 7
ENDMDL
MODEL 5
REMARK VINA RESULT:      -6.9     12.032     14.929
REMARK  7 active torsions:
REMARK  status: ('A' for Active; 'I' for Inactive)
REMARK    1  A    between atoms: N_2  and  C_10 
REMARK    2  A    between atoms: N_3  and  C_4 
REMARK    3  A    between atoms: N_3  and  C_11 
REMARK       I    between atoms: N_3  and  C_12 
REMARK    4  A    between atoms: C_4  and  C_9 
REMARK    5  A    between atoms: C_10  and  C_15 
REMARK    6  A    between atoms: C_12  and  C_16 
REMARK    7  A    between atoms: C_15  and  C_21 
ROOT
HETATM    1  N   UNK N   1      25.988  15.264   5.615  0.00  0.00     0.088 N 
HETATM    2  C   UNK N   1      28.020  17.439   5.679  0.00  0.00     0.071 C 
HETATM    3  C   UNK N   1      27.521  16.726   4.401  0.00  0.00     0.067 C 
HETATM    4  C   UNK N   1      27.539  16.696   6.957  0.00  0.00     0.067 C 
HETATM    5  C   UNK N   1      27.130  15.280   4.691  0.00  0.00     0.275 C 
HETATM    6  C   UNK N   1      26.146  16.085   6.830  0.00  0.00     0.275 C 
ENDROOT
BRANCH   2   7
HETATM    7  N   UNK N   1      27.472  18.842   5.746  0.00  0.00    -0.304 N 
HETATM    8  C   UNK N   1      27.772  19.700   6.799  0.00  0.00     0.225 C 
HETATM    9  O   UNK N   1      28.410  19.320   7.763  0.00  0.00    -0.273 OA
BRANCH   7  10
HETATM   10  C   UNK N   1      26.518  19.263   4.720  0.00  0.00     0.038 A 
HETATM   11  C   UNK N   1      25.150  18.935   4.802  0.00  0.00     0.030 A 
HETATM   12  C   UNK N   1      24.225  19.387   3.860  0.00  0.00     0.002 A 
HETATM   13  C   UNK N   1      24.647  20.197   2.808  0.00  0.00     0.000 A 
HETATM   14  C   UNK N   1      25.993  20.546   2.699  0.00  0.00     0.002 A 
HETATM   15  C   UNK N   1      26.916  20.086   3.644  0.00  0.00     0.030 A 
ENDBRANCH   7  10
BRANCH   8  16
HETATM   16  C   UNK N   1      27.338  21.144   6.814  0.00  0.00     0.099 C 
HETATM   17  C   UNK N   1      26.087  21.316   7.662  0.00  0.00     0.014 C 
ENDBRANCH   8  16
ENDBRANCH   2   7
BRANCH   2  18
HETATM   18  C   UNK N   1      29.546  17.255   5.563  0.00  0.00    -0.029 A 
HETATM   19  C   UNK N   1      30.306  16.836   6.674  0.00  0.00     0.010 A 
HETATM   20  C   UNK N   1      31.703  16.787   6.606  0.00  0.00     0.001 A 
HETATM   21  C   UNK N   1      32.365  17.203   5.449  0.00  0.00     0.000 A 
HETATM   22  C   UNK N   1      31.632  17.649   4.349  0.00  0.00     0.001 A 
HETATM   23  C   UNK N   1      30.237  17.670   4.403  0.00  0.00     0.010 A 
ENDBRANCH   2  18
BRANCH   1  24
HETATM   24  C   UNK N   1      25.643  13.892   5.967  0.00  0.00     0.277 C 
BRANCH  24  25
HETATM   25  C   UNK N   1      24.143  13.692   6.176  0.00  0.00     0.068 C 
BRANCH  25  26
HETATM   26  C   UNK N   1      23.905  13.204   7.560  0.00  0.00    -0.057 A 
HETATM   27  C   UNK N   1      22.642  12.722   7.912  0.00  0.00     0.007 A 
HETATM   28  C   UNK N   1      22.399  12.288   9.218  0.00  0.00     0.001 A 
HETATM   29  C   UNK N   1      23.420  12.338  10.173  0.00  0.00     0.000 A 
HETATM   30  C   UNK N   1      24.685  12.817   9.820  0.00  0.00     0.001 A 
HETATM   31  C   UNK N   1      24.929  13.248   8.515  0.00  0.00     0.007 A 
ENDBRANCH  25  26
ENDBRANCH  24  25
ENDBRANCH   1  24
TORSDOF 7
ENDMDL
MODEL 6
REMARK VINA RESULT:      -6.9      2.231      7.035
REMARK  7 active torsions:
REMARK  status: ('A' for Active; 'I' for Inactive)
REMARK    1  A    between atoms: N_2  and  C_10 
REMARK    2  A    between atoms: N_3  and  C_4 
REMARK    3  A    between atoms: N_3  and  C_11 
REMARK       I    between atoms: N_3  and  C_12 
REMARK    4  A    between atoms: C_4  and  C_9 
REMARK    5  A    between atoms: C_10  and  C_15 
REMARK    6  A    between atoms: C_12  and  C_16 
REMARK    7  A    between atoms: C_15  and  C_21 
ROOT
HETATM    1  N   UNK N   1      25.352  25.807  -5.894  0.00  0.00     0.088 N 
HETATM    2  C   UNK N   1      27.591  23.847  -5.977  0.00  0.00     0.071 C 
HETATM    3  C   UNK N   1      26.488  23.890  -4.895  0.00  0.00     0.067 C 
HETATM    4  C   UNK N   1      27.553  25.123  -6.865  0.00  0.00     0.067 C 
HETATM    5  C   UNK N   1      25.993  25.314  -4.666  0.00  0.00     0.275 C 
HETATM    6  C   UNK N   1      26.146  25.653  -7.127  0.00  0.00     0.275 C 
ENDROOT
BRANCH   2   7
HETATM    7  N   UNK N   1      27.389  22.664  -6.889  0.00  0.00    -0.304 N 
HETATM    8  C   UNK N   1      26.126  22.137  -7.143  0.00  0.00     0.225 C 
HETATM    9  O   UNK N   1      25.141  22.547  -6.561  0.00  0.00    -0.273 OA
BRANCH   7  10
HETATM   10  C   UNK N   1      28.572  21.999  -7.434  0.00  0.00     0.038 A 
HETATM   11  C   UNK N   1      29.107  20.837  -6.842  0.00  0.00     0.030 A 
HETATM   12  C   UNK N   1      30.197  20.163  -7.393  0.00  0.00     0.002 A 
HETATM   13  C   UNK N   1      30.779  20.631  -8.569  0.00  0.00     0.000 A 
HETATM   14  C   UNK N   1      30.272  21.774  -9.185  0.00  0.00     0.002 A 
HETATM   15  C   UNK N   1      29.182  22.449  -8.625  0.00  0.00     0.030 A 
ENDBRANCH   7  10
BRANCH   8  16
HETATM   16  C   UNK N   1      25.896  21.040  -8.151  0.00  0.00     0.099 C 
HETATM   17  C   UNK N   1      25.693  21.625  -9.540  0.00  0.00     0.014 C 
ENDBRANCH   8  16
ENDBRANCH   2   7
BRANCH   2  18
HETATM   18  C   UNK N   1      28.871  23.898  -5.119  0.00  0.00    -0.029 A 
HETATM   19  C   UNK N   1      28.953  23.181  -3.907  0.00  0.00     0.010 A 
HETATM   20  C   UNK N   1      30.063  23.323  -3.068  0.00  0.00     0.001 A 
HETATM   21  C   UNK N   1      31.084  24.216  -3.397  0.00  0.00     0.000 A 
HETATM   22  C   UNK N   1      31.007  24.956  -4.578  0.00  0.00     0.001 A 
HETATM   23  C   UNK N   1      29.916  24.795  -5.433  0.00  0.00     0.010 A 
ENDBRANCH   2  18
BRANCH   1  24
HETATM   24  C   UNK N   1      24.937  27.194  -5.723  0.00  0.00     0.277 C 
BRANCH  24  25
HETATM   25  C   UNK N   1      25.427  27.803  -4.411  0.00  0.00     0.068 C 
BRANCH  25  26
HETATM   26  C   UNK N   1      26.396  28.890  -4.709  0.00  0.00    -0.057 A 
HETATM   27  C   UNK N   1      27.299  28.736  -5.765  0.00  0.00     0.007 A 
HETATM   28  C   UNK N   1      28.233  29.739  -6.035  0.00  0.00     0.001 A 
HETATM   29  C   UNK N   1      28.267  30.895  -5.249  0.00  0.00     0.000 A 
HETATM   30  C   UNK N   1      27.362  31.051  -4.195  0.00  0.00     0.001 A 
HETATM   31  C   UNK N   1      26.425  30.051  -3.926  0.00  0.00     0.007 A 
ENDBRANCH  25  26
ENDBRANCH  24  25
ENDBRANCH   1  24
TORSDOF 7
ENDMDL
MODEL 7
REMARK VINA RESULT:      -6.9      1.343      2.397
REMARK  7 active torsions:
REMARK  status: ('A' for Active; 'I' for Inactive)
REMARK    1  A    between atoms: N_2  and  C_10 
REMARK    2  A    between atoms: N_3  and  C_4 
REMARK    3  A    between atoms: N_3  and  C_11 
REMARK       I    between atoms: N_3  and  C_12 
REMARK    4  A    between atoms: C_4  and  C_9 
REMARK    5  A    between atoms: C_10  and  C_15 
REMARK    6  A    between atoms: C_12  and  C_16 
REMARK    7  A    between atoms: C_15  and  C_21 
ROOT
HETATM    1  N   UNK N   1      29.587  24.508  -3.616  0.00  0.00     0.088 N 
HETATM    2  C   UNK N   1      27.787  24.483  -5.988  0.00  0.00     0.071 C 
HETATM    3  C   UNK N   1      27.319  24.403  -4.517  0.00  0.00     0.067 C 
HETATM    4  C   UNK N   1      29.327  24.298  -6.095  0.00  0.00     0.067 C 
HETATM    5  C   UNK N   1      28.357  23.704  -3.644  0.00  0.00     0.275 C 
HETATM    6  C   UNK N   1      30.106  24.914  -4.936  0.00  0.00     0.275 C 
ENDROOT
BRANCH   2   7
HETATM    7  N   UNK N   1      27.458  25.834  -6.571  0.00  0.00    -0.304 N 
HETATM    8  C   UNK N   1      27.357  26.974  -5.780  0.00  0.00     0.225 C 
HETATM    9  O   UNK N   1      27.431  26.911  -4.568  0.00  0.00    -0.273 OA
BRANCH   7  10
HETATM   10  C   UNK N   1      27.139  25.913  -7.997  0.00  0.00     0.038 A 
HETATM   11  C   UNK N   1      25.807  25.921  -8.457  0.00  0.00     0.030 A 
HETATM   12  C   UNK N   1      25.496  26.060  -9.810  0.00  0.00     0.002 A 
HETATM   13  C   UNK N   1      26.518  26.209 -10.745  0.00  0.00     0.000 A 
HETATM   14  C   UNK N   1      27.847  26.211 -10.324  0.00  0.00     0.002 A 
HETATM   15  C   UNK N   1      28.153  26.067  -8.967  0.00  0.00     0.030 A 
ENDBRANCH   7  10
BRANCH   8  16
HETATM   16  C   UNK N   1      27.158  28.349  -6.365  0.00  0.00     0.099 C 
HETATM   17  C   UNK N   1      28.498  29.032  -6.589  0.00  0.00     0.014 C 
ENDBRANCH   8  16
ENDBRANCH   2   7
BRANCH   2  18
HETATM   18  C   UNK N   1      27.111  23.239  -6.598  0.00  0.00    -0.029 A 
HETATM   19  C   UNK N   1      27.793  22.439  -7.538  0.00  0.00     0.010 A 
HETATM   20  C   UNK N   1      27.140  21.383  -8.184  0.00  0.00     0.001 A 
HETATM   21  C   UNK N   1      25.786  21.141  -7.942  0.00  0.00     0.000 A 
HETATM   22  C   UNK N   1      25.087  21.940  -7.038  0.00  0.00     0.001 A 
HETATM   23  C   UNK N   1      25.743  22.975  -6.369  0.00  0.00     0.010 A 
ENDBRANCH   2  18
BRANCH   1  24
HETATM   24  C   UNK N   1      30.620  23.823  -2.849  0.00  0.00     0.277 C 
BRANCH  24  25
HETATM   25  C   UNK N   1      30.297  22.351  -2.601  0.00  0.00     0.068 C 
BRANCH  25  26
HETATM   26  C   UNK N   1      31.322  21.508  -3.268  0.00  0.00    -0.057 A 
HETATM   27  C   UNK N   1      30.962  20.731  -4.373  0.00  0.00     0.007 A 
HETATM   28  C   UNK N   1      31.912  19.912  -4.990  0.00  0.00     0.001 A 
HETATM   29  C   UNK N   1      33.222  19.869  -4.500  0.00  0.00     0.000 A 
HETATM   30  C   UNK N   1      33.584  20.649  -3.398  0.00  0.00     0.001 A 
HETATM   31  C   UNK N   1      32.636  21.469  -2.783  0.00  0.00     0.007 A 
ENDBRANCH  25  26
ENDBRANCH  24  25
ENDBRANCH   1  24
TORSDOF 7
ENDMDL
MODEL 8
REMARK VINA RESULT:      -6.8     13.925     16.107
REMARK  7 active torsions:
REMARK  status: ('A' for Active; 'I' for Inactive)
REMARK    1  A    between atoms: N_2  and  C_10 
REMARK    2  A    between atoms: N_3  and  C_4 
REMARK    3  A    between atoms: N_3  and  C_11 
REMARK       I    between atoms: N_3  and  C_12 
REMARK    4  A    between atoms: C_4  and  C_9 
REMARK    5  A    between atoms: C_10  and  C_15 
REMARK    6  A    between atoms: C_12  and  C_16 
REMARK    7  A    between atoms: C_15  and  C_21 
ROOT
HETATM    1  N   UNK N   1      21.651  14.318   6.276  0.00  0.00     0.088 N 
HETATM    2  C   UNK N   1      22.154  15.846   3.772  0.00  0.00     0.071 C 
HETATM    3  C   UNK N   1      22.753  16.187   5.156  0.00  0.00     0.067 C 
HETATM    4  C   UNK N   1      21.035  14.774   3.895  0.00  0.00     0.067 C 
HETATM    5  C   UNK N   1      21.809  15.779   6.282  0.00  0.00     0.275 C 
HETATM    6  C   UNK N   1      21.300  13.725   4.972  0.00  0.00     0.275 C 
ENDROOT
BRANCH   2   7
HETATM    7  N   UNK N   1      23.216  15.280   2.864  0.00  0.00    -0.304 N 
HETATM    8  C   UNK N   1      22.905  14.699   1.638  0.00  0.00     0.225 C 
HETATM    9  O   UNK N   1      21.751  14.534   1.292  0.00  0.00    -0.273 OA
BRANCH   7  10
HETATM   10  C   UNK N   1      24.598  15.256   3.344  0.00  0.00     0.038 A 
HETATM   11  C   UNK N   1      25.130  14.134   4.009  0.00  0.00     0.030 A 
HETATM   12  C   UNK N   1      26.465  14.081   4.414  0.00  0.00     0.002 A 
HETATM   13  C   UNK N   1      27.312  15.155   4.150  0.00  0.00     0.000 A 
HETATM   14  C   UNK N   1      26.820  16.279   3.488  0.00  0.00     0.002 A 
HETATM   15  C   UNK N   1      25.480  16.329   3.090  0.00  0.00     0.030 A 
ENDBRANCH   7  10
BRANCH   8  16
HETATM   16  C   UNK N   1      23.964  14.248   0.665  0.00  0.00     0.099 C 
HETATM   17  C   UNK N   1      23.512  12.997  -0.073  0.00  0.00     0.014 C 
ENDBRANCH   8  16
ENDBRANCH   2   7
BRANCH   2  18
HETATM   18  C   UNK N   1      21.495  17.185   3.380  0.00  0.00    -0.029 A 
HETATM   19  C   UNK N   1      22.151  18.408   3.626  0.00  0.00     0.010 A 
HETATM   20  C   UNK N   1      21.505  19.625   3.385  0.00  0.00     0.001 A 
HETATM   21  C   UNK N   1      20.181  19.643   2.944  0.00  0.00     0.000 A 
HETATM   22  C   UNK N   1      19.505  18.442   2.723  0.00  0.00     0.001 A 
HETATM   23  C   UNK N   1      20.156  17.226   2.933  0.00  0.00     0.010 A 
ENDBRANCH   2  18
BRANCH   1  24
HETATM   24  C   UNK N   1      20.694  13.910   7.297  0.00  0.00     0.277 C 
BRANCH  24  25
HETATM   25  C   UNK N   1      20.914  14.616   8.633  0.00  0.00     0.068 C 
BRANCH  25  26
HETATM   26  C   UNK N   1      21.515  13.658   9.598  0.00  0.00    -0.057 A 
HETATM   27  C   UNK N   1      20.697  13.020  10.534  0.00  0.00     0.007 A 
HETATM   28  C   UNK N   1      21.256  12.140  11.464  0.00  0.00     0.001 A 
HETATM   29  C   UNK N   1      22.634  11.899  11.460  0.00  0.00     0.000 A 
HETATM   30  C   UNK N   1      23.452  12.534  10.521  0.00  0.00     0.001 A 
HETATM   31  C   UNK N   1      22.894  13.412   9.589  0.00  0.00     0.007 A 
ENDBRANCH  25  26
ENDBRANCH  24  25
ENDBRANCH   1  24
TORSDOF 7
ENDMDL
MODEL 9
REMARK VINA RESULT:      -6.8     16.208     20.473
REMARK  7 active torsions:
REMARK  status: ('A' for Active; 'I' for Inactive)
REMARK    1  A    between atoms: N_2  and  C_10 
REMARK    2  A    between atoms: N_3  and  C_4 
REMARK    3  A    between atoms: N_3  and  C_11 
REMARK       I    between atoms: N_3  and  C_12 
REMARK    4  A    between atoms: C_4  and  C_9 
REMARK    5  A    between atoms: C_10  and  C_15 
REMARK    6  A    between atoms: C_12  and  C_16 
REMARK    7  A    between atoms: C_15  and  C_21 
ROOT
HETATM    1  N   UNK N   1      35.798  13.737  12.079  0.00  0.00     0.088 N 
HETATM    2  C   UNK N   1      35.102  14.751   9.368  0.00  0.00     0.071 C 
HETATM    3  C   UNK N   1      36.059  15.451  10.360  0.00  0.00     0.067 C 
HETATM    4  C   UNK N   1      34.327  13.595  10.061  0.00  0.00     0.067 C 
HETATM    5  C   UNK N   1      35.658  15.174  11.805  0.00  0.00     0.275 C 
HETATM    6  C   UNK N   1      35.145  12.841  11.105  0.00  0.00     0.275 C 
ENDROOT
BRANCH   2   7
HETATM    7  N   UNK N   1      35.877  14.146   8.226  0.00  0.00    -0.304 N 
HETATM    8  C   UNK N   1      37.224  13.814   8.343  0.00  0.00     0.225 C 
HETATM    9  O   UNK N   1      37.858  14.091   9.343  0.00  0.00    -0.273 OA
BRANCH   7  10
HETATM   10  C   UNK N   1      35.209  14.004   6.932  0.00  0.00     0.038 A 
HETATM   11  C   UNK N   1      34.373  12.906   6.648  0.00  0.00     0.030 A 
HETATM   12  C   UNK N   1      33.683  12.797   5.440  0.00  0.00     0.002 A 
HETATM   13  C   UNK N   1      33.804  13.800   4.481  0.00  0.00     0.000 A 
HETATM   14  C   UNK N   1      34.619  14.904   4.731  0.00  0.00     0.002 A 
HETATM   15  C   UNK N   1      35.311  15.005   5.942  0.00  0.00     0.030 A 
ENDBRANCH   7  10
BRANCH   8  16
HETATM   16  C   UNK N   1      37.976  13.091   7.255  0.00  0.00     0.099 C 
HETATM   17  C   UNK N   1      39.070  13.979   6.683  0.00  0.00     0.014 C 
ENDBRANCH   8  16
ENDBRANCH   2   7
BRANCH   2  18
HETATM   18  C   UNK N   1      34.099  15.880   9.054  0.00  0.00    -0.029 A 
HETATM   19  C   UNK N   1      32.724  15.601   8.914  0.00  0.00     0.010 A 
HETATM   20  C   UNK N   1      31.831  16.599   8.509  0.00  0.00     0.001 A 
HETATM   21  C   UNK N   1      32.301  17.875   8.188  0.00  0.00     0.000 A 
HETATM   22  C   UNK N   1      33.662  18.161   8.291  0.00  0.00     0.001 A 
HETATM   23  C   UNK N   1      34.552  17.177   8.725  0.00  0.00     0.010 A 
ENDBRANCH   2  18
BRANCH   1  24
HETATM   24  C   UNK N   1      35.349  13.435  13.432  0.00  0.00     0.277 C 
BRANCH  24  25
HETATM   25  C   UNK N   1      36.488  13.005  14.354  0.00  0.00     0.068 C 
BRANCH  25  26
HETATM   26  C   UNK N   1      36.465  13.842  15.581  0.00  0.00    -0.057 A 
HETATM   27  C   UNK N   1      35.635  13.481  16.646  0.00  0.00     0.007 A 
HETATM   28  C   UNK N   1      35.584  14.277  17.793  0.00  0.00     0.001 A 
HETATM   29  C   UNK N   1      36.361  15.438  17.875  0.00  0.00     0.000 A 
HETATM   30  C   UNK N   1      37.194  15.798  16.812  0.00  0.00     0.001 A 
HETATM   31  C   UNK N   1      37.248  15.001  15.666  0.00  0.00     0.007 A 
ENDBRANCH  25  26
ENDBRANCH  24  25
ENDBRANCH   1  24
TORSDOF 7
ENDMDL
