MODEL 1
REMARK VINA RESULT:      -5.9      0.000      0.000
REMARK  6 active torsions:
REMARK  status: ('A' for Active; 'I' for Inactive)
REMARK    1  A    between atoms: C_3  and  C_1 
REMARK       I    between atoms: C_1  and  N_5 
REMARK    2  A    between atoms: C_10  and  N_5 
REMARK    3  A    between atoms: N_5  and  C_7 
REMARK    4  A    between atoms: C_13  and  N_6 
REMARK    5  A    between atoms: C_14  and  C_13 
REMARK    6  A    between atoms: C_15  and  C_14 
ROOT
HETATM    1  N   UNK N   1      30.577  14.851   4.112  0.00  0.00     0.088 N 
HETATM    2  C   UNK N   1      29.214  16.938   5.396  0.00  0.00     0.096 C 
HETATM    3  C   UNK N   1      29.796  17.220   4.007  0.00  0.00     0.056 C 
HETATM    4  C   UNK N   1      28.608  15.553   5.542  0.00  0.00     0.056 C 
HETATM    5  C   UNK N   1      29.715  14.524   5.267  0.00  0.00     0.274 C 
HETATM    6  C   UNK N   1      30.030  15.907   3.246  0.00  0.00     0.274 C 
ENDROOT
BRANCH   2   7
HETATM    7  N   UNK N   1      28.393  18.001   5.960  0.00  0.00    -0.313 N 
HETATM    8  C   UNK N   1      28.580  18.421   7.267  0.00  0.00     0.224 C 
HETATM    9  O   UNK N   1      27.912  19.326   7.740  0.00  0.00    -0.273 OA
BRANCH   7  10
HETATM   10  C   UNK N   1      27.426  18.614   5.076  0.00  0.00     0.037 A 
HETATM   11  C   UNK N   1      26.191  17.973   4.844  0.00  0.00     0.030 A 
HETATM   12  C   UNK N   1      25.250  18.517   3.969  0.00  0.00     0.002 A 
HETATM   13  C   UNK N   1      25.522  19.716   3.311  0.00  0.00     0.000 A 
HETATM   14  C   UNK N   1      26.735  20.371   3.529  0.00  0.00     0.002 A 
HETATM   15  C   UNK N   1      27.681  19.822   4.401  0.00  0.00     0.030 A 
ENDBRANCH   7  10
BRANCH   8  16
HETATM   16  C   UNK N   1      29.605  17.772   8.156  0.00  0.00     0.099 C 
HETATM   17  C   UNK N   1      30.049  18.717   9.254  0.00  0.00     0.014 C 
ENDBRANCH   8  16
ENDBRANCH   2   7
BRANCH   1  18
HETATM   18  C   UNK N   1      31.898  15.272   4.570  0.00  0.00     0.277 C 
BRANCH  18  19
HETATM   19  C   UNK N   1      32.171  14.843   6.009  0.00  0.00     0.076 C 
BRANCH  19  20
HETATM   20  C   UNK N   1      32.726  15.915   6.905  0.00  0.00    -0.016 A 
HETATM   21  S   UNK N   1      33.098  15.828   8.518  0.00  0.00    -0.106 SA
HETATM   22  C   UNK N   1      33.591  17.386   8.790  0.00  0.00     0.050 A 
HETATM   23  C   UNK N   1      33.473  18.044   7.558  0.00  0.00     0.008 A 
HETATM   24  C   UNK N   1      32.984  17.223   6.502  0.00  0.00     0.015 A 
ENDBRANCH  19  20
ENDBRANCH  18  19
ENDBRANCH   1  18
TORSDOF 6
ENDMDL
MODEL 2
REMARK VINA RESULT:      -5.9      1.151      1.595
REMARK  6 active torsions:
REMARK  status: ('A' for Active; 'I' for Inactive)
REMARK    1  A    between atoms: C_3  and  C_1 
REMARK       I    between atoms: C_1  and  N_5 
REMARK    2  A    between atoms: C_10  and  N_5 
REMARK    3  A    between atoms: N_5  and  C_7 
REMARK    4  A    between atoms: C_13  and  N_6 
REMARK    5  A    between atoms: C_14  and  C_13 
REMARK    6  A    between atoms: C_15  and  C_14 
ROOT
HETATM    1  N   UNK N   1      29.588  15.177   4.392  0.00  0.00     0.088 N 
HETATM    2  C   UNK N   1      28.336  17.502   5.333  0.00  0.00     0.096 C 
HETATM    3  C   UNK N   1      28.827  17.500   3.882  0.00  0.00     0.056 C 
HETATM    4  C   UNK N   1      27.727  16.186   5.782  0.00  0.00     0.056 C 
HETATM    5  C   UNK N   1      28.802  15.097   5.641  0.00  0.00     0.274 C 
HETATM    6  C   UNK N   1      28.995  16.059   3.375  0.00  0.00     0.274 C 
ENDROOT
BRANCH   2   7
HETATM    7  N   UNK N   1      27.566  18.673   5.734  0.00  0.00    -0.313 N 
HETATM    8  C   UNK N   1      27.798  19.290   6.952  0.00  0.00     0.224 C 
HETATM    9  O   UNK N   1      27.173  20.284   7.284  0.00  0.00    -0.273 OA
BRANCH   7  10
HETATM   10  C   UNK N   1      26.601  19.172   4.779  0.00  0.00     0.037 A 
HETATM   11  C   UNK N   1      26.977  20.190   3.877  0.00  0.00     0.030 A 
HETATM   12  C   UNK N   1      26.062  20.720   2.966  0.00  0.00     0.002 A 
HETATM   13  C   UNK N   1      24.753  20.240   2.935  0.00  0.00     0.000 A 
HETATM   14  C   UNK N   1      24.360  19.229   3.814  0.00  0.00     0.002 A 
HETATM   15  C   UNK N   1      25.275  18.704   4.731  0.00  0.00     0.030 A 
ENDBRANCH   7  10
BRANCH   8  16
HETATM   16  C   UNK N   1      28.821  18.753   7.917  0.00  0.00     0.099 C 
HETATM   17  C   UNK N   1      28.156  17.992   9.045  0.00  0.00     0.014 C 
ENDBRANCH   8  16
ENDBRANCH   2   7
BRANCH   1  18
HETATM   18  C   UNK N   1      30.941  15.647   4.676  0.00  0.00     0.277 C 
BRANCH  18  19
HETATM   19  C   UNK N   1      31.372  15.330   6.105  0.00  0.00     0.076 C 
BRANCH  19  20
HETATM   20  C   UNK N   1      32.266  16.353   6.749  0.00  0.00    -0.016 A 
HETATM   21  S   UNK N   1      33.798  16.812   6.312  0.00  0.00    -0.106 SA
HETATM   22  C   UNK N   1      34.126  17.913   7.505  0.00  0.00     0.050 A 
HETATM   23  C   UNK N   1      32.982  17.952   8.314  0.00  0.00     0.008 A 
HETATM   24  C   UNK N   1      31.941  17.074   7.894  0.00  0.00     0.015 A 
ENDBRANCH  19  20
ENDBRANCH  18  19
ENDBRANCH   1  18
TORSDOF 6
ENDMDL
MODEL 3
REMARK VINA RESULT:      -5.7     11.009     13.707
REMARK  6 active torsions:
REMARK  status: ('A' for Active; 'I' for Inactive)
REMARK    1  A    between atoms: C_3  and  C_1 
REMARK       I    between atoms: C_1  and  N_5 
REMARK    2  A    between atoms: C_10  and  N_5 
REMARK    3  A    between atoms: N_5  and  C_7 
REMARK    4  A    between atoms: C_13  and  N_6 
REMARK    5  A    between atoms: C_14  and  C_13 
REMARK    6  A    between atoms: C_15  and  C_14 
ROOT
HETATM    1  N   UNK N   1      26.752  22.761  -8.601  0.00  0.00     0.088 N 
HETATM    2  C   UNK N   1      27.138  23.891  -6.064  0.00  0.00     0.096 C 
HETATM    3  C   UNK N   1      27.523  24.736  -7.282  0.00  0.00     0.056 C 
HETATM    4  C   UNK N   1      25.866  23.082  -6.250  0.00  0.00     0.056 C 
HETATM    5  C   UNK N   1      26.081  22.136  -7.442  0.00  0.00     0.274 C 
HETATM    6  C   UNK N   1      26.797  24.230  -8.538  0.00  0.00     0.274 C 
ENDROOT
BRANCH   2   7
HETATM    7  N   UNK N   1      27.220  24.570  -4.777  0.00  0.00    -0.313 N 
HETATM    8  C   UNK N   1      26.273  25.514  -4.414  0.00  0.00     0.224 C 
HETATM    9  O   UNK N   1      26.322  26.071  -3.329  0.00  0.00    -0.273 OA
BRANCH   7  10
HETATM   10  C   UNK N   1      28.297  24.170  -3.899  0.00  0.00     0.037 A 
HETATM   11  C   UNK N   1      29.612  24.605  -4.168  0.00  0.00     0.030 A 
HETATM   12  C   UNK N   1      30.681  24.208  -3.363  0.00  0.00     0.002 A 
HETATM   13  C   UNK N   1      30.457  23.373  -2.270  0.00  0.00     0.000 A 
HETATM   14  C   UNK N   1      29.163  22.934  -1.981  0.00  0.00     0.002 A 
HETATM   15  C   UNK N   1      28.094  23.326  -2.792  0.00  0.00     0.030 A 
ENDBRANCH   7  10
BRANCH   8  16
HETATM   16  C   UNK N   1      25.155  25.897  -5.346  0.00  0.00     0.099 C 
HETATM   17  C   UNK N   1      25.000  27.403  -5.419  0.00  0.00     0.014 C 
ENDBRANCH   8  16
ENDBRANCH   2   7
BRANCH   1  18
HETATM   18  C   UNK N   1      28.121  22.264  -8.719  0.00  0.00     0.277 C 
BRANCH  18  19
HETATM   19  C   UNK N   1      28.292  20.892  -8.075  0.00  0.00     0.076 C 
BRANCH  19  20
HETATM   20  C   UNK N   1      29.505  20.739  -7.202  0.00  0.00    -0.016 A 
HETATM   21  S   UNK N   1      30.874  19.844  -7.476  0.00  0.00    -0.106 SA
HETATM   22  C   UNK N   1      31.700  20.134  -6.070  0.00  0.00     0.050 A 
HETATM   23  C   UNK N   1      30.883  20.986  -5.315  0.00  0.00     0.008 A 
HETATM   24  C   UNK N   1      29.650  21.322  -5.946  0.00  0.00     0.015 A 
ENDBRANCH  19  20
ENDBRANCH  18  19
ENDBRANCH   1  18
TORSDOF 6
ENDMDL
MODEL 4
REMARK VINA RESULT:      -5.6      5.952      9.280
REMARK  6 active torsions:
REMARK  status: ('A' for Active; 'I' for Inactive)
REMARK    1  A    between atoms: C_3  and  C_1 
REMARK       I    between atoms: C_1  and  N_5 
REMARK    2  A    between atoms: C_10  and  N_5 
REMARK    3  A    between atoms: N_5  and  C_7 
REMARK    4  A    between atoms: C_13  and  N_6 
REMARK    5  A    between atoms: C_14  and  C_13 
REMARK    6  A    between atoms: C_15  and  C_14 
ROOT
HETATM    1  N   UNK N   1      22.526  15.407   4.914  0.00  0.00     0.088 N 
HETATM    2  C   UNK N   1      23.271  17.975   4.072  0.00  0.00     0.096 C 
HETATM    3  C   UNK N   1      22.600  17.846   5.443  0.00  0.00     0.056 C 
HETATM    4  C   UNK N   1      24.248  16.857   3.753  0.00  0.00     0.056 C 
HETATM    5  C   UNK N   1      23.472  15.531   3.785  0.00  0.00     0.274 C 
HETATM    6  C   UNK N   1      22.731  16.409   5.971  0.00  0.00     0.274 C 
ENDROOT
BRANCH   2   7
HETATM    7  N   UNK N   1      23.770  19.304   3.739  0.00  0.00    -0.313 N 
HETATM    8  C   UNK N   1      22.978  20.203   3.044  0.00  0.00     0.224 C 
HETATM    9  O   UNK N   1      23.380  21.325   2.782  0.00  0.00    -0.273 OA
BRANCH   7  10
HETATM   10  C   UNK N   1      25.094  19.637   4.215  0.00  0.00     0.037 A 
HETATM   11  C   UNK N   1      25.263  20.097   5.538  0.00  0.00     0.030 A 
HETATM   12  C   UNK N   1      26.522  20.461   6.020  0.00  0.00     0.002 A 
HETATM   13  C   UNK N   1      27.638  20.368   5.189  0.00  0.00     0.000 A 
HETATM   14  C   UNK N   1      27.496  19.911   3.878  0.00  0.00     0.002 A 
HETATM   15  C   UNK N   1      26.234  19.552   3.394  0.00  0.00     0.030 A 
ENDBRANCH   7  10
BRANCH   8  16
HETATM   16  C   UNK N   1      21.598  19.829   2.576  0.00  0.00     0.099 C 
HETATM   17  C   UNK N   1      20.538  20.407   3.493  0.00  0.00     0.014 C 
ENDBRANCH   8  16
ENDBRANCH   2   7
BRANCH   1  18
HETATM   18  C   UNK N   1      21.151  15.519   4.434  0.00  0.00     0.277 C 
BRANCH  18  19
HETATM   19  C   UNK N   1      20.870  14.576   3.268  0.00  0.00     0.076 C 
BRANCH  19  20
HETATM   20  C   UNK N   1      20.265  15.221   2.052  0.00  0.00    -0.016 A 
HETATM   21  S   UNK N   1      19.281  14.545   0.902  0.00  0.00    -0.106 SA
HETATM   22  C   UNK N   1      19.085  15.840  -0.114  0.00  0.00     0.050 A 
HETATM   23  C   UNK N   1      19.821  16.888   0.457  0.00  0.00     0.008 A 
HETATM   24  C   UNK N   1      20.486  16.541   1.668  0.00  0.00     0.015 A 
ENDBRANCH  19  20
ENDBRANCH  18  19
ENDBRANCH   1  18
TORSDOF 6
ENDMDL
MODEL 5
REMARK VINA RESULT:      -5.6      6.142      9.985
REMARK  6 active torsions:
REMARK  status: ('A' for Active; 'I' for Inactive)
REMARK    1  A    between atoms: C_3  and  C_1 
REMARK       I    between atoms: C_1  and  N_5 
REMARK    2  A    between atoms: C_10  and  N_5 
REMARK    3  A    between atoms: N_5  and  C_7 
REMARK    4  A    between atoms: C_13  and  N_6 
REMARK    5  A    between atoms: C_14  and  C_13 
REMARK    6  A    between atoms: C_15  and  C_14 
ROOT
HETATM    1  N   UNK N   1      34.033  15.316   8.950  0.00  0.00     0.088 N 
HETATM    2  C   UNK N   1      35.504  13.663  10.673  0.00  0.00     0.096 C 
HETATM    3  C   UNK N   1      34.461  14.592  11.301  0.00  0.00     0.056 C 
HETATM    4  C   UNK N   1      35.064  13.039   9.360  0.00  0.00     0.056 C 
HETATM    5  C   UNK N   1      34.778  14.179   8.370  0.00  0.00     0.274 C 
HETATM    6  C   UNK N   1      33.421  15.019  10.254  0.00  0.00     0.274 C 
ENDROOT
BRANCH   2   7
HETATM    7  N   UNK N   1      36.139  12.723  11.587  0.00  0.00    -0.313 N 
HETATM    8  C   UNK N   1      37.510  12.524  11.558  0.00  0.00     0.224 C 
HETATM    9  O   UNK N   1      38.052  11.755  12.335  0.00  0.00    -0.273 OA
BRANCH   7  10
HETATM   10  C   UNK N   1      35.276  12.062  12.542  0.00  0.00     0.037 A 
HETATM   11  C   UNK N   1      35.154  12.584  13.847  0.00  0.00     0.030 A 
HETATM   12  C   UNK N   1      34.358  11.953  14.804  0.00  0.00     0.002 A 
HETATM   13  C   UNK N   1      33.664  10.789  14.474  0.00  0.00     0.000 A 
HETATM   14  C   UNK N   1      33.765  10.258  13.187  0.00  0.00     0.002 A 
HETATM   15  C   UNK N   1      34.568  10.887  12.231  0.00  0.00     0.030 A 
ENDBRANCH   7  10
BRANCH   8  16
HETATM   16  C   UNK N   1      38.381  13.239  10.561  0.00  0.00     0.099 C 
HETATM   17  C   UNK N   1      38.998  12.263   9.580  0.00  0.00     0.014 C 
ENDBRANCH   8  16
ENDBRANCH   2   7
BRANCH   1  18
HETATM   18  C   UNK N   1      34.916  16.469   9.109  0.00  0.00     0.277 C 
BRANCH  18  19
HETATM   19  C   UNK N   1      34.308  17.743   8.531  0.00  0.00     0.076 C 
BRANCH  19  20
HETATM   20  C   UNK N   1      33.345  17.537   7.396  0.00  0.00    -0.016 A 
HETATM   21  S   UNK N   1      31.703  17.311   7.456  0.00  0.00    -0.106 SA
HETATM   22  C   UNK N   1      31.375  17.109   5.845  0.00  0.00     0.050 A 
HETATM   23  C   UNK N   1      32.608  17.224   5.187  0.00  0.00     0.008 A 
HETATM   24  C   UNK N   1      33.713  17.459   6.055  0.00  0.00     0.015 A 
ENDBRANCH  19  20
ENDBRANCH  18  19
ENDBRANCH   1  18
TORSDOF 6
ENDMDL
MODEL 6
REMARK VINA RESULT:      -5.5     11.849     13.826
REMARK  6 active torsions:
REMARK  status: ('A' for Active; 'I' for Inactive)
REMARK    1  A    between atoms: C_3  and  C_1 
REMARK       I    between atoms: C_1  and  N_5 
REMARK    2  A    between atoms: C_10  and  N_5 
REMARK    3  A    between atoms: N_5  and  C_7 
REMARK    4  A    between atoms: C_13  and  N_6 
REMARK    5  A    between atoms: C_14  and  C_13 
REMARK    6  A    between atoms: C_15  and  C_14 
ROOT
HETATM    1  N   UNK N   1      30.938  23.415  -4.087  0.00  0.00     0.088 N 
HETATM    2  C   UNK N   1      28.474  24.271  -5.116  0.00  0.00     0.096 C 
HETATM    3  C   UNK N   1      28.524  23.869  -3.639  0.00  0.00     0.056 C 
HETATM    4  C   UNK N   1      29.699  25.034  -5.591  0.00  0.00     0.056 C 
HETATM    5  C   UNK N   1      30.925  24.132  -5.380  0.00  0.00     0.274 C 
HETATM    6  C   UNK N   1      29.965  23.934  -3.113  0.00  0.00     0.274 C 
ENDROOT
BRANCH   2   7
HETATM    7  N   UNK N   1      27.213  24.845  -5.569  0.00  0.00    -0.313 N 
HETATM    8  C   UNK N   1      26.349  24.113  -6.367  0.00  0.00     0.224 C 
HETATM    9  O   UNK N   1      25.281  24.578  -6.732  0.00  0.00    -0.273 OA
BRANCH   7  10
HETATM   10  C   UNK N   1      26.902  26.178  -5.101  0.00  0.00     0.037 A 
HETATM   11  C   UNK N   1      26.246  26.345  -3.863  0.00  0.00     0.030 A 
HETATM   12  C   UNK N   1      25.898  27.614  -3.397  0.00  0.00     0.002 A 
HETATM   13  C   UNK N   1      26.204  28.742  -4.158  0.00  0.00     0.000 A 
HETATM   14  C   UNK N   1      26.857  28.601  -5.383  0.00  0.00     0.002 A 
HETATM   15  C   UNK N   1      27.199  27.330  -5.852  0.00  0.00     0.030 A 
ENDBRANCH   7  10
BRANCH   8  16
HETATM   16  C   UNK N   1      26.697  22.722  -6.824  0.00  0.00     0.099 C 
HETATM   17  C   UNK N   1      25.481  22.013  -7.383  0.00  0.00     0.014 C 
ENDBRANCH   8  16
ENDBRANCH   2   7
BRANCH   1  18
HETATM   18  C   UNK N   1      30.666  21.995  -4.296  0.00  0.00     0.277 C 
BRANCH  18  19
HETATM   19  C   UNK N   1      31.623  21.368  -5.305  0.00  0.00     0.076 C 
BRANCH  19  20
HETATM   20  C   UNK N   1      30.969  20.624  -6.435  0.00  0.00    -0.016 A 
HETATM   21  S   UNK N   1      31.678  19.717  -7.627  0.00  0.00    -0.106 SA
HETATM   22  C   UNK N   1      30.340  19.282  -8.501  0.00  0.00     0.050 A 
HETATM   23  C   UNK N   1      29.248  19.865  -7.843  0.00  0.00     0.008 A 
HETATM   24  C   UNK N   1      29.600  20.622  -6.688  0.00  0.00     0.015 A 
ENDBRANCH  19  20
ENDBRANCH  18  19
ENDBRANCH   1  18
TORSDOF 6
ENDMDL
MODEL 7
REMARK VINA RESULT:      -5.4     11.124     13.339
REMARK  6 active torsions:
REMARK  status: ('A' for Active; 'I' for Inactive)
REMARK    1  A    between atoms: C_3  and  C_1 
REMARK       I    between atoms: C_1  and  N_5 
REMARK    2  A    between atoms: C_10  and  N_5 
REMARK    3  A    between atoms: N_5  and  C_7 
REMARK    4  A    between atoms: C_13  and  N_6 
REMARK    5  A    between atoms: C_14  and  C_13 
REMARK    6  A    between atoms: C_15  and  C_14 
ROOT
HETATM    1  N   UNK N   1      30.551  23.442  -4.183  0.00  0.00     0.088 N 
HETATM    2  C   UNK N   1      28.248  24.556  -5.332  0.00  0.00     0.096 C 
HETATM    3  C   UNK N   1      28.136  24.012  -3.905  0.00  0.00     0.056 C 
HETATM    4  C   UNK N   1      29.554  25.276  -5.618  0.00  0.00     0.056 C 
HETATM    5  C   UNK N   1      30.701  24.278  -5.393  0.00  0.00     0.274 C 
HETATM    6  C   UNK N   1      29.523  23.930  -3.251  0.00  0.00     0.274 C 
ENDROOT
BRANCH   2   7
HETATM    7  N   UNK N   1      27.070  25.253  -5.834  0.00  0.00    -0.313 N 
HETATM    8  C   UNK N   1      26.243  24.659  -6.773  0.00  0.00     0.224 C 
HETATM    9  O   UNK N   1      25.243  25.227  -7.180  0.00  0.00    -0.273 OA
BRANCH   7  10
HETATM   10  C   UNK N   1      26.795  26.554  -5.264  0.00  0.00     0.037 A 
HETATM   11  C   UNK N   1      27.265  27.712  -5.917  0.00  0.00     0.030 A 
HETATM   12  C   UNK N   1      27.050  28.981  -5.378  0.00  0.00     0.002 A 
HETATM   13  C   UNK N   1      26.355  29.118  -4.177  0.00  0.00     0.000 A 
HETATM   14  C   UNK N   1      25.876  27.986  -3.516  0.00  0.00     0.002 A 
HETATM   15  C   UNK N   1      26.098  26.715  -4.053  0.00  0.00     0.030 A 
ENDBRANCH   7  10
BRANCH   8  16
HETATM   16  C   UNK N   1      26.550  23.297  -7.334  0.00  0.00     0.099 C 
HETATM   17  C   UNK N   1      25.465  22.303  -6.973  0.00  0.00     0.014 C 
ENDBRANCH   8  16
ENDBRANCH   2   7
BRANCH   1  18
HETATM   18  C   UNK N   1      30.218  22.070  -4.556  0.00  0.00     0.277 C 
BRANCH  18  19
HETATM   19  C   UNK N   1      30.942  21.046  -3.687  0.00  0.00     0.076 C 
BRANCH  19  20
HETATM   20  C   UNK N   1      32.377  20.791  -4.054  0.00  0.00    -0.016 A 
HETATM   21  S   UNK N   1      32.993  20.188  -5.470  0.00  0.00    -0.106 SA
HETATM   22  C   UNK N   1      34.606  20.150  -5.096  0.00  0.00     0.050 A 
HETATM   23  C   UNK N   1      34.706  20.639  -3.786  0.00  0.00     0.008 A 
HETATM   24  C   UNK N   1      33.457  20.994  -3.199  0.00  0.00     0.015 A 
ENDBRANCH  19  20
ENDBRANCH  18  19
ENDBRANCH   1  18
TORSDOF 6
ENDMDL
MODEL 8
REMARK VINA RESULT:      -5.3      7.416      9.148
REMARK  6 active torsions:
REMARK  status: ('A' for Active; 'I' for Inactive)
REMARK    1  A    between atoms: C_3  and  C_1 
REMARK       I    between atoms: C_1  and  N_5 
REMARK    2  A    between atoms: C_10  and  N_5 
REMARK    3  A    between atoms: N_5  and  C_7 
REMARK    4  A    between atoms: C_13  and  N_6 
REMARK    5  A    between atoms: C_14  and  C_13 
REMARK    6  A    between atoms: C_15  and  C_14 
ROOT
HETATM    1  N   UNK N   1      22.456  15.068   7.288  0.00  0.00     0.088 N 
HETATM    2  C   UNK N   1      21.879  15.671   4.611  0.00  0.00     0.096 C 
HETATM    3  C   UNK N   1      20.793  15.959   5.652  0.00  0.00     0.056 C 
HETATM    4  C   UNK N   1      23.287  15.993   5.081  0.00  0.00     0.056 C 
HETATM    5  C   UNK N   1      23.575  15.137   6.324  0.00  0.00     0.274 C 
HETATM    6  C   UNK N   1      21.411  16.076   7.054  0.00  0.00     0.274 C 
ENDROOT
BRANCH   2   7
HETATM    7  N   UNK N   1      21.591  16.133   3.259  0.00  0.00    -0.313 N 
HETATM    8  C   UNK N   1      21.681  15.267   2.181  0.00  0.00     0.224 C 
HETATM    9  O   UNK N   1      21.419  15.641   1.049  0.00  0.00    -0.273 OA
BRANCH   7  10
HETATM   10  C   UNK N   1      21.164  17.508   3.120  0.00  0.00     0.037 A 
HETATM   11  C   UNK N   1      22.098  18.549   3.308  0.00  0.00     0.030 A 
HETATM   12  C   UNK N   1      21.713  19.887   3.218  0.00  0.00     0.002 A 
HETATM   13  C   UNK N   1      20.388  20.213   2.933  0.00  0.00     0.000 A 
HETATM   14  C   UNK N   1      19.448  19.200   2.737  0.00  0.00     0.002 A 
HETATM   15  C   UNK N   1      19.832  17.859   2.835  0.00  0.00     0.030 A 
ENDBRANCH   7  10
BRANCH   8  16
HETATM   16  C   UNK N   1      22.114  13.838   2.363  0.00  0.00     0.099 C 
HETATM   17  C   UNK N   1      22.285  13.148   1.025  0.00  0.00     0.014 C 
ENDBRANCH   8  16
ENDBRANCH   2   7
BRANCH   1  18
HETATM   18  C   UNK N   1      21.837  13.746   7.248  0.00  0.00     0.277 C 
BRANCH  18  19
HETATM   19  C   UNK N   1      21.271  13.334   8.604  0.00  0.00     0.076 C 
BRANCH  19  20
HETATM   20  C   UNK N   1      22.286  12.863   9.607  0.00  0.00    -0.016 A 
HETATM   21  S   UNK N   1      23.937  12.800   9.461  0.00  0.00    -0.106 SA
HETATM   22  C   UNK N   1      24.335  12.133  10.924  0.00  0.00     0.050 A 
HETATM   23  C   UNK N   1      23.122  11.937  11.598  0.00  0.00     0.008 A 
HETATM   24  C   UNK N   1      21.973  12.342  10.859  0.00  0.00     0.015 A 
ENDBRANCH  19  20
ENDBRANCH  18  19
ENDBRANCH   1  18
TORSDOF 6
ENDMDL
MODEL 9
REMARK VINA RESULT:      -5.3      3.729      7.670
REMARK  6 active torsions:
REMARK  status: ('A' for Active; 'I' for Inactive)
REMARK    1  A    between atoms: C_3  and  C_1 
REMARK       I    between atoms: C_1  and  N_5 
REMARK    2  A    between atoms: C_10  and  N_5 
REMARK    3  A    between atoms: N_5  and  C_7 
REMARK    4  A    between atoms: C_13  and  N_6 
REMARK    5  A    between atoms: C_14  and  C_13 
REMARK    6  A    between atoms: C_15  and  C_14 
ROOT
HETATM    1  N   UNK N   1      24.710  15.255   4.130  0.00  0.00     0.088 N 
HETATM    2  C   UNK N   1      26.325  17.440   4.824  0.00  0.00     0.096 C 
HETATM    3  C   UNK N   1      26.076  16.374   5.896  0.00  0.00     0.056 C 
HETATM    4  C   UNK N   1      26.524  16.877   3.428  0.00  0.00     0.056 C 
HETATM    5  C   UNK N   1      25.253  16.102   3.047  0.00  0.00     0.274 C 
HETATM    6  C   UNK N   1      25.646  15.050   5.247  0.00  0.00     0.274 C 
ENDROOT
BRANCH   2   7
HETATM    7  N   UNK N   1      27.284  18.478   5.182  0.00  0.00    -0.313 N 
HETATM    8  C   UNK N   1      26.983  19.816   4.986  0.00  0.00     0.224 C 
HETATM    9  O   UNK N   1      27.772  20.692   5.304  0.00  0.00    -0.273 OA
BRANCH   7  10
HETATM   10  C   UNK N   1      28.521  18.037   5.789  0.00  0.00     0.037 A 
HETATM   11  C   UNK N   1      29.584  17.606   4.968  0.00  0.00     0.030 A 
HETATM   12  C   UNK N   1      30.778  17.141   5.520  0.00  0.00     0.002 A 
HETATM   13  C   UNK N   1      30.936  17.101   6.905  0.00  0.00     0.000 A 
HETATM   14  C   UNK N   1      29.899  17.528   7.737  0.00  0.00     0.002 A 
HETATM   15  C   UNK N   1      28.701  17.987   7.184  0.00  0.00     0.030 A 
ENDBRANCH   7  10
BRANCH   8  16
HETATM   16  C   UNK N   1      25.680  20.241   4.366  0.00  0.00     0.099 C 
HETATM   17  C   UNK N   1      25.855  20.548   2.892  0.00  0.00     0.014 C 
ENDBRANCH   8  16
ENDBRANCH   2   7
BRANCH   1  18
HETATM   18  C   UNK N   1      23.482  15.842   4.661  0.00  0.00     0.277 C 
BRANCH  18  19
HETATM   19  C   UNK N   1      22.371  15.894   3.617  0.00  0.00     0.076 C 
BRANCH  19  20
HETATM   20  C   UNK N   1      21.676  17.220   3.484  0.00  0.00    -0.016 A 
HETATM   21  S   UNK N   1      22.153  18.702   4.053  0.00  0.00    -0.106 SA
HETATM   22  C   UNK N   1      20.869  19.629   3.568  0.00  0.00     0.050 A 
HETATM   23  C   UNK N   1      19.992  18.755   2.912  0.00  0.00     0.008 A 
HETATM   24  C   UNK N   1      20.441  17.403   2.869  0.00  0.00     0.015 A 
ENDBRANCH  19  20
ENDBRANCH  18  19
ENDBRANCH   1  18
TORSDOF 6
ENDMDL
