MODEL 1
REMARK VINA RESULT:      -7.4      0.000      0.000
REMARK  6 active torsions:
REMARK  status: ('A' for Active; 'I' for Inactive)
REMARK    1  A    between atoms: N_2  and  C_9 
REMARK    2  A    between atoms: N_3  and  C_4 
REMARK    3  A    between atoms: N_3  and  C_11 
REMARK       I    between atoms: N_3  and  C_12 
REMARK    4  A    between atoms: C_9  and  C_10 
REMARK    5  A    between atoms: C_10  and  C_13 
REMARK    6  A    between atoms: C_12  and  C_15 
ROOT
HETATM    1  N   UNK N   1      34.820  14.734  10.948  0.00  0.00     0.089 N 
HETATM    2  C   UNK N   1      33.883  16.023   8.517  0.00  0.00     0.096 C 
HETATM    3  C   UNK N   1      33.082  14.928   9.218  0.00  0.00     0.056 C 
HETATM    4  C   UNK N   1      34.600  16.817   9.609  0.00  0.00     0.056 C 
HETATM    5  C   UNK N   1      34.085  14.011   9.904  0.00  0.00     0.274 C 
HETATM    6  C   UNK N   1      35.534  15.878  10.371  0.00  0.00     0.274 C 
ENDROOT
BRANCH   2   7
HETATM    7  N   UNK N   1      33.104  16.726   7.468  0.00  0.00    -0.313 N 
HETATM    8  C   UNK N   1      33.779  16.959   6.271  0.00  0.00     0.224 C 
HETATM    9  O   UNK N   1      34.945  16.591   6.159  0.00  0.00    -0.273 OA
BRANCH   7  10
HETATM   10  C   UNK N   1      31.735  17.212   7.696  0.00  0.00     0.037 A 
HETATM   11  C   UNK N   1      31.451  18.223   8.636  0.00  0.00     0.030 A 
HETATM   12  C   UNK N   1      30.146  18.654   8.889  0.00  0.00     0.002 A 
HETATM   13  C   UNK N   1      29.079  18.076   8.208  0.00  0.00     0.000 A 
HETATM   14  C   UNK N   1      29.322  17.076   7.269  0.00  0.00     0.002 A 
HETATM   15  C   UNK N   1      30.630  16.654   7.021  0.00  0.00     0.030 A 
ENDBRANCH   7  10
BRANCH   8  16
HETATM   16  C   UNK N   1      33.159  17.654   5.082  0.00  0.00     0.099 C 
HETATM   17  C   UNK N   1      32.897  16.728   3.903  0.00  0.00     0.014 C 
ENDBRANCH   8  16
ENDBRANCH   2   7
BRANCH   1  18
HETATM   18  C   UNK N   1      35.861  13.853  11.466  0.00  0.00     0.281 C 
BRANCH  18  19
HETATM   19  C   UNK N   1      35.286  12.729  12.322  0.00  0.00     0.043 C 
HETATM   20  C   UNK N   1      35.895  11.399  11.890  0.00  0.00     0.016 C 
BRANCH  19  21
HETATM   21  C   UNK N   1      35.490  13.031  13.786  0.00  0.00    -0.053 A 
HETATM   22  C   UNK N   1      34.631  12.445  14.726  0.00  0.00     0.007 A 
HETATM   23  C   UNK N   1      34.800  12.694  16.090  0.00  0.00     0.001 A 
HETATM   24  C   UNK N   1      35.831  13.527  16.527  0.00  0.00     0.000 A 
HETATM   25  C   UNK N   1      36.696  14.114  15.599  0.00  0.00     0.001 A 
HETATM   26  C   UNK N   1      36.526  13.869  14.233  0.00  0.00     0.007 A 
ENDBRANCH  19  21
ENDBRANCH  18  19
ENDBRANCH   1  18
TORSDOF 6
ENDMDL
MODEL 2
REMARK VINA RESULT:      -7.4      2.274      3.799
REMARK  6 active torsions:
REMARK  status: ('A' for Active; 'I' for Inactive)
REMARK    1  A    between atoms: N_2  and  C_9 
REMARK    2  A    between atoms: N_3  and  C_4 
REMARK    3  A    between atoms: N_3  and  C_11 
REMARK       I    between atoms: N_3  and  C_12 
REMARK    4  A    between atoms: C_9  and  C_10 
REMARK    5  A    between atoms: C_10  and  C_13 
REMARK    6  A    between atoms: C_12  and  C_15 
ROOT
HETATM    1  N   UNK N   1      36.272  12.935  12.223  0.00  0.00     0.089 N 
HETATM    2  C   UNK N   1      35.474  14.947  10.284  0.00  0.00     0.096 C 
HETATM    3  C   UNK N   1      36.484  13.852   9.950  0.00  0.00     0.056 C 
HETATM    4  C   UNK N   1      34.463  14.338  11.255  0.00  0.00     0.056 C 
HETATM    5  C   UNK N   1      37.206  13.503  11.244  0.00  0.00     0.274 C 
HETATM    6  C   UNK N   1      35.197  13.890  12.517  0.00  0.00     0.274 C 
ENDROOT
BRANCH   2   7
HETATM    7  N   UNK N   1      35.010  15.688   9.084  0.00  0.00    -0.313 N 
HETATM    8  C   UNK N   1      34.952  17.074   9.217  0.00  0.00     0.224 C 
HETATM    9  O   UNK N   1      35.269  17.587  10.287  0.00  0.00    -0.273 OA
BRANCH   7  10
HETATM   10  C   UNK N   1      34.567  15.005   7.859  0.00  0.00     0.037 A 
HETATM   11  C   UNK N   1      35.384  14.929   6.713  0.00  0.00     0.030 A 
HETATM   12  C   UNK N   1      34.949  14.324   5.532  0.00  0.00     0.002 A 
HETATM   13  C   UNK N   1      33.671  13.777   5.461  0.00  0.00     0.000 A 
HETATM   14  C   UNK N   1      32.837  13.831   6.575  0.00  0.00     0.002 A 
HETATM   15  C   UNK N   1      33.282  14.436   7.753  0.00  0.00     0.030 A 
ENDBRANCH   7  10
BRANCH   8  16
HETATM   16  C   UNK N   1      34.511  18.003   8.111  0.00  0.00     0.099 C 
HETATM   17  C   UNK N   1      33.006  18.227   8.067  0.00  0.00     0.014 C 
ENDBRANCH   8  16
ENDBRANCH   2   7
BRANCH   1  18
HETATM   18  C   UNK N   1      36.985  12.758  13.484  0.00  0.00     0.281 C 
BRANCH  18  19
HETATM   19  C   UNK N   1      36.037  12.448  14.638  0.00  0.00     0.043 C 
HETATM   20  C   UNK N   1      36.279  11.023  15.125  0.00  0.00     0.016 C 
BRANCH  19  21
HETATM   21  C   UNK N   1      36.180  13.483  15.725  0.00  0.00    -0.053 A 
HETATM   22  C   UNK N   1      37.080  14.542  15.540  0.00  0.00     0.007 A 
HETATM   23  C   UNK N   1      37.229  15.524  16.522  0.00  0.00     0.001 A 
HETATM   24  C   UNK N   1      36.475  15.460  17.695  0.00  0.00     0.000 A 
HETATM   25  C   UNK N   1      35.572  14.412  17.889  0.00  0.00     0.001 A 
HETATM   26  C   UNK N   1      35.424  13.426  16.909  0.00  0.00     0.007 A 
ENDBRANCH  19  21
ENDBRANCH  18  19
ENDBRANCH   1  18
TORSDOF 6
ENDMDL
MODEL 3
REMARK VINA RESULT:      -7.3      2.057      3.286
REMARK  6 active torsions:
REMARK  status: ('A' for Active; 'I' for Inactive)
REMARK    1  A    between atoms: N_2  and  C_9 
REMARK    2  A    between atoms: N_3  and  C_4 
REMARK    3  A    between atoms: N_3  and  C_11 
REMARK       I    between atoms: N_3  and  C_12 
REMARK    4  A    between atoms: C_9  and  C_10 
REMARK    5  A    between atoms: C_10  and  C_13 
REMARK    6  A    between atoms: C_12  and  C_15 
ROOT
HETATM    1  N   UNK N   1      35.612  13.573  13.281  0.00  0.00     0.089 N 
HETATM    2  C   UNK N   1      35.572  14.479  10.519  0.00  0.00     0.096 C 
HETATM    3  C   UNK N   1      34.864  13.202  10.967  0.00  0.00     0.056 C 
HETATM    4  C   UNK N   1      35.476  15.469  11.679  0.00  0.00     0.056 C 
HETATM    5  C   UNK N   1      35.652  12.645  12.145  0.00  0.00     0.274 C 
HETATM    6  C   UNK N   1      36.177  14.873  12.899  0.00  0.00     0.274 C 
ENDROOT
BRANCH   2   7
HETATM    7  N   UNK N   1      35.196  14.894   9.145  0.00  0.00    -0.313 N 
HETATM    8  C   UNK N   1      35.966  14.348   8.119  0.00  0.00     0.224 C 
HETATM    9  O   UNK N   1      36.886  13.585   8.402  0.00  0.00    -0.273 OA
BRANCH   7  10
HETATM   10  C   UNK N   1      34.133  15.875   8.881  0.00  0.00     0.037 A 
HETATM   11  C   UNK N   1      32.770  15.514   8.880  0.00  0.00     0.030 A 
HETATM   12  C   UNK N   1      31.760  16.432   8.582  0.00  0.00     0.002 A 
HETATM   13  C   UNK N   1      32.088  17.748   8.270  0.00  0.00     0.000 A 
HETATM   14  C   UNK N   1      33.424  18.142   8.265  0.00  0.00     0.002 A 
HETATM   15  C   UNK N   1      34.426  17.217   8.567  0.00  0.00     0.030 A 
ENDBRANCH   7  10
BRANCH   8  16
HETATM   16  C   UNK N   1      35.739  14.642   6.655  0.00  0.00     0.099 C 
HETATM   17  C   UNK N   1      34.759  13.690   5.986  0.00  0.00     0.014 C 
ENDBRANCH   8  16
ENDBRANCH   2   7
BRANCH   1  18
HETATM   18  C   UNK N   1      36.499  13.060  14.320  0.00  0.00     0.281 C 
BRANCH  18  19
HETATM   19  C   UNK N   1      35.894  11.864  15.049  0.00  0.00     0.043 C 
HETATM   20  C   UNK N   1      36.804  10.651  14.877  0.00  0.00     0.016 C 
BRANCH  19  21
HETATM   21  C   UNK N   1      35.630  12.212  16.493  0.00  0.00    -0.053 A 
HETATM   22  C   UNK N   1      35.617  11.185  17.447  0.00  0.00     0.007 A 
HETATM   23  C   UNK N   1      35.387  11.474  18.794  0.00  0.00     0.001 A 
HETATM   24  C   UNK N   1      35.175  12.792  19.201  0.00  0.00     0.000 A 
HETATM   25  C   UNK N   1      35.189  13.825  18.258  0.00  0.00     0.001 A 
HETATM   26  C   UNK N   1      35.415  13.537  16.909  0.00  0.00     0.007 A 
ENDBRANCH  19  21
ENDBRANCH  18  19
ENDBRANCH   1  18
TORSDOF 6
ENDMDL
MODEL 4
REMARK VINA RESULT:      -6.8      1.511      3.256
REMARK  6 active torsions:
REMARK  status: ('A' for Active; 'I' for Inactive)
REMARK    1  A    between atoms: N_2  and  C_9 
REMARK    2  A    between atoms: N_3  and  C_4 
REMARK    3  A    between atoms: N_3  and  C_11 
REMARK       I    between atoms: N_3  and  C_12 
REMARK    4  A    between atoms: C_9  and  C_10 
REMARK    5  A    between atoms: C_10  and  C_13 
REMARK    6  A    between atoms: C_12  and  C_15 
ROOT
HETATM    1  N   UNK N   1      34.935  15.243  10.170  0.00  0.00     0.089 N 
HETATM    2  C   UNK N   1      32.663  16.170   8.613  0.00  0.00     0.096 C 
HETATM    3  C   UNK N   1      34.048  16.801   8.485  0.00  0.00     0.056 C 
HETATM    4  C   UNK N   1      32.875  14.684   8.895  0.00  0.00     0.056 C 
HETATM    5  C   UNK N   1      34.729  16.657   9.839  0.00  0.00     0.274 C 
HETATM    6  C   UNK N   1      33.651  14.534  10.203  0.00  0.00     0.274 C 
ENDROOT
BRANCH   2   7
HETATM    7  N   UNK N   1      31.731  16.605   7.543  0.00  0.00    -0.313 N 
HETATM    8  C   UNK N   1      30.505  17.105   7.978  0.00  0.00     0.224 C 
HETATM    9  O   UNK N   1      30.269  17.147   9.182  0.00  0.00    -0.273 OA
BRANCH   7  10
HETATM   10  C   UNK N   1      32.045  16.451   6.114  0.00  0.00     0.037 A 
HETATM   11  C   UNK N   1      31.822  15.240   5.429  0.00  0.00     0.030 A 
HETATM   12  C   UNK N   1      32.164  15.075   4.085  0.00  0.00     0.002 A 
HETATM   13  C   UNK N   1      32.748  16.126   3.382  0.00  0.00     0.000 A 
HETATM   14  C   UNK N   1      32.980  17.339   4.026  0.00  0.00     0.002 A 
HETATM   15  C   UNK N   1      32.632  17.494   5.370  0.00  0.00     0.030 A 
ENDBRANCH   7  10
BRANCH   8  16
HETATM   16  C   UNK N   1      29.425  17.602   7.047  0.00  0.00     0.099 C 
HETATM   17  C   UNK N   1      28.517  18.652   7.670  0.00  0.00     0.014 C 
ENDBRANCH   8  16
ENDBRANCH   2   7
BRANCH   1  18
HETATM   18  C   UNK N   1      35.453  15.164  11.532  0.00  0.00     0.281 C 
BRANCH  18  19
HETATM   19  C   UNK N   1      35.814  13.735  11.925  0.00  0.00     0.043 C 
HETATM   20  C   UNK N   1      37.160  13.364  11.309  0.00  0.00     0.016 C 
BRANCH  19  21
HETATM   21  C   UNK N   1      35.780  13.581  13.424  0.00  0.00    -0.053 A 
HETATM   22  C   UNK N   1      34.869  12.680  13.994  0.00  0.00     0.007 A 
HETATM   23  C   UNK N   1      34.820  12.505  15.379  0.00  0.00     0.001 A 
HETATM   24  C   UNK N   1      35.686  13.223  16.207  0.00  0.00     0.000 A 
HETATM   25  C   UNK N   1      36.600  14.121  15.649  0.00  0.00     0.001 A 
HETATM   26  C   UNK N   1      36.648  14.300  14.263  0.00  0.00     0.007 A 
ENDBRANCH  19  21
ENDBRANCH  18  19
ENDBRANCH   1  18
TORSDOF 6
ENDMDL
MODEL 5
REMARK VINA RESULT:      -6.8     15.909     20.069
REMARK  6 active torsions:
REMARK  status: ('A' for Active; 'I' for Inactive)
REMARK    1  A    between atoms: N_2  and  C_9 
REMARK    2  A    between atoms: N_3  and  C_4 
REMARK    3  A    between atoms: N_3  and  C_11 
REMARK       I    between atoms: N_3  and  C_12 
REMARK    4  A    between atoms: C_9  and  C_10 
REMARK    5  A    between atoms: C_10  and  C_13 
REMARK    6  A    between atoms: C_12  and  C_15 
ROOT
HETATM    1  N   UNK N   1      27.749  25.514  -4.679  0.00  0.00     0.089 N 
HETATM    2  C   UNK N   1      28.994  23.019  -5.498  0.00  0.00     0.096 C 
HETATM    3  C   UNK N   1      29.061  24.280  -6.356  0.00  0.00     0.056 C 
HETATM    4  C   UNK N   1      29.013  23.471  -4.039  0.00  0.00     0.056 C 
HETATM    5  C   UNK N   1      27.792  25.075  -6.079  0.00  0.00     0.274 C 
HETATM    6  C   UNK N   1      27.794  24.356  -3.779  0.00  0.00     0.274 C 
ENDROOT
BRANCH   2   7
HETATM    7  N   UNK N   1      29.917  21.955  -5.966  0.00  0.00    -0.313 N 
HETATM    8  C   UNK N   1      29.403  21.093  -6.934  0.00  0.00     0.224 C 
HETATM    9  O   UNK N   1      28.250  21.253  -7.326  0.00  0.00    -0.273 OA
BRANCH   7  10
HETATM   10  C   UNK N   1      31.260  21.770  -5.396  0.00  0.00     0.037 A 
HETATM   11  C   UNK N   1      31.509  20.848  -4.359  0.00  0.00     0.030 A 
HETATM   12  C   UNK N   1      32.772  20.704  -3.782  0.00  0.00     0.002 A 
HETATM   13  C   UNK N   1      33.832  21.490  -4.225  0.00  0.00     0.000 A 
HETATM   14  C   UNK N   1      33.624  22.411  -5.250  0.00  0.00     0.002 A 
HETATM   15  C   UNK N   1      32.357  22.545  -5.823  0.00  0.00     0.030 A 
ENDBRANCH   7  10
BRANCH   8  16
HETATM   16  C   UNK N   1      30.185  19.952  -7.539  0.00  0.00     0.099 C 
HETATM   17  C   UNK N   1      29.348  18.708  -7.797  0.00  0.00     0.014 C 
ENDBRANCH   8  16
ENDBRANCH   2   7
BRANCH   1  18
HETATM   18  C   UNK N   1      26.452  26.138  -4.437  0.00  0.00     0.281 C 
BRANCH  18  19
HETATM   19  C   UNK N   1      26.089  27.143  -5.525  0.00  0.00     0.043 C 
HETATM   20  C   UNK N   1      24.574  27.167  -5.709  0.00  0.00     0.016 C 
BRANCH  19  21
HETATM   21  C   UNK N   1      26.673  28.496  -5.203  0.00  0.00    -0.053 A 
HETATM   22  C   UNK N   1      27.689  29.008  -6.021  0.00  0.00     0.007 A 
HETATM   23  C   UNK N   1      28.244  30.263  -5.758  0.00  0.00     0.001 A 
HETATM   24  C   UNK N   1      27.782  31.020  -4.679  0.00  0.00     0.000 A 
HETATM   25  C   UNK N   1      26.766  30.520  -3.860  0.00  0.00     0.001 A 
HETATM   26  C   UNK N   1      26.213  29.263  -4.119  0.00  0.00     0.007 A 
ENDBRANCH  19  21
ENDBRANCH  18  19
ENDBRANCH   1  18
TORSDOF 6
ENDMDL
MODEL 6
REMARK VINA RESULT:      -6.8      2.162      8.847
REMARK  6 active torsions:
REMARK  status: ('A' for Active; 'I' for Inactive)
REMARK    1  A    between atoms: N_2  and  C_9 
REMARK    2  A    between atoms: N_3  and  C_4 
REMARK    3  A    between atoms: N_3  and  C_11 
REMARK       I    between atoms: N_3  and  C_12 
REMARK    4  A    between atoms: C_9  and  C_10 
REMARK    5  A    between atoms: C_10  and  C_13 
REMARK    6  A    between atoms: C_12  and  C_15 
ROOT
HETATM    1  N   UNK N   1      34.777  14.986   8.722  0.00  0.00     0.089 N 
HETATM    2  C   UNK N   1      35.711  13.930  11.264  0.00  0.00     0.096 C 
HETATM    3  C   UNK N   1      34.278  14.418  11.064  0.00  0.00     0.056 C 
HETATM    4  C   UNK N   1      36.162  13.317   9.939  0.00  0.00     0.056 C 
HETATM    5  C   UNK N   1      34.326  15.519  10.012  0.00  0.00     0.274 C 
HETATM    6  C   UNK N   1      36.113  14.392   8.854  0.00  0.00     0.274 C 
ENDROOT
BRANCH   2   7
HETATM    7  N   UNK N   1      35.893  13.186  12.535  0.00  0.00    -0.313 N 
HETATM    8  C   UNK N   1      36.278  13.954  13.633  0.00  0.00     0.224 C 
HETATM    9  O   UNK N   1      36.448  15.162  13.489  0.00  0.00    -0.273 OA
BRANCH   7  10
HETATM   10  C   UNK N   1      35.752  11.725  12.620  0.00  0.00     0.037 A 
HETATM   11  C   UNK N   1      34.502  11.109  12.836  0.00  0.00     0.030 A 
HETATM   12  C   UNK N   1      34.371   9.724  12.966  0.00  0.00     0.002 A 
HETATM   13  C   UNK N   1      35.497   8.909  12.887  0.00  0.00     0.000 A 
HETATM   14  C   UNK N   1      36.748   9.483  12.672  0.00  0.00     0.002 A 
HETATM   15  C   UNK N   1      36.868  10.868  12.541  0.00  0.00     0.030 A 
ENDBRANCH   7  10
BRANCH   8  16
HETATM   16  C   UNK N   1      36.510  13.386  15.013  0.00  0.00     0.099 C 
HETATM   17  C   UNK N   1      35.236  13.235  15.832  0.00  0.00     0.014 C 
ENDBRANCH   8  16
ENDBRANCH   2   7
BRANCH   1  18
HETATM   18  C   UNK N   1      34.944  16.104   7.800  0.00  0.00     0.281 C 
BRANCH  18  19
HETATM   19  C   UNK N   1      33.902  17.194   8.029  0.00  0.00     0.043 C 
HETATM   20  C   UNK N   1      34.606  18.521   8.297  0.00  0.00     0.016 C 
BRANCH  19  21
HETATM   21  C   UNK N   1      32.943  17.252   6.867  0.00  0.00    -0.053 A 
HETATM   22  C   UNK N   1      33.453  17.429   5.573  0.00  0.00     0.007 A 
HETATM   23  C   UNK N   1      32.593  17.475   4.473  0.00  0.00     0.001 A 
HETATM   24  C   UNK N   1      31.215  17.339   4.656  0.00  0.00     0.000 A 
HETATM   25  C   UNK N   1      30.696  17.158   5.941  0.00  0.00     0.001 A 
HETATM   26  C   UNK N   1      31.555  17.115   7.043  0.00  0.00     0.007 A 
ENDBRANCH  19  21
ENDBRANCH  18  19
ENDBRANCH   1  18
TORSDOF 6
ENDMDL
MODEL 7
REMARK VINA RESULT:      -6.6      6.851     10.868
REMARK  6 active torsions:
REMARK  status: ('A' for Active; 'I' for Inactive)
REMARK    1  A    between atoms: N_2  and  C_9 
REMARK    2  A    between atoms: N_3  and  C_4 
REMARK    3  A    between atoms: N_3  and  C_11 
REMARK       I    between atoms: N_3  and  C_12 
REMARK    4  A    between atoms: C_9  and  C_10 
REMARK    5  A    between atoms: C_10  and  C_13 
REMARK    6  A    between atoms: C_12  and  C_15 
ROOT
HETATM    1  N   UNK N   1      27.085  17.755   4.930  0.00  0.00     0.089 N 
HETATM    2  C   UNK N   1      24.542  18.778   3.964  0.00  0.00     0.096 C 
HETATM    3  C   UNK N   1      24.843  17.283   4.035  0.00  0.00     0.056 C 
HETATM    4  C   UNK N   1      25.263  19.433   5.142  0.00  0.00     0.056 C 
HETATM    5  C   UNK N   1      26.344  17.120   3.835  0.00  0.00     0.274 C 
HETATM    6  C   UNK N   1      26.764  19.185   5.003  0.00  0.00     0.274 C 
ENDROOT
BRANCH   2   7
HETATM    7  N   UNK N   1      23.109  19.066   3.708  0.00  0.00    -0.313 N 
HETATM    8  C   UNK N   1      22.847  20.236   2.998  0.00  0.00     0.224 C 
HETATM    9  O   UNK N   1      23.785  20.945   2.644  0.00  0.00    -0.273 OA
BRANCH   7  10
HETATM   10  C   UNK N   1      22.029  18.215   4.230  0.00  0.00     0.037 A 
HETATM   11  C   UNK N   1      21.723  18.161   5.605  0.00  0.00     0.030 A 
HETATM   12  C   UNK N   1      20.730  17.319   6.111  0.00  0.00     0.002 A 
HETATM   13  C   UNK N   1      20.012  16.495   5.249  0.00  0.00     0.000 A 
HETATM   14  C   UNK N   1      20.285  16.524   3.883  0.00  0.00     0.002 A 
HETATM   15  C   UNK N   1      21.278  17.372   3.387  0.00  0.00     0.030 A 
ENDBRANCH   7  10
BRANCH   8  16
HETATM   16  C   UNK N   1      21.457  20.701   2.633  0.00  0.00     0.099 C 
HETATM   17  C   UNK N   1      21.069  20.393   1.194  0.00  0.00     0.014 C 
ENDBRANCH   8  16
ENDBRANCH   2   7
BRANCH   1  18
HETATM   18  C   UNK N   1      28.508  17.697   4.611  0.00  0.00     0.281 C 
BRANCH  18  19
HETATM   19  C   UNK N   1      29.287  16.863   5.623  0.00  0.00     0.043 C 
HETATM   20  C   UNK N   1      28.909  15.393   5.467  0.00  0.00     0.016 C 
BRANCH  19  21
HETATM   21  C   UNK N   1      30.767  17.117   5.481  0.00  0.00    -0.053 A 
HETATM   22  C   UNK N   1      31.571  17.105   6.629  0.00  0.00     0.007 A 
HETATM   23  C   UNK N   1      32.947  17.325   6.532  0.00  0.00     0.001 A 
HETATM   24  C   UNK N   1      33.533  17.553   5.285  0.00  0.00     0.000 A 
HETATM   25  C   UNK N   1      32.741  17.563   4.133  0.00  0.00     0.001 A 
HETATM   26  C   UNK N   1      31.363  17.346   4.229  0.00  0.00     0.007 A 
ENDBRANCH  19  21
ENDBRANCH  18  19
ENDBRANCH   1  18
TORSDOF 6
ENDMDL
MODEL 8
REMARK VINA RESULT:      -6.6     14.998     19.766
REMARK  6 active torsions:
REMARK  status: ('A' for Active; 'I' for Inactive)
REMARK    1  A    between atoms: N_2  and  C_9 
REMARK    2  A    between atoms: N_3  and  C_4 
REMARK    3  A    between atoms: N_3  and  C_11 
REMARK       I    between atoms: N_3  and  C_12 
REMARK    4  A    between atoms: C_9  and  C_10 
REMARK    5  A    between atoms: C_10  and  C_13 
REMARK    6  A    between atoms: C_12  and  C_15 
ROOT
HETATM    1  N   UNK N   1      28.035  25.340  -5.025  0.00  0.00     0.089 N 
HETATM    2  C   UNK N   1      29.982  23.293  -4.343  0.00  0.00     0.096 C 
HETATM    3  C   UNK N   1      28.936  23.088  -5.436  0.00  0.00     0.056 C 
HETATM    4  C   UNK N   1      30.364  24.773  -4.365  0.00  0.00     0.056 C 
HETATM    5  C   UNK N   1      27.715  23.909  -5.044  0.00  0.00     0.274 C 
HETATM    6  C   UNK N   1      29.119  25.609  -4.073  0.00  0.00     0.274 C 
ENDROOT
BRANCH   2   7
HETATM    7  N   UNK N   1      31.035  22.247  -4.350  0.00  0.00    -0.313 N 
HETATM    8  C   UNK N   1      31.577  21.930  -3.105  0.00  0.00     0.224 C 
HETATM    9  O   UNK N   1      31.174  22.522  -2.108  0.00  0.00    -0.273 OA
BRANCH   7  10
HETATM   10  C   UNK N   1      31.530  21.635  -5.592  0.00  0.00     0.037 A 
HETATM   11  C   UNK N   1      32.383  22.328  -6.475  0.00  0.00     0.030 A 
HETATM   12  C   UNK N   1      32.816  21.768  -7.679  0.00  0.00     0.002 A 
HETATM   13  C   UNK N   1      32.400  20.489  -8.040  0.00  0.00     0.000 A 
HETATM   14  C   UNK N   1      31.560  19.773  -7.191  0.00  0.00     0.002 A 
HETATM   15  C   UNK N   1      31.134  20.341  -5.987  0.00  0.00     0.030 A 
ENDBRANCH   7  10
BRANCH   8  16
HETATM   16  C   UNK N   1      32.654  20.891  -2.902  0.00  0.00     0.099 C 
HETATM   17  C   UNK N   1      34.035  21.348  -3.347  0.00  0.00     0.014 C 
ENDBRANCH   8  16
ENDBRANCH   2   7
BRANCH   1  18
HETATM   18  C   UNK N   1      26.878  26.060  -4.503  0.00  0.00     0.281 C 
BRANCH  18  19
HETATM   19  C   UNK N   1      26.326  27.063  -5.511  0.00  0.00     0.043 C 
HETATM   20  C   UNK N   1      24.808  26.926  -5.584  0.00  0.00     0.016 C 
BRANCH  19  21
HETATM   21  C   UNK N   1      26.783  28.457  -5.165  0.00  0.00    -0.053 A 
HETATM   22  C   UNK N   1      27.776  29.060  -5.949  0.00  0.00     0.007 A 
HETATM   23  C   UNK N   1      28.215  30.356  -5.663  0.00  0.00     0.001 A 
HETATM   24  C   UNK N   1      27.659  31.062  -4.595  0.00  0.00     0.000 A 
HETATM   25  C   UNK N   1      26.666  30.472  -3.808  0.00  0.00     0.001 A 
HETATM   26  C   UNK N   1      26.229  29.175  -4.091  0.00  0.00     0.007 A 
ENDBRANCH  19  21
ENDBRANCH  18  19
ENDBRANCH   1  18
TORSDOF 6
ENDMDL
MODEL 9
REMARK VINA RESULT:      -6.5     15.005     19.949
REMARK  6 active torsions:
REMARK  status: ('A' for Active; 'I' for Inactive)
REMARK    1  A    between atoms: N_2  and  C_9 
REMARK    2  A    between atoms: N_3  and  C_4 
REMARK    3  A    between atoms: N_3  and  C_11 
REMARK       I    between atoms: N_3  and  C_12 
REMARK    4  A    between atoms: C_9  and  C_10 
REMARK    5  A    between atoms: C_10  and  C_13 
REMARK    6  A    between atoms: C_12  and  C_15 
ROOT
HETATM    1  N   UNK N   1      27.744  26.075  -4.327  0.00  0.00     0.089 N 
HETATM    2  C   UNK N   1      29.639  23.915  -3.895  0.00  0.00     0.096 C 
HETATM    3  C   UNK N   1      28.237  23.668  -4.447  0.00  0.00     0.056 C 
HETATM    4  C   UNK N   1      30.095  25.272  -4.429  0.00  0.00     0.056 C 
HETATM    5  C   UNK N   1      27.333  24.745  -3.864  0.00  0.00     0.274 C 
HETATM    6  C   UNK N   1      29.130  26.348  -3.931  0.00  0.00     0.274 C 
ENDROOT
BRANCH   2   7
HETATM    7  N   UNK N   1      30.522  22.728  -4.014  0.00  0.00    -0.313 N 
HETATM    8  C   UNK N   1      31.135  22.312  -2.833  0.00  0.00     0.224 C 
HETATM    9  O   UNK N   1      30.924  22.936  -1.797  0.00  0.00    -0.273 OA
BRANCH   7  10
HETATM   10  C   UNK N   1      30.795  22.075  -5.303  0.00  0.00     0.037 A 
HETATM   11  C   UNK N   1      31.727  22.600  -6.221  0.00  0.00     0.030 A 
HETATM   12  C   UNK N   1      31.954  22.010  -7.467  0.00  0.00     0.002 A 
HETATM   13  C   UNK N   1      31.245  20.869  -7.835  0.00  0.00     0.000 A 
HETATM   14  C   UNK N   1      30.319  20.320  -6.951  0.00  0.00     0.002 A 
HETATM   15  C   UNK N   1      30.101  20.917  -5.707  0.00  0.00     0.030 A 
ENDBRANCH   7  10
BRANCH   8  16
HETATM   16  C   UNK N   1      32.063  21.124  -2.745  0.00  0.00     0.099 C 
HETATM   17  C   UNK N   1      33.488  21.430  -3.183  0.00  0.00     0.014 C 
ENDBRANCH   8  16
ENDBRANCH   2   7
BRANCH   1  18
HETATM   18  C   UNK N   1      26.941  27.071  -3.625  0.00  0.00     0.281 C 
BRANCH  18  19
HETATM   19  C   UNK N   1      26.198  27.990  -4.589  0.00  0.00     0.043 C 
HETATM   20  C   UNK N   1      26.591  29.438  -4.315  0.00  0.00     0.016 C 
BRANCH  19  21
HETATM   21  C   UNK N   1      26.447  27.563  -6.014  0.00  0.00    -0.053 A 
HETATM   22  C   UNK N   1      27.532  28.116  -6.708  0.00  0.00     0.007 A 
HETATM   23  C   UNK N   1      27.799  27.733  -8.025  0.00  0.00     0.001 A 
HETATM   24  C   UNK N   1      26.986  26.791  -8.658  0.00  0.00     0.000 A 
HETATM   25  C   UNK N   1      25.904  26.230  -7.974  0.00  0.00     0.001 A 
HETATM   26  C   UNK N   1      25.634  26.615  -6.657  0.00  0.00     0.007 A 
ENDBRANCH  19  21
ENDBRANCH  18  19
ENDBRANCH   1  18
TORSDOF 6
ENDMDL
