REMARK  7 active torsions:
REMARK  status: ('A' for Active; 'I' for Inactive)
REMARK    1  A    between atoms: N_2  and  C_9 
REMARK    2  A    between atoms: N_3  and  C_4 
REMARK    3  A    between atoms: N_3  and  C_11 
REMARK       I    between atoms: N_3  and  C_12 
REMARK    4  A    between atoms: C_9  and  C_10 
REMARK    5  A    between atoms: C_10  and  C_14 
REMARK    6  A    between atoms: C_12  and  C_13 
REMARK    7  A    between atoms: C_13  and  C_17 
ROOT
HETATM    1  N   UNK N   1      -0.157  -1.153   0.511  0.00  0.00     0.088 N 
HETATM    2  C   UNK N   1      -1.091   1.573   0.222  0.00  0.00     0.096 C 
HETATM    3  C   UNK N   1      -0.368   1.097   1.492  0.00  0.00     0.056 C 
HETATM    4  C   UNK N   1      -0.721   0.774  -1.026  0.00  0.00     0.056 C 
HETATM    5  C   UNK N   1       0.562  -0.080   1.204  0.00  0.00     0.274 C 
HETATM    6  C   UNK N   1      -0.830  -0.724  -0.730  0.00  0.00     0.274 C 
ENDROOT
BRANCH   2   7
HETATM    7  N   UNK N   1      -0.936   3.015   0.026  0.00  0.00    -0.313 N 
HETATM    8  C   UNK N   1      -2.090   3.770   0.094  0.00  0.00     0.224 C 
HETATM    9  O   UNK N   1      -3.159   3.216   0.310  0.00  0.00    -0.273 OA
BRANCH   7  10
HETATM   10  C   UNK N   1       0.394   3.565  -0.174  0.00  0.00     0.037 A 
HETATM   11  C   UNK N   1       0.643   4.951  -0.172  0.00  0.00     0.030 A 
HETATM   12  C   UNK N   1       1.940   5.453  -0.328  0.00  0.00     0.002 A 
HETATM   13  C   UNK N   1       3.015   4.579  -0.493  0.00  0.00     0.000 A 
HETATM   14  C   UNK N   1       2.794   3.203  -0.503  0.00  0.00     0.002 A 
HETATM   15  C   UNK N   1       1.500   2.705  -0.340  0.00  0.00     0.030 A 
ENDBRANCH   7  10
BRANCH   8  16
HETATM   16  C   UNK N   1      -2.110   5.269  -0.053  0.00  0.00     0.103 C 
BRANCH  16  17
HETATM   17  C   UNK N   1      -3.261   5.730  -0.932  0.00  0.00     0.005 C 
HETATM   18  C   UNK N   1      -3.805   7.033  -0.381  0.00  0.00     0.005 C 
ENDBRANCH  16  17
ENDBRANCH   8  16
ENDBRANCH   2   7
BRANCH   1  19
HETATM   19  C   UNK N   1       0.831  -2.152   0.138  0.00  0.00     0.277 C 
BRANCH  19  20
HETATM   20  C   UNK N   1       0.643  -3.413   0.968  0.00  0.00     0.068 C 
BRANCH  20  21
HETATM   21  C   UNK N   1      -0.398  -4.306   0.377  0.00  0.00    -0.057 A 
HETATM   22  C   UNK N   1      -0.042  -5.591  -0.049  0.00  0.00     0.007 A 
HETATM   23  C   UNK N   1      -1.009  -6.442  -0.593  0.00  0.00     0.001 A 
HETATM   24  C   UNK N   1      -2.334  -6.010  -0.712  0.00  0.00     0.000 A 
HETATM   25  C   UNK N   1      -2.693  -4.729  -0.284  0.00  0.00     0.001 A 
HETATM   26  C   UNK N   1      -1.728  -3.879   0.263  0.00  0.00     0.007 A 
ENDBRANCH  20  21
ENDBRANCH  19  20
ENDBRANCH   1  19
TORSDOF 7
