MODEL 1
REMARK VINA RESULT:      -7.1      0.000      0.000
REMARK  6 active torsions:
REMARK  status: ('A' for Active; 'I' for Inactive)
REMARK    1  A    between atoms: N_2  and  C_9 
REMARK    2  A    between atoms: N_3  and  C_4 
REMARK    3  A    between atoms: N_3  and  C_13 
REMARK       I    between atoms: N_3  and  C_14 
REMARK    4  A    between atoms: C_9  and  C_12 
REMARK    5  A    between atoms: C_12  and  C_15 
REMARK    6  A    between atoms: C_14  and  C_16 
ROOT
HETATM    1  N   UNK N   1      21.869  14.640   6.493  0.00  0.00     0.093 N 
HETATM    2  C   UNK N   1      21.193  17.335   5.473  0.00  0.00     0.100 C 
HETATM    3  C   UNK N   1      20.147  16.399   6.103  0.00  0.00     0.033 C 
HETATM    4  C   UNK N   1      22.906  15.497   5.895  0.00  0.00     0.221 C 
HETATM    5  C   UNK N   1      22.600  16.999   6.007  0.00  0.00     0.061 C 
HETATM    6  C   UNK N   1      20.528  14.924   5.976  0.00  0.00     0.279 C 
HETATM    7  C   UNK N   1      19.797  16.800   7.526  0.00  0.00     0.014 C 
HETATM    8  C   UNK N   1      24.307  15.158   6.386  0.00  0.00     0.043 C 
ENDROOT
BRANCH   2   9
HETATM    9  N   UNK N   1      20.956  17.515   4.013  0.00  0.00    -0.313 N 
HETATM   10  C   UNK N   1      20.729  18.829   3.610  0.00  0.00     0.224 C 
HETATM   11  O   UNK N   1      20.790  19.733   4.435  0.00  0.00    -0.273 OA
BRANCH   9  12
HETATM   12  C   UNK N   1      20.980  16.401   3.057  0.00  0.00     0.037 A 
HETATM   13  C   UNK N   1      19.802  15.832   2.545  0.00  0.00     0.030 A 
HETATM   14  C   UNK N   1      19.820  14.766   1.642  0.00  0.00     0.002 A 
HETATM   15  C   UNK N   1      21.034  14.226   1.229  0.00  0.00     0.000 A 
HETATM   16  C   UNK N   1      22.224  14.754   1.723  0.00  0.00     0.002 A 
HETATM   17  C   UNK N   1      22.192  15.823   2.622  0.00  0.00     0.030 A 
ENDBRANCH   9  12
BRANCH  10  18
HETATM   18  C   UNK N   1      20.382  19.215   2.190  0.00  0.00     0.099 C 
HETATM   19  C   UNK N   1      21.109  20.463   1.708  0.00  0.00     0.014 C 
ENDBRANCH  10  18
ENDBRANCH   2   9
BRANCH   1  20
HETATM   20  C   UNK N   1      21.885  14.450   7.950  0.00  0.00     0.277 C 
BRANCH  20  21
HETATM   21  C   UNK N   1      21.377  13.094   8.433  0.00  0.00     0.068 C 
BRANCH  21  22
HETATM   22  C   UNK N   1      22.300  12.644   9.499  0.00  0.00    -0.057 A 
HETATM   23  C   UNK N   1      23.680  12.650   9.275  0.00  0.00     0.007 A 
HETATM   24  C   UNK N   1      24.555  12.317  10.313  0.00  0.00     0.001 A 
HETATM   25  C   UNK N   1      24.049  11.985  11.574  0.00  0.00     0.000 A 
HETATM   26  C   UNK N   1      22.668  11.977  11.796  0.00  0.00     0.001 A 
HETATM   27  C   UNK N   1      21.794  12.312  10.760  0.00  0.00     0.007 A 
ENDBRANCH  21  22
ENDBRANCH  20  21
ENDBRANCH   1  20
TORSDOF 6
ENDMDL
MODEL 2
REMARK VINA RESULT:      -7.0     13.577     15.925
REMARK  6 active torsions:
REMARK  status: ('A' for Active; 'I' for Inactive)
REMARK    1  A    between atoms: N_2  and  C_9 
REMARK    2  A    between atoms: N_3  and  C_4 
REMARK    3  A    between atoms: N_3  and  C_13 
REMARK       I    between atoms: N_3  and  C_14 
REMARK    4  A    between atoms: C_9  and  C_12 
REMARK    5  A    between atoms: C_12  and  C_15 
REMARK    6  A    between atoms: C_14  and  C_16 
ROOT
HETATM    1  N   UNK N   1      35.814  11.534  13.351  0.00  0.00     0.093 N 
HETATM    2  C   UNK N   1      36.697  13.807  11.672  0.00  0.00     0.100 C 
HETATM    3  C   UNK N   1      35.770  13.984  12.888  0.00  0.00     0.033 C 
HETATM    4  C   UNK N   1      36.698  11.313  12.194  0.00  0.00     0.221 C 
HETATM    5  C   UNK N   1      37.556  12.537  11.836  0.00  0.00     0.061 C 
HETATM    6  C   UNK N   1      34.967  12.720  13.200  0.00  0.00     0.279 C 
HETATM    7  C   UNK N   1      36.505  14.532  14.099  0.00  0.00     0.014 C 
HETATM    8  C   UNK N   1      37.532  10.046  12.323  0.00  0.00     0.043 C 
ENDROOT
BRANCH   2   9
HETATM    9  N   UNK N   1      35.980  14.082  10.395  0.00  0.00    -0.313 N 
HETATM   10  C   UNK N   1      35.899  15.427  10.044  0.00  0.00     0.224 C 
HETATM   11  O   UNK N   1      36.446  16.270  10.744  0.00  0.00    -0.273 OA
BRANCH   9  12
HETATM   12  C   UNK N   1      35.418  13.021   9.551  0.00  0.00     0.037 A 
HETATM   13  C   UNK N   1      36.157  12.423   8.516  0.00  0.00     0.030 A 
HETATM   14  C   UNK N   1      35.624  11.418   7.704  0.00  0.00     0.002 A 
HETATM   15  C   UNK N   1      34.316  10.986   7.901  0.00  0.00     0.000 A 
HETATM   16  C   UNK N   1      33.547  11.563   8.909  0.00  0.00     0.002 A 
HETATM   17  C   UNK N   1      34.094  12.563   9.717  0.00  0.00     0.030 A 
ENDBRANCH   9  12
BRANCH  10  18
HETATM   18  C   UNK N   1      35.141  15.926   8.834  0.00  0.00     0.099 C 
HETATM   19  C   UNK N   1      34.378  17.219   9.089  0.00  0.00     0.014 C 
ENDBRANCH  10  18
ENDBRANCH   2   9
BRANCH   1  20
HETATM   20  C   UNK N   1      36.393  11.419  14.696  0.00  0.00     0.277 C 
BRANCH  20  21
HETATM   21  C   UNK N   1      35.576  10.591  15.684  0.00  0.00     0.068 C 
BRANCH  21  22
HETATM   22  C   UNK N   1      35.531  11.354  16.952  0.00  0.00    -0.057 A 
HETATM   23  C   UNK N   1      35.253  12.724  16.931  0.00  0.00     0.007 A 
HETATM   24  C   UNK N   1      35.116  13.425  18.133  0.00  0.00     0.001 A 
HETATM   25  C   UNK N   1      35.251  12.753  19.353  0.00  0.00     0.000 A 
HETATM   26  C   UNK N   1      35.530  11.383  19.372  0.00  0.00     0.001 A 
HETATM   27  C   UNK N   1      35.665  10.683  18.172  0.00  0.00     0.007 A 
ENDBRANCH  21  22
ENDBRANCH  20  21
ENDBRANCH   1  20
TORSDOF 6
ENDMDL
MODEL 3
REMARK VINA RESULT:      -7.0      9.188     12.845
REMARK  6 active torsions:
REMARK  status: ('A' for Active; 'I' for Inactive)
REMARK    1  A    between atoms: N_2  and  C_9 
REMARK    2  A    between atoms: N_3  and  C_4 
REMARK    3  A    between atoms: N_3  and  C_13 
REMARK       I    between atoms: N_3  and  C_14 
REMARK    4  A    between atoms: C_9  and  C_12 
REMARK    5  A    between atoms: C_12  and  C_15 
REMARK    6  A    between atoms: C_14  and  C_16 
ROOT
HETATM    1  N   UNK N   1      30.946  16.544   7.170  0.00  0.00     0.093 N 
HETATM    2  C   UNK N   1      33.789  16.977   7.874  0.00  0.00     0.100 C 
HETATM    3  C   UNK N   1      33.347  16.414   6.511  0.00  0.00     0.033 C 
HETATM    4  C   UNK N   1      31.319  17.082   8.489  0.00  0.00     0.221 C 
HETATM    5  C   UNK N   1      32.661  17.830   8.489  0.00  0.00     0.061 C 
HETATM    6  C   UNK N   1      31.994  15.705   6.582  0.00  0.00     0.279 C 
HETATM    7  C   UNK N   1      33.414  17.455   5.408  0.00  0.00     0.014 C 
HETATM    8  C   UNK N   1      30.206  17.901   9.128  0.00  0.00     0.043 C 
ENDROOT
BRANCH   2   9
HETATM    9  N   UNK N   1      34.496  15.948   8.687  0.00  0.00    -0.313 N 
HETATM   10  C   UNK N   1      35.286  16.451   9.717  0.00  0.00     0.224 C 
HETATM   11  O   UNK N   1      35.311  17.658   9.926  0.00  0.00    -0.273 OA
BRANCH   9  12
HETATM   12  C   UNK N   1      34.358  14.506   8.443  0.00  0.00     0.037 A 
HETATM   13  C   UNK N   1      33.388  13.730   9.097  0.00  0.00     0.030 A 
HETATM   14  C   UNK N   1      33.258  12.356   8.875  0.00  0.00     0.002 A 
HETATM   15  C   UNK N   1      34.116  11.712   7.989  0.00  0.00     0.000 A 
HETATM   16  C   UNK N   1      35.100  12.445   7.331  0.00  0.00     0.002 A 
HETATM   17  C   UNK N   1      35.215  13.818   7.558  0.00  0.00     0.030 A 
ENDBRANCH   9  12
BRANCH  10  18
HETATM   18  C   UNK N   1      36.151  15.582  10.602  0.00  0.00     0.099 C 
HETATM   19  C   UNK N   1      35.456  15.140  11.882  0.00  0.00     0.014 C 
ENDBRANCH  10  18
ENDBRANCH   2   9
BRANCH   1  20
HETATM   20  C   UNK N   1      30.341  17.461   6.195  0.00  0.00     0.277 C 
BRANCH  20  21
HETATM   21  C   UNK N   1      28.880  17.178   5.859  0.00  0.00     0.068 C 
BRANCH  21  22
HETATM   22  C   UNK N   1      28.232  18.487   5.620  0.00  0.00    -0.057 A 
HETATM   23  C   UNK N   1      27.842  18.847   4.326  0.00  0.00     0.007 A 
HETATM   24  C   UNK N   1      27.144  20.040   4.116  0.00  0.00     0.001 A 
HETATM   25  C   UNK N   1      26.832  20.867   5.200  0.00  0.00     0.000 A 
HETATM   26  C   UNK N   1      27.224  20.507   6.493  0.00  0.00     0.001 A 
HETATM   27  C   UNK N   1      27.918  19.315   6.704  0.00  0.00     0.007 A 
ENDBRANCH  21  22
ENDBRANCH  20  21
ENDBRANCH   1  20
TORSDOF 6
ENDMDL
MODEL 4
REMARK VINA RESULT:      -6.9      6.595     10.122
REMARK  6 active torsions:
REMARK  status: ('A' for Active; 'I' for Inactive)
REMARK    1  A    between atoms: N_2  and  C_9 
REMARK    2  A    between atoms: N_3  and  C_4 
REMARK    3  A    between atoms: N_3  and  C_13 
REMARK       I    between atoms: N_3  and  C_14 
REMARK    4  A    between atoms: C_9  and  C_12 
REMARK    5  A    between atoms: C_12  and  C_15 
REMARK    6  A    between atoms: C_14  and  C_16 
ROOT
HETATM    1  N   UNK N   1      27.926  17.705   4.144  0.00  0.00     0.093 N 
HETATM    2  C   UNK N   1      29.292  16.878   6.636  0.00  0.00     0.100 C 
HETATM    3  C   UNK N   1      28.869  18.332   6.365  0.00  0.00     0.033 C 
HETATM    4  C   UNK N   1      28.314  16.300   4.356  0.00  0.00     0.221 C 
HETATM    5  C   UNK N   1      28.401  15.905   5.838  0.00  0.00     0.061 C 
HETATM    6  C   UNK N   1      28.781  18.647   4.871  0.00  0.00     0.279 C 
HETATM    7  C   UNK N   1      27.614  18.720   7.127  0.00  0.00     0.014 C 
HETATM    8  C   UNK N   1      27.466  15.326   3.551  0.00  0.00     0.043 C 
ENDROOT
BRANCH   2   9
HETATM    9  N   UNK N   1      30.775  16.730   6.632  0.00  0.00    -0.313 N 
HETATM   10  C   UNK N   1      31.384  16.860   7.878  0.00  0.00     0.224 C 
HETATM   11  O   UNK N   1      30.692  17.025   8.874  0.00  0.00    -0.273 OA
BRANCH   9  12
HETATM   12  C   UNK N   1      31.544  16.445   5.414  0.00  0.00     0.037 A 
HETATM   13  C   UNK N   1      32.019  17.468   4.576  0.00  0.00     0.030 A 
HETATM   14  C   UNK N   1      32.746  17.202   3.412  0.00  0.00     0.002 A 
HETATM   15  C   UNK N   1      33.010  15.886   3.045  0.00  0.00     0.000 A 
HETATM   16  C   UNK N   1      32.545  14.843   3.843  0.00  0.00     0.002 A 
HETATM   17  C   UNK N   1      31.825  15.124   5.006  0.00  0.00     0.030 A 
ENDBRANCH   9  12
BRANCH  10  18
HETATM   18  C   UNK N   1      32.882  16.830   8.078  0.00  0.00     0.099 C 
HETATM   19  C   UNK N   1      33.531  18.205   7.997  0.00  0.00     0.014 C 
ENDBRANCH  10  18
ENDBRANCH   2   9
BRANCH   1  20
HETATM   20  C   UNK N   1      26.500  18.050   4.234  0.00  0.00     0.277 C 
BRANCH  20  21
HETATM   21  C   UNK N   1      26.141  19.451   3.746  0.00  0.00     0.068 C 
BRANCH  21  22
HETATM   22  C   UNK N   1      24.664  19.514   3.673  0.00  0.00    -0.057 A 
HETATM   23  C   UNK N   1      24.046  20.526   2.931  0.00  0.00     0.007 A 
HETATM   24  C   UNK N   1      22.656  20.529   2.782  0.00  0.00     0.001 A 
HETATM   25  C   UNK N   1      21.888  19.518   3.369  0.00  0.00     0.000 A 
HETATM   26  C   UNK N   1      22.507  18.508   4.112  0.00  0.00     0.001 A 
HETATM   27  C   UNK N   1      23.895  18.503   4.259  0.00  0.00     0.007 A 
ENDBRANCH  21  22
ENDBRANCH  20  21
ENDBRANCH   1  20
TORSDOF 6
ENDMDL
MODEL 5
REMARK VINA RESULT:      -6.8     13.188     15.400
REMARK  6 active torsions:
REMARK  status: ('A' for Active; 'I' for Inactive)
REMARK    1  A    between atoms: N_2  and  C_9 
REMARK    2  A    between atoms: N_3  and  C_4 
REMARK    3  A    between atoms: N_3  and  C_13 
REMARK       I    between atoms: N_3  and  C_14 
REMARK    4  A    between atoms: C_9  and  C_12 
REMARK    5  A    between atoms: C_12  and  C_15 
REMARK    6  A    between atoms: C_14  and  C_16 
ROOT
HETATM    1  N   UNK N   1      36.040  12.070  12.464  0.00  0.00     0.093 N 
HETATM    2  C   UNK N   1      36.341  14.684  11.107  0.00  0.00     0.100 C 
HETATM    3  C   UNK N   1      35.594  14.523  12.442  0.00  0.00     0.033 C 
HETATM    4  C   UNK N   1      36.761  12.172  11.185  0.00  0.00     0.221 C 
HETATM    5  C   UNK N   1      37.380  13.557  10.938  0.00  0.00     0.061 C 
HETATM    6  C   UNK N   1      35.026  13.116  12.630  0.00  0.00     0.279 C 
HETATM    7  C   UNK N   1      36.421  14.991  13.626  0.00  0.00     0.014 C 
HETATM    8  C   UNK N   1      37.770  11.049  10.986  0.00  0.00     0.043 C 
ENDROOT
BRANCH   2   9
HETATM    9  N   UNK N   1      35.409  15.032   9.998  0.00  0.00    -0.313 N 
HETATM   10  C   UNK N   1      34.964  16.352   9.996  0.00  0.00     0.224 C 
HETATM   11  O   UNK N   1      35.388  17.135  10.837  0.00  0.00    -0.273 OA
BRANCH   9  12
HETATM   12  C   UNK N   1      35.003  14.072   8.965  0.00  0.00     0.037 A 
HETATM   13  C   UNK N   1      33.905  13.211   9.138  0.00  0.00     0.030 A 
HETATM   14  C   UNK N   1      33.519  12.290   8.161  0.00  0.00     0.002 A 
HETATM   15  C   UNK N   1      34.238  12.194   6.973  0.00  0.00     0.000 A 
HETATM   16  C   UNK N   1      35.340  13.021   6.770  0.00  0.00     0.002 A 
HETATM   17  C   UNK N   1      35.712  13.942   7.752  0.00  0.00     0.030 A 
ENDBRANCH   9  12
BRANCH  10  18
HETATM   18  C   UNK N   1      33.949  16.885   9.010  0.00  0.00     0.099 C 
HETATM   19  C   UNK N   1      34.494  17.995   8.121  0.00  0.00     0.014 C 
ENDBRANCH  10  18
ENDBRANCH   2   9
BRANCH   1  20
HETATM   20  C   UNK N   1      36.825  11.846  13.686  0.00  0.00     0.277 C 
BRANCH  20  21
HETATM   21  C   UNK N   1      36.415  10.625  14.504  0.00  0.00     0.068 C 
BRANCH  21  22
HETATM   22  C   UNK N   1      36.108  11.106  15.870  0.00  0.00    -0.057 A 
HETATM   23  C   UNK N   1      35.588  12.391  16.056  0.00  0.00     0.007 A 
HETATM   24  C   UNK N   1      35.208  12.810  17.335  0.00  0.00     0.001 A 
HETATM   25  C   UNK N   1      35.344  11.941  18.423  0.00  0.00     0.000 A 
HETATM   26  C   UNK N   1      35.865  10.657  18.236  0.00  0.00     0.001 A 
HETATM   27  C   UNK N   1      36.242  10.238  16.959  0.00  0.00     0.007 A 
ENDBRANCH  21  22
ENDBRANCH  20  21
ENDBRANCH   1  20
TORSDOF 6
ENDMDL
MODEL 6
REMARK VINA RESULT:      -6.8     12.252     14.376
REMARK  6 active torsions:
REMARK  status: ('A' for Active; 'I' for Inactive)
REMARK    1  A    between atoms: N_2  and  C_9 
REMARK    2  A    between atoms: N_3  and  C_4 
REMARK    3  A    between atoms: N_3  and  C_13 
REMARK       I    between atoms: N_3  and  C_14 
REMARK    4  A    between atoms: C_9  and  C_12 
REMARK    5  A    between atoms: C_12  and  C_15 
REMARK    6  A    between atoms: C_14  and  C_16 
ROOT
HETATM    1  N   UNK N   1      36.075  12.121  10.008  0.00  0.00     0.093 N 
HETATM    2  C   UNK N   1      35.811  15.069  10.063  0.00  0.00     0.100 C 
HETATM    3  C   UNK N   1      34.872  14.137  10.849  0.00  0.00     0.033 C 
HETATM    4  C   UNK N   1      36.996  12.971   9.236  0.00  0.00     0.221 C 
HETATM    5  C   UNK N   1      37.169  14.380   9.825  0.00  0.00     0.061 C 
HETATM    6  C   UNK N   1      34.767  12.747  10.220  0.00  0.00     0.279 C 
HETATM    7  C   UNK N   1      35.209  14.093  12.329  0.00  0.00     0.014 C 
HETATM    8  C   UNK N   1      38.332  12.295   8.961  0.00  0.00     0.043 C 
ENDROOT
BRANCH   2   9
HETATM    9  N   UNK N   1      35.095  15.750   8.948  0.00  0.00    -0.313 N 
HETATM   10  C   UNK N   1      34.872  17.112   9.137  0.00  0.00     0.224 C 
HETATM   11  O   UNK N   1      35.307  17.663  10.140  0.00  0.00    -0.273 OA
BRANCH   9  12
HETATM   12  C   UNK N   1      34.674  15.054   7.727  0.00  0.00     0.037 A 
HETATM   13  C   UNK N   1      35.508  14.952   6.601  0.00  0.00     0.030 A 
HETATM   14  C   UNK N   1      35.109  14.296   5.433  0.00  0.00     0.002 A 
HETATM   15  C   UNK N   1      33.842  13.727   5.355  0.00  0.00     0.000 A 
HETATM   16  C   UNK N   1      32.980  13.818   6.446  0.00  0.00     0.002 A 
HETATM   17  C   UNK N   1      33.394  14.471   7.609  0.00  0.00     0.030 A 
ENDBRANCH   9  12
BRANCH  10  18
HETATM   18  C   UNK N   1      34.089  17.968   8.167  0.00  0.00     0.099 C 
HETATM   19  C   UNK N   1      32.591  17.973   8.437  0.00  0.00     0.014 C 
ENDBRANCH  10  18
ENDBRANCH   2   9
BRANCH   1  20
HETATM   20  C   UNK N   1      36.590  11.463  11.217  0.00  0.00     0.277 C 
BRANCH  20  21
HETATM   21  C   UNK N   1      35.837  10.205  11.640  0.00  0.00     0.068 C 
BRANCH  21  22
HETATM   22  C   UNK N   1      35.382  10.423  13.031  0.00  0.00    -0.057 A 
HETATM   23  C   UNK N   1      36.316  10.685  14.038  0.00  0.00     0.007 A 
HETATM   24  C   UNK N   1      35.880  10.986  15.331  0.00  0.00     0.001 A 
HETATM   25  C   UNK N   1      34.511  11.032  15.614  0.00  0.00     0.000 A 
HETATM   26  C   UNK N   1      33.578  10.769  14.606  0.00  0.00     0.001 A 
HETATM   27  C   UNK N   1      34.013  10.470  13.314  0.00  0.00     0.007 A 
ENDBRANCH  21  22
ENDBRANCH  20  21
ENDBRANCH   1  20
TORSDOF 6
ENDMDL
MODEL 7
REMARK VINA RESULT:      -6.6      4.373      6.667
REMARK  6 active torsions:
REMARK  status: ('A' for Active; 'I' for Inactive)
REMARK    1  A    between atoms: N_2  and  C_9 
REMARK    2  A    between atoms: N_3  and  C_4 
REMARK    3  A    between atoms: N_3  and  C_13 
REMARK       I    between atoms: N_3  and  C_14 
REMARK    4  A    between atoms: C_9  and  C_12 
REMARK    5  A    between atoms: C_12  and  C_15 
REMARK    6  A    between atoms: C_14  and  C_16 
ROOT
HETATM    1  N   UNK N   1      24.693  15.738   6.380  0.00  0.00     0.093 N 
HETATM    2  C   UNK N   1      27.013  15.691   4.542  0.00  0.00     0.100 C 
HETATM    3  C   UNK N   1      26.918  14.785   5.782  0.00  0.00     0.033 C 
HETATM    4  C   UNK N   1      24.739  16.628   5.208  0.00  0.00     0.221 C 
HETATM    5  C   UNK N   1      25.602  16.084   4.059  0.00  0.00     0.061 C 
HETATM    6  C   UNK N   1      26.025  15.378   6.873  0.00  0.00     0.279 C 
HETATM    7  C   UNK N   1      26.547  13.356   5.425  0.00  0.00     0.014 C 
HETATM    8  C   UNK N   1      23.356  17.053   4.735  0.00  0.00     0.043 C 
ENDROOT
BRANCH   2   9
HETATM    9  N   UNK N   1      28.079  16.721   4.699  0.00  0.00    -0.313 N 
HETATM   10  C   UNK N   1      29.370  16.277   4.426  0.00  0.00     0.224 C 
HETATM   11  O   UNK N   1      29.546  15.130   4.035  0.00  0.00    -0.273 OA
BRANCH   9  12
HETATM   12  C   UNK N   1      27.797  18.108   5.088  0.00  0.00     0.037 A 
HETATM   13  C   UNK N   1      27.825  18.526   6.429  0.00  0.00     0.030 A 
HETATM   14  C   UNK N   1      27.550  19.844   6.805  0.00  0.00     0.002 A 
HETATM   15  C   UNK N   1      27.223  20.788   5.837  0.00  0.00     0.000 A 
HETATM   16  C   UNK N   1      27.172  20.410   4.498  0.00  0.00     0.002 A 
HETATM   17  C   UNK N   1      27.454  19.091   4.135  0.00  0.00     0.030 A 
ENDBRANCH   9  12
BRANCH  10  18
HETATM   18  C   UNK N   1      30.600  17.138   4.608  0.00  0.00     0.099 C 
HETATM   19  C   UNK N   1      31.252  16.981   5.975  0.00  0.00     0.014 C 
ENDBRANCH  10  18
ENDBRANCH   2   9
BRANCH   1  20
HETATM   20  C   UNK N   1      23.774  14.592   6.342  0.00  0.00     0.277 C 
BRANCH  20  21
HETATM   21  C   UNK N   1      22.575  14.692   7.281  0.00  0.00     0.068 C 
BRANCH  21  22
HETATM   22  C   UNK N   1      22.767  13.669   8.334  0.00  0.00    -0.057 A 
HETATM   23  C   UNK N   1      22.000  13.718   9.502  0.00  0.00     0.007 A 
HETATM   24  C   UNK N   1      22.113  12.699  10.453  0.00  0.00     0.001 A 
HETATM   25  C   UNK N   1      22.987  11.631  10.230  0.00  0.00     0.000 A 
HETATM   26  C   UNK N   1      23.755  11.583   9.062  0.00  0.00     0.001 A 
HETATM   27  C   UNK N   1      23.641  12.599   8.112  0.00  0.00     0.007 A 
ENDBRANCH  21  22
ENDBRANCH  20  21
ENDBRANCH   1  20
TORSDOF 6
ENDMDL
MODEL 8
REMARK VINA RESULT:      -6.6      4.802      6.800
REMARK  6 active torsions:
REMARK  status: ('A' for Active; 'I' for Inactive)
REMARK    1  A    between atoms: N_2  and  C_9 
REMARK    2  A    between atoms: N_3  and  C_4 
REMARK    3  A    between atoms: N_3  and  C_13 
REMARK       I    between atoms: N_3  and  C_14 
REMARK    4  A    between atoms: C_9  and  C_12 
REMARK    5  A    between atoms: C_12  and  C_15 
REMARK    6  A    between atoms: C_14  and  C_16 
ROOT
HETATM    1  N   UNK N   1      26.706  17.497   5.611  0.00  0.00     0.093 N 
HETATM    2  C   UNK N   1      25.288  18.759   3.340  0.00  0.00     0.100 C 
HETATM    3  C   UNK N   1      26.110  19.569   4.358  0.00  0.00     0.033 C 
HETATM    4  C   UNK N   1      25.929  16.680   4.664  0.00  0.00     0.221 C 
HETATM    5  C   UNK N   1      25.806  17.309   3.268  0.00  0.00     0.061 C 
HETATM    6  C   UNK N   1      26.209  18.872   5.716  0.00  0.00     0.279 C 
HETATM    7  C   UNK N   1      27.461  19.987   3.807  0.00  0.00     0.014 C 
HETATM    8  C   UNK N   1      26.406  15.235   4.603  0.00  0.00     0.043 C 
ENDROOT
BRANCH   2   9
HETATM    9  N   UNK N   1      23.830  19.042   3.467  0.00  0.00    -0.313 N 
HETATM   10  C   UNK N   1      23.401  20.212   2.844  0.00  0.00     0.224 C 
HETATM   11  O   UNK N   1      24.200  20.886   2.207  0.00  0.00    -0.273 OA
BRANCH   9  12
HETATM   12  C   UNK N   1      22.903  18.149   4.172  0.00  0.00     0.037 A 
HETATM   13  C   UNK N   1      22.201  17.129   3.508  0.00  0.00     0.030 A 
HETATM   14  C   UNK N   1      21.311  16.281   4.174  0.00  0.00     0.002 A 
HETATM   15  C   UNK N   1      21.088  16.442   5.538  0.00  0.00     0.000 A 
HETATM   16  C   UNK N   1      21.755  17.450   6.229  0.00  0.00     0.002 A 
HETATM   17  C   UNK N   1      22.646  18.287   5.553  0.00  0.00     0.030 A 
ENDBRANCH   9  12
BRANCH  10  18
HETATM   18  C   UNK N   1      21.980  20.724   2.927  0.00  0.00     0.099 C 
HETATM   19  C   UNK N   1      21.147  20.398   1.696  0.00  0.00     0.014 C 
ENDBRANCH  10  18
ENDBRANCH   2   9
BRANCH   1  20
HETATM   20  C   UNK N   1      28.173  17.429   5.542  0.00  0.00     0.277 C 
BRANCH  20  21
HETATM   21  C   UNK N   1      28.884  17.392   6.892  0.00  0.00     0.068 C 
BRANCH  21  22
HETATM   22  C   UNK N   1      30.335  17.323   6.611  0.00  0.00    -0.057 A 
HETATM   23  C   UNK N   1      30.791  17.327   5.289  0.00  0.00     0.007 A 
HETATM   24  C   UNK N   1      32.164  17.359   5.027  0.00  0.00     0.001 A 
HETATM   25  C   UNK N   1      33.077  17.393   6.085  0.00  0.00     0.000 A 
HETATM   26  C   UNK N   1      32.620  17.388   7.407  0.00  0.00     0.001 A 
HETATM   27  C   UNK N   1      31.250  17.358   7.670  0.00  0.00     0.007 A 
ENDBRANCH  21  22
ENDBRANCH  20  21
ENDBRANCH   1  20
TORSDOF 6
ENDMDL
MODEL 9
REMARK VINA RESULT:      -6.3     15.332     17.386
REMARK  6 active torsions:
REMARK  status: ('A' for Active; 'I' for Inactive)
REMARK    1  A    between atoms: N_2  and  C_9 
REMARK    2  A    between atoms: N_3  and  C_4 
REMARK    3  A    between atoms: N_3  and  C_13 
REMARK       I    between atoms: N_3  and  C_14 
REMARK    4  A    between atoms: C_9  and  C_12 
REMARK    5  A    between atoms: C_12  and  C_15 
REMARK    6  A    between atoms: C_14  and  C_16 
ROOT
HETATM    1  N   UNK N   1      35.204   9.486  16.358  0.00  0.00     0.093 N 
HETATM    2  C   UNK N   1      36.181  11.960  15.060  0.00  0.00     0.100 C 
HETATM    3  C   UNK N   1      34.936  11.933  15.963  0.00  0.00     0.033 C 
HETATM    4  C   UNK N   1      36.400   9.460  15.500  0.00  0.00     0.221 C 
HETATM    5  C   UNK N   1      37.136  10.808  15.433  0.00  0.00     0.061 C 
HETATM    6  C   UNK N   1      34.270  10.556  16.000  0.00  0.00     0.279 C 
HETATM    7  C   UNK N   1      35.213  12.494  17.346  0.00  0.00     0.014 C 
HETATM    8  C   UNK N   1      37.340   8.309  15.832  0.00  0.00     0.043 C 
ENDROOT
BRANCH   2   9
HETATM    9  N   UNK N   1      35.820  12.220  13.638  0.00  0.00    -0.313 N 
HETATM   10  C   UNK N   1      35.870  13.558  13.253  0.00  0.00     0.224 C 
HETATM   11  O   UNK N   1      36.246  14.404  14.054  0.00  0.00    -0.273 OA
BRANCH   9  12
HETATM   12  C   UNK N   1      35.459  11.152  12.699  0.00  0.00     0.037 A 
HETATM   13  C   UNK N   1      34.141  10.681  12.575  0.00  0.00     0.030 A 
HETATM   14  C   UNK N   1      33.794   9.659  11.687  0.00  0.00     0.002 A 
HETATM   15  C   UNK N   1      34.773   9.064  10.897  0.00  0.00     0.000 A 
HETATM   16  C   UNK N   1      36.094   9.493  11.000  0.00  0.00     0.002 A 
HETATM   17  C   UNK N   1      36.426  10.520  11.887  0.00  0.00     0.030 A 
ENDBRANCH   9  12
BRANCH  10  18
HETATM   18  C   UNK N   1      35.458  14.044  11.881  0.00  0.00     0.099 C 
HETATM   19  C   UNK N   1      36.625  14.186  10.914  0.00  0.00     0.014 C 
ENDBRANCH  10  18
ENDBRANCH   2   9
BRANCH   1  20
HETATM   20  C   UNK N   1      35.393   9.362  17.811  0.00  0.00     0.277 C 
BRANCH  20  21
HETATM   21  C   UNK N   1      34.597   8.241  18.473  0.00  0.00     0.068 C 
BRANCH  21  22
HETATM   22  C   UNK N   1      33.788   8.863  19.546  0.00  0.00    -0.057 A 
HETATM   23  C   UNK N   1      32.477   8.432  19.770  0.00  0.00     0.007 A 
HETATM   24  C   UNK N   1      31.748   8.952  20.843  0.00  0.00     0.001 A 
HETATM   25  C   UNK N   1      32.333   9.895  21.694  0.00  0.00     0.000 A 
HETATM   26  C   UNK N   1      33.644  10.326  21.468  0.00  0.00     0.001 A 
HETATM   27  C   UNK N   1      34.373   9.806  20.398  0.00  0.00     0.007 A 
ENDBRANCH  21  22
ENDBRANCH  20  21
ENDBRANCH   1  20
TORSDOF 6
ENDMDL
