REMARK  7 active torsions:
REMARK  status: ('A' for Active; 'I' for Inactive)
REMARK    1  A    between atoms: N_2  and  C_10 
REMARK    2  A    between atoms: N_3  and  C_4 
REMARK    3  A    between atoms: N_3  and  C_11 
REMARK       I    between atoms: N_3  and  C_12 
REMARK    4  A    between atoms: C_4  and  C_9 
REMARK    5  A    between atoms: C_10  and  C_15 
REMARK    6  A    between atoms: C_12  and  C_16 
REMARK    7  A    between atoms: C_15  and  C_21 
ROOT
HETATM    1  N   UNK N   1      -0.396  -0.838  -0.756  0.00  0.00     0.088 N 
HETATM    2  C   UNK N   1       0.585   1.879  -0.036  0.00  0.00     0.071 C 
HETATM    3  C   UNK N   1       0.557   1.295  -1.467  0.00  0.00     0.067 C 
HETATM    4  C   UNK N   1       0.299   0.777   1.023  0.00  0.00     0.067 C 
HETATM    5  C   UNK N   1       0.742  -0.219  -1.450  0.00  0.00     0.275 C 
HETATM    6  C   UNK N   1      -0.714  -0.270   0.568  0.00  0.00     0.275 C 
ENDROOT
BRANCH   2   7
HETATM    7  N   UNK N   1      -0.478   2.936   0.122  0.00  0.00    -0.304 N 
HETATM    8  C   UNK N   1      -0.195   4.193   0.648  0.00  0.00     0.225 C 
HETATM    9  O   UNK N   1       0.904   4.458   1.096  0.00  0.00    -0.273 OA
BRANCH   7  10
HETATM   10  C   UNK N   1      -1.861   2.581  -0.196  0.00  0.00     0.038 A 
HETATM   11  C   UNK N   1      -2.171   1.625  -1.184  0.00  0.00     0.030 A 
HETATM   12  C   UNK N   1      -3.485   1.237  -1.448  0.00  0.00     0.002 A 
HETATM   13  C   UNK N   1      -4.532   1.791  -0.715  0.00  0.00     0.000 A 
HETATM   14  C   UNK N   1      -4.261   2.736   0.274  0.00  0.00     0.002 A 
HETATM   15  C   UNK N   1      -2.942   3.125   0.531  0.00  0.00     0.030 A 
ENDBRANCH   7  10
BRANCH   8  16
HETATM   16  C   UNK N   1      -1.217   5.300   0.691  0.00  0.00     0.099 C 
HETATM   17  C   UNK N   1      -1.579   5.747  -0.717  0.00  0.00     0.014 C 
ENDBRANCH   8  16
ENDBRANCH   2   7
BRANCH   2  18
HETATM   18  C   UNK N   1       2.062   2.302   0.099  0.00  0.00    -0.029 A 
HETATM   19  C   UNK N   1       2.596   3.319  -0.719  0.00  0.00     0.010 A 
HETATM   20  C   UNK N   1       3.962   3.619  -0.684  0.00  0.00     0.001 A 
HETATM   21  C   UNK N   1       4.824   2.878   0.127  0.00  0.00     0.000 A 
HETATM   22  C   UNK N   1       4.319   1.848   0.921  0.00  0.00     0.001 A 
HETATM   23  C   UNK N   1       2.952   1.566   0.912  0.00  0.00     0.010 A 
ENDBRANCH   2  18
BRANCH   1  24
HETATM   24  C   UNK N   1      -0.205  -2.280  -0.661  0.00  0.00     0.277 C 
BRANCH  24  25
HETATM   25  C   UNK N   1       0.912  -2.668   0.306  0.00  0.00     0.068 C 
BRANCH  25  26
HETATM   26  C   UNK N   1       1.177  -4.125   0.185  0.00  0.00    -0.057 A 
HETATM   27  C   UNK N   1       2.430  -4.563  -0.253  0.00  0.00     0.007 A 
HETATM   28  C   UNK N   1       2.680  -5.930  -0.398  0.00  0.00     0.001 A 
HETATM   29  C   UNK N   1       1.676  -6.860  -0.108  0.00  0.00     0.000 A 
HETATM   30  C   UNK N   1       0.424  -6.423   0.334  0.00  0.00     0.001 A 
HETATM   31  C   UNK N   1       0.174  -5.057   0.482  0.00  0.00     0.007 A 
ENDBRANCH  25  26
ENDBRANCH  24  25
ENDBRANCH   1  24
TORSDOF 7
