REMARK  6 active torsions:
REMARK  status: ('A' for Active; 'I' for Inactive)
REMARK    1  A    between atoms: N_2  and  C_9 
REMARK    2  A    between atoms: N_3  and  C_4 
REMARK    3  A    between atoms: N_3  and  C_11 
REMARK       I    between atoms: N_3  and  C_12 
REMARK    4  A    between atoms: C_9  and  C_10 
REMARK    5  A    between atoms: C_10  and  C_13 
REMARK    6  A    between atoms: C_12  and  C_15 
ROOT
HETATM    1  N   UNK N   1      -0.574  -0.764   0.127  0.00  0.00     0.089 N 
HETATM    2  C   UNK N   1      -0.414   2.112  -0.262  0.00  0.00     0.096 C 
HETATM    3  C   UNK N   1      -1.343   1.482   0.773  0.00  0.00     0.056 C 
HETATM    4  C   UNK N   1       0.834   1.233  -0.333  0.00  0.00     0.056 C 
HETATM    5  C   UNK N   1      -1.744   0.114   0.238  0.00  0.00     0.274 C 
HETATM    6  C   UNK N   1       0.425  -0.173  -0.771  0.00  0.00     0.274 C 
ENDROOT
BRANCH   2   7
HETATM    7  N   UNK N   1      -0.288   3.582  -0.104  0.00  0.00    -0.313 N 
HETATM    8  C   UNK N   1      -1.483   4.298  -0.154  0.00  0.00     0.224 C 
HETATM    9  O   UNK N   1      -2.537   3.693  -0.329  0.00  0.00    -0.273 OA
BRANCH   7  10
HETATM   10  C   UNK N   1       1.015   4.252   0.022  0.00  0.00     0.037 A 
HETATM   11  C   UNK N   1       1.125   5.654   0.122  0.00  0.00     0.030 A 
HETATM   12  C   UNK N   1       2.363   6.297   0.193  0.00  0.00     0.002 A 
HETATM   13  C   UNK N   1       3.537   5.550   0.161  0.00  0.00     0.000 A 
HETATM   14  C   UNK N   1       3.467   4.162   0.066  0.00  0.00     0.002 A 
HETATM   15  C   UNK N   1       2.224   3.528  -0.002  0.00  0.00     0.030 A 
ENDBRANCH   7  10
BRANCH   8  16
HETATM   16  C   UNK N   1      -1.566   5.799  -0.009  0.00  0.00     0.099 C 
HETATM   17  C   UNK N   1      -2.987   6.340  -0.070  0.00  0.00     0.014 C 
ENDBRANCH   8  16
ENDBRANCH   2   7
BRANCH   1  18
HETATM   18  C   UNK N   1      -0.992  -2.001  -0.525  0.00  0.00     0.281 C 
BRANCH  18  19
HETATM   19  C   UNK N   1      -1.834  -2.877   0.397  0.00  0.00     0.043 C 
HETATM   20  C   UNK N   1      -3.313  -2.580   0.168  0.00  0.00     0.016 C 
BRANCH  19  21
HETATM   21  C   UNK N   1      -1.480  -4.330   0.204  0.00  0.00    -0.053 A 
HETATM   22  C   UNK N   1      -0.161  -4.744   0.436  0.00  0.00     0.007 A 
HETATM   23  C   UNK N   1       0.198  -6.085   0.278  0.00  0.00     0.001 A 
HETATM   24  C   UNK N   1      -0.760  -7.025  -0.107  0.00  0.00     0.000 A 
HETATM   25  C   UNK N   1      -2.079  -6.624  -0.337  0.00  0.00     0.001 A 
HETATM   26  C   UNK N   1      -2.439  -5.282  -0.183  0.00  0.00     0.007 A 
ENDBRANCH  19  21
ENDBRANCH  18  19
ENDBRANCH   1  18
TORSDOF 6
