MODEL 1
REMARK VINA RESULT:      -6.6      0.000      0.000
REMARK  8 active torsions:
REMARK  status: ('A' for Active; 'I' for Inactive)
REMARK    1  A    between atoms: N_2  and  C_10 
REMARK    2  A    between atoms: C_5  and  N_3 
REMARK    3  A    between atoms: N_3  and  C_12 
REMARK       I    between atoms: N_3  and  C_13 
REMARK    4  A    between atoms: C_4  and  C_9 
REMARK    5  A    between atoms: C_9  and  C_14 
REMARK    6  A    between atoms: C_10  and  C_11 
REMARK    7  A    between atoms: C_11  and  C_16 
REMARK    8  A    between atoms: C_13  and  C_15 
ROOT
HETATM    1  N   UNK N   1      26.162  23.976  -6.120  0.00  0.00     0.089 N 
HETATM    2  C   UNK N   1      28.581  23.387  -6.485  0.00  0.00     0.041 C 
HETATM    3  C   UNK N   1      28.743  23.191  -4.960  0.00  0.00     0.101 C 
HETATM    4  C   UNK N   1      27.113  23.122  -6.845  0.00  0.00     0.279 C 
HETATM    5  C   UNK N   1      27.833  24.216  -4.284  0.00  0.00     0.056 C 
HETATM    6  C   UNK N   1      26.379  23.944  -4.669  0.00  0.00     0.274 C 
ENDROOT
BRANCH   3   7
HETATM    7  N   UNK N   1      30.079  23.184  -4.314  0.00  0.00    -0.313 N 
HETATM    8  C   UNK N   1      30.581  22.061  -3.663  0.00  0.00     0.224 C 
HETATM    9  O   UNK N   1      29.983  20.999  -3.713  0.00  0.00    -0.273 OA
BRANCH   7  10
HETATM   10  C   UNK N   1      30.840  24.426  -4.409  0.00  0.00     0.037 A 
HETATM   11  C   UNK N   1      31.817  24.646  -5.401  0.00  0.00     0.030 A 
HETATM   12  C   UNK N   1      32.483  25.870  -5.508  0.00  0.00     0.002 A 
HETATM   13  C   UNK N   1      32.181  26.910  -4.631  0.00  0.00     0.000 A 
HETATM   14  C   UNK N   1      31.217  26.722  -3.641  0.00  0.00     0.002 A 
HETATM   15  C   UNK N   1      30.553  25.496  -3.533  0.00  0.00     0.030 A 
ENDBRANCH   7  10
BRANCH   8  16
HETATM   16  C   UNK N   1      31.866  22.092  -2.862  0.00  0.00     0.099 C 
HETATM   17  C   UNK N   1      33.000  21.296  -3.489  0.00  0.00     0.014 C 
ENDBRANCH   8  16
ENDBRANCH   3   7
BRANCH   2  18
HETATM   18  C   UNK N   1      29.394  22.446  -7.362  0.00  0.00     0.035 C 
BRANCH  18  19
HETATM   19  C   UNK N   1      28.919  21.051  -7.097  0.00  0.00    -0.036 C 
HETATM   20  C   UNK N   1      29.757  20.020  -7.145  0.00  0.00     0.007 C 
ENDBRANCH  18  19
ENDBRANCH   2  18
BRANCH   1  21
HETATM   21  C   UNK N   1      26.180  25.350  -6.618  0.00  0.00     0.277 C 
BRANCH  21  22
HETATM   22  C   UNK N   1      25.362  26.278  -5.711  0.00  0.00     0.068 C 
BRANCH  22  23
HETATM   23  C   UNK N   1      26.034  27.567  -5.318  0.00  0.00    -0.057 A 
HETATM   24  C   UNK N   1      27.055  28.145  -6.091  0.00  0.00     0.007 A 
HETATM   25  C   UNK N   1      27.652  29.344  -5.687  0.00  0.00     0.001 A 
HETATM   26  C   UNK N   1      27.232  29.972  -4.511  0.00  0.00     0.000 A 
HETATM   27  C   UNK N   1      26.217  29.402  -3.738  0.00  0.00     0.001 A 
HETATM   28  C   UNK N   1      25.621  28.203  -4.142  0.00  0.00     0.007 A 
ENDBRANCH  22  23
ENDBRANCH  21  22
ENDBRANCH   1  21
TORSDOF 8
ENDMDL
MODEL 2
REMARK VINA RESULT:      -6.6     11.061     14.234
REMARK  8 active torsions:
REMARK  status: ('A' for Active; 'I' for Inactive)
REMARK    1  A    between atoms: N_2  and  C_10 
REMARK    2  A    between atoms: C_5  and  N_3 
REMARK    3  A    between atoms: N_3  and  C_12 
REMARK       I    between atoms: N_3  and  C_13 
REMARK    4  A    between atoms: C_4  and  C_9 
REMARK    5  A    between atoms: C_9  and  C_14 
REMARK    6  A    between atoms: C_10  and  C_11 
REMARK    7  A    between atoms: C_11  and  C_16 
REMARK    8  A    between atoms: C_13  and  C_15 
ROOT
HETATM    1  N   UNK N   1      27.964  18.897   5.072  0.00  0.00     0.089 N 
HETATM    2  C   UNK N   1      25.969  17.735   4.071  0.00  0.00     0.041 C 
HETATM    3  C   UNK N   1      25.285  19.110   3.888  0.00  0.00     0.101 C 
HETATM    4  C   UNK N   1      27.487  17.953   4.051  0.00  0.00     0.279 C 
HETATM    5  C   UNK N   1      25.717  19.979   5.069  0.00  0.00     0.056 C 
HETATM    6  C   UNK N   1      27.233  20.169   5.040  0.00  0.00     0.274 C 
ENDROOT
BRANCH   3   7
HETATM    7  N   UNK N   1      23.822  19.228   3.669  0.00  0.00    -0.313 N 
HETATM    8  C   UNK N   1      23.265  20.267   2.928  0.00  0.00     0.224 C 
HETATM    9  O   UNK N   1      23.982  21.048   2.325  0.00  0.00    -0.273 OA
BRANCH   7  10
HETATM   10  C   UNK N   1      23.000  18.185   4.274  0.00  0.00     0.037 A 
HETATM   11  C   UNK N   1      22.759  18.114   5.661  0.00  0.00     0.030 A 
HETATM   12  C   UNK N   1      21.915  17.143   6.206  0.00  0.00     0.002 A 
HETATM   13  C   UNK N   1      21.282  16.221   5.373  0.00  0.00     0.000 A 
HETATM   14  C   UNK N   1      21.499  16.268   3.998  0.00  0.00     0.002 A 
HETATM   15  C   UNK N   1      22.346  17.239   3.454  0.00  0.00     0.030 A 
ENDBRANCH   7  10
BRANCH   8  16
HETATM   16  C   UNK N   1      21.771  20.490   2.836  0.00  0.00     0.099 C 
HETATM   17  C   UNK N   1      21.203  20.280   1.440  0.00  0.00     0.014 C 
ENDBRANCH   8  16
ENDBRANCH   3   7
BRANCH   2  18
HETATM   18  C   UNK N   1      25.688  16.708   2.985  0.00  0.00     0.035 C 
BRANCH  18  19
HETATM   19  C   UNK N   1      25.572  15.368   3.643  0.00  0.00    -0.036 C 
HETATM   20  C   UNK N   1      25.164  15.256   4.904  0.00  0.00     0.007 C 
ENDBRANCH  18  19
ENDBRANCH   2  18
BRANCH   1  21
HETATM   21  C   UNK N   1      27.926  18.310   6.411  0.00  0.00     0.277 C 
BRANCH  21  22
HETATM   22  C   UNK N   1      28.786  17.042   6.485  0.00  0.00     0.068 C 
BRANCH  22  23
HETATM   23  C   UNK N   1      30.240  17.256   6.809  0.00  0.00    -0.057 A 
HETATM   24  C   UNK N   1      30.679  17.581   8.103  0.00  0.00     0.007 A 
HETATM   25  C   UNK N   1      32.041  17.770   8.359  0.00  0.00     0.001 A 
HETATM   26  C   UNK N   1      32.972  17.635   7.326  0.00  0.00     0.000 A 
HETATM   27  C   UNK N   1      32.542  17.312   6.036  0.00  0.00     0.001 A 
HETATM   28  C   UNK N   1      31.180  17.123   5.780  0.00  0.00     0.007 A 
ENDBRANCH  22  23
ENDBRANCH  21  22
ENDBRANCH   1  21
TORSDOF 8
ENDMDL
MODEL 3
REMARK VINA RESULT:      -6.6      1.857      4.148
REMARK  8 active torsions:
REMARK  status: ('A' for Active; 'I' for Inactive)
REMARK    1  A    between atoms: N_2  and  C_10 
REMARK    2  A    between atoms: C_5  and  N_3 
REMARK    3  A    between atoms: N_3  and  C_12 
REMARK       I    between atoms: N_3  and  C_13 
REMARK    4  A    between atoms: C_4  and  C_9 
REMARK    5  A    between atoms: C_9  and  C_14 
REMARK    6  A    between atoms: C_10  and  C_11 
REMARK    7  A    between atoms: C_11  and  C_16 
REMARK    8  A    between atoms: C_13  and  C_15 
ROOT
HETATM    1  N   UNK N   1      28.770  27.639  -4.098  0.00  0.00     0.089 N 
HETATM    2  C   UNK N   1      28.169  25.199  -4.226  0.00  0.00     0.041 C 
HETATM    3  C   UNK N   1      29.586  24.843  -3.720  0.00  0.00     0.101 C 
HETATM    4  C   UNK N   1      27.814  26.597  -3.701  0.00  0.00     0.279 C 
HETATM    5  C   UNK N   1      30.538  25.891  -4.299  0.00  0.00     0.056 C 
HETATM    6  C   UNK N   1      30.156  27.276  -3.777  0.00  0.00     0.274 C 
ENDROOT
BRANCH   3   7
HETATM    7  N   UNK N   1      30.154  23.483  -3.888  0.00  0.00    -0.313 N 
HETATM    8  C   UNK N   1      30.591  22.723  -2.807  0.00  0.00     0.224 C 
HETATM    9  O   UNK N   1      30.402  23.108  -1.665  0.00  0.00    -0.273 OA
BRANCH   7  10
HETATM   10  C   UNK N   1      30.222  22.986  -5.259  0.00  0.00     0.037 A 
HETATM   11  C   UNK N   1      31.300  23.271  -6.120  0.00  0.00     0.030 A 
HETATM   12  C   UNK N   1      31.370  22.728  -7.405  0.00  0.00     0.002 A 
HETATM   13  C   UNK N   1      30.365  21.875  -7.859  0.00  0.00     0.000 A 
HETATM   14  C   UNK N   1      29.287  21.573  -7.030  0.00  0.00     0.002 A 
HETATM   15  C   UNK N   1      29.217  22.120  -5.745  0.00  0.00     0.030 A 
ENDBRANCH   7  10
BRANCH   8  16
HETATM   16  C   UNK N   1      31.320  21.408  -2.980  0.00  0.00     0.099 C 
HETATM   17  C   UNK N   1      32.831  21.553  -3.088  0.00  0.00     0.014 C 
ENDBRANCH   8  16
ENDBRANCH   3   7
BRANCH   2  18
HETATM   18  C   UNK N   1      27.050  24.286  -3.750  0.00  0.00     0.035 C 
BRANCH  18  19
HETATM   19  C   UNK N   1      25.947  24.350  -4.761  0.00  0.00    -0.036 C 
HETATM   20  C   UNK N   1      25.900  23.496  -5.779  0.00  0.00     0.007 C 
ENDBRANCH  18  19
ENDBRANCH   2  18
BRANCH   1  21
HETATM   21  C   UNK N   1      28.638  27.985  -5.512  0.00  0.00     0.277 C 
BRANCH  21  22
HETATM   22  C   UNK N   1      27.224  27.686  -6.026  0.00  0.00     0.068 C 
BRANCH  22  23
HETATM   23  C   UNK N   1      27.136  26.710  -7.169  0.00  0.00    -0.057 A 
HETATM   24  C   UNK N   1      25.944  26.495  -7.879  0.00  0.00     0.007 A 
HETATM   25  C   UNK N   1      25.908  25.578  -8.936  0.00  0.00     0.001 A 
HETATM   26  C   UNK N   1      27.062  24.873  -9.288  0.00  0.00     0.000 A 
HETATM   27  C   UNK N   1      28.252  25.083  -8.585  0.00  0.00     0.001 A 
HETATM   28  C   UNK N   1      28.287  25.999  -7.529  0.00  0.00     0.007 A 
ENDBRANCH  22  23
ENDBRANCH  21  22
ENDBRANCH   1  21
TORSDOF 8
ENDMDL
MODEL 4
REMARK VINA RESULT:      -6.6      2.505      6.060
REMARK  8 active torsions:
REMARK  status: ('A' for Active; 'I' for Inactive)
REMARK    1  A    between atoms: N_2  and  C_10 
REMARK    2  A    between atoms: C_5  and  N_3 
REMARK    3  A    between atoms: N_3  and  C_12 
REMARK       I    between atoms: N_3  and  C_13 
REMARK    4  A    between atoms: C_4  and  C_9 
REMARK    5  A    between atoms: C_9  and  C_14 
REMARK    6  A    between atoms: C_10  and  C_11 
REMARK    7  A    between atoms: C_11  and  C_16 
REMARK    8  A    between atoms: C_13  and  C_15 
ROOT
HETATM    1  N   UNK N   1      25.935  24.214  -6.929  0.00  0.00     0.089 N 
HETATM    2  C   UNK N   1      27.161  24.771  -4.803  0.00  0.00     0.041 C 
HETATM    3  C   UNK N   1      26.705  26.242  -4.949  0.00  0.00     0.101 C 
HETATM    4  C   UNK N   1      26.130  23.882  -5.511  0.00  0.00     0.279 C 
HETATM    5  C   UNK N   1      26.672  26.548  -6.446  0.00  0.00     0.056 C 
HETATM    6  C   UNK N   1      25.652  25.640  -7.133  0.00  0.00     0.274 C 
ENDROOT
BRANCH   3   7
HETATM    7  N   UNK N   1      27.377  27.341  -4.214  0.00  0.00    -0.313 N 
HETATM    8  C   UNK N   1      26.700  28.145  -3.301  0.00  0.00     0.224 C 
HETATM    9  O   UNK N   1      25.551  27.885  -2.983  0.00  0.00    -0.273 OA
BRANCH   7  10
HETATM   10  C   UNK N   1      28.796  27.526  -4.501  0.00  0.00     0.037 A 
HETATM   11  C   UNK N   1      29.810  26.842  -3.800  0.00  0.00     0.030 A 
HETATM   12  C   UNK N   1      31.157  26.989  -4.140  0.00  0.00     0.002 A 
HETATM   13  C   UNK N   1      31.524  27.818  -5.199  0.00  0.00     0.000 A 
HETATM   14  C   UNK N   1      30.544  28.505  -5.912  0.00  0.00     0.002 A 
HETATM   15  C   UNK N   1      29.196  28.360  -5.568  0.00  0.00     0.030 A 
ENDBRANCH   7  10
BRANCH   8  16
HETATM   16  C   UNK N   1      27.331  29.368  -2.671  0.00  0.00     0.099 C 
HETATM   17  C   UNK N   1      26.922  30.678  -3.328  0.00  0.00     0.014 C 
ENDBRANCH   8  16
ENDBRANCH   3   7
BRANCH   2  18
HETATM   18  C   UNK N   1      27.248  24.245  -3.379  0.00  0.00     0.035 C 
BRANCH  18  19
HETATM   19  C   UNK N   1      28.569  23.557  -3.227  0.00  0.00    -0.036 C 
HETATM   20  C   UNK N   1      28.968  23.092  -2.047  0.00  0.00     0.007 C 
ENDBRANCH  18  19
ENDBRANCH   2  18
BRANCH   1  21
HETATM   21  C   UNK N   1      27.069  23.788  -7.746  0.00  0.00     0.277 C 
BRANCH  21  22
HETATM   22  C   UNK N   1      27.006  22.284  -8.040  0.00  0.00     0.068 C 
BRANCH  22  23
HETATM   23  C   UNK N   1      28.182  21.474  -7.562  0.00  0.00    -0.057 A 
HETATM   24  C   UNK N   1      28.475  20.201  -8.080  0.00  0.00     0.007 A 
HETATM   25  C   UNK N   1      29.580  19.485  -7.607  0.00  0.00     0.001 A 
HETATM   26  C   UNK N   1      30.397  20.035  -6.615  0.00  0.00     0.000 A 
HETATM   27  C   UNK N   1      30.111  21.300  -6.096  0.00  0.00     0.001 A 
HETATM   28  C   UNK N   1      29.007  22.017  -6.569  0.00  0.00     0.007 A 
ENDBRANCH  22  23
ENDBRANCH  21  22
ENDBRANCH   1  21
TORSDOF 8
ENDMDL
MODEL 5
REMARK VINA RESULT:      -6.5      2.161      4.627
REMARK  8 active torsions:
REMARK  status: ('A' for Active; 'I' for Inactive)
REMARK    1  A    between atoms: N_2  and  C_10 
REMARK    2  A    between atoms: C_5  and  N_3 
REMARK    3  A    between atoms: N_3  and  C_12 
REMARK       I    between atoms: N_3  and  C_13 
REMARK    4  A    between atoms: C_4  and  C_9 
REMARK    5  A    between atoms: C_9  and  C_14 
REMARK    6  A    between atoms: C_10  and  C_11 
REMARK    7  A    between atoms: C_11  and  C_16 
REMARK    8  A    between atoms: C_13  and  C_15 
ROOT
HETATM    1  N   UNK N   1      30.314  27.865  -8.225  0.00  0.00     0.089 N 
HETATM    2  C   UNK N   1      30.186  26.702  -5.997  0.00  0.00     0.041 C 
HETATM    3  C   UNK N   1      30.195  25.340  -6.730  0.00  0.00     0.101 C 
HETATM    4  C   UNK N   1      30.904  27.725  -6.887  0.00  0.00     0.279 C 
HETATM    5  C   UNK N   1      29.434  25.539  -8.041  0.00  0.00     0.056 C 
HETATM    6  C   UNK N   1      30.158  26.573  -8.903  0.00  0.00     0.274 C 
ENDROOT
BRANCH   3   7
HETATM    7  N   UNK N   1      29.750  24.093  -6.060  0.00  0.00    -0.313 N 
HETATM    8  C   UNK N   1      30.574  22.977  -5.949  0.00  0.00     0.224 C 
HETATM    9  O   UNK N   1      31.743  23.036  -6.293  0.00  0.00    -0.273 OA
BRANCH   7  10
HETATM   10  C   UNK N   1      28.395  24.109  -5.518  0.00  0.00     0.037 A 
HETATM   11  C   UNK N   1      27.267  23.741  -6.278  0.00  0.00     0.030 A 
HETATM   12  C   UNK N   1      25.989  23.703  -5.714  0.00  0.00     0.002 A 
HETATM   13  C   UNK N   1      25.809  24.024  -4.370  0.00  0.00     0.000 A 
HETATM   14  C   UNK N   1      26.906  24.390  -3.592  0.00  0.00     0.002 A 
HETATM   15  C   UNK N   1      28.183  24.430  -4.159  0.00  0.00     0.030 A 
ENDBRANCH   7  10
BRANCH   8  16
HETATM   16  C   UNK N   1      30.078  21.650  -5.417  0.00  0.00     0.099 C 
HETATM   17  C   UNK N   1      30.515  21.357  -3.989  0.00  0.00     0.014 C 
ENDBRANCH   8  16
ENDBRANCH   3   7
BRANCH   2  18
HETATM   18  C   UNK N   1      30.912  26.738  -4.662  0.00  0.00     0.035 C 
BRANCH  18  19
HETATM   19  C   UNK N   1      30.006  27.395  -3.667  0.00  0.00    -0.036 C 
HETATM   20  C   UNK N   1      30.375  28.501  -3.028  0.00  0.00     0.007 C 
ENDBRANCH  18  19
ENDBRANCH   2  18
BRANCH   1  21
HETATM   21  C   UNK N   1      29.044  28.587  -8.183  0.00  0.00     0.277 C 
BRANCH  21  22
HETATM   22  C   UNK N   1      28.912  29.403  -6.891  0.00  0.00     0.068 C 
BRANCH  22  23
HETATM   23  C   UNK N   1      27.759  29.030  -5.997  0.00  0.00    -0.057 A 
HETATM   24  C   UNK N   1      27.416  29.786  -4.864  0.00  0.00     0.007 A 
HETATM   25  C   UNK N   1      26.336  29.403  -4.062  0.00  0.00     0.001 A 
HETATM   26  C   UNK N   1      25.593  28.264  -4.386  0.00  0.00     0.000 A 
HETATM   27  C   UNK N   1      25.930  27.508  -5.512  0.00  0.00     0.001 A 
HETATM   28  C   UNK N   1      27.010  27.891  -6.314  0.00  0.00     0.007 A 
ENDBRANCH  22  23
ENDBRANCH  21  22
ENDBRANCH   1  21
TORSDOF 8
ENDMDL
MODEL 6
REMARK VINA RESULT:      -6.5     10.969     13.011
REMARK  8 active torsions:
REMARK  status: ('A' for Active; 'I' for Inactive)
REMARK    1  A    between atoms: N_2  and  C_10 
REMARK    2  A    between atoms: C_5  and  N_3 
REMARK    3  A    between atoms: N_3  and  C_12 
REMARK       I    between atoms: N_3  and  C_13 
REMARK    4  A    between atoms: C_4  and  C_9 
REMARK    5  A    between atoms: C_9  and  C_14 
REMARK    6  A    between atoms: C_10  and  C_11 
REMARK    7  A    between atoms: C_11  and  C_16 
REMARK    8  A    between atoms: C_13  and  C_15 
ROOT
HETATM    1  N   UNK N   1      26.737  20.036   5.385  0.00  0.00     0.089 N 
HETATM    2  C   UNK N   1      27.738  18.092   6.630  0.00  0.00     0.041 C 
HETATM    3  C   UNK N   1      28.838  17.990   5.548  0.00  0.00     0.101 C 
HETATM    4  C   UNK N   1      27.247  19.545   6.672  0.00  0.00     0.279 C 
HETATM    5  C   UNK N   1      28.186  18.374   4.219  0.00  0.00     0.056 C 
HETATM    6  C   UNK N   1      27.689  19.818   4.289  0.00  0.00     0.274 C 
ENDROOT
BRANCH   3   7
HETATM    7  N   UNK N   1      29.657  16.764   5.384  0.00  0.00    -0.313 N 
HETATM    8  C   UNK N   1      29.091  15.531   5.069  0.00  0.00     0.224 C 
HETATM    9  O   UNK N   1      27.906  15.448   4.793  0.00  0.00    -0.273 OA
BRANCH   7  10
HETATM   10  C   UNK N   1      31.095  16.929   5.566  0.00  0.00     0.037 A 
HETATM   11  C   UNK N   1      31.962  17.277   4.510  0.00  0.00     0.030 A 
HETATM   12  C   UNK N   1      33.325  17.493   4.726  0.00  0.00     0.002 A 
HETATM   13  C   UNK N   1      33.856  17.376   6.010  0.00  0.00     0.000 A 
HETATM   14  C   UNK N   1      33.023  17.036   7.075  0.00  0.00     0.002 A 
HETATM   15  C   UNK N   1      31.660  16.817   6.856  0.00  0.00     0.030 A 
ENDBRANCH   7  10
BRANCH   8  16
HETATM   16  C   UNK N   1      29.893  14.248   5.061  0.00  0.00     0.099 C 
HETATM   17  C   UNK N   1      30.338  13.809   3.673  0.00  0.00     0.014 C 
ENDBRANCH   8  16
ENDBRANCH   3   7
BRANCH   2  18
HETATM   18  C   UNK N   1      28.177  17.766   8.049  0.00  0.00     0.035 C 
BRANCH  18  19
HETATM   19  C   UNK N   1      29.059  18.881   8.522  0.00  0.00    -0.036 C 
HETATM   20  C   UNK N   1      29.882  18.714   9.552  0.00  0.00     0.007 C 
ENDBRANCH  18  19
ENDBRANCH   2  18
BRANCH   1  21
HETATM   21  C   UNK N   1      25.434  19.459   5.062  0.00  0.00     0.277 C 
BRANCH  21  22
HETATM   22  C   UNK N   1      24.883  20.032   3.751  0.00  0.00     0.068 C 
BRANCH  22  23
HETATM   23  C   UNK N   1      23.434  19.739   3.466  0.00  0.00    -0.057 A 
HETATM   24  C   UNK N   1      22.791  18.591   3.959  0.00  0.00     0.007 A 
HETATM   25  C   UNK N   1      21.442  18.360   3.670  0.00  0.00     0.001 A 
HETATM   26  C   UNK N   1      20.728  19.272   2.889  0.00  0.00     0.000 A 
HETATM   27  C   UNK N   1      21.362  20.415   2.395  0.00  0.00     0.001 A 
HETATM   28  C   UNK N   1      22.711  20.647   2.684  0.00  0.00     0.007 A 
ENDBRANCH  22  23
ENDBRANCH  21  22
ENDBRANCH   1  21
TORSDOF 8
ENDMDL
MODEL 7
REMARK VINA RESULT:      -6.4     14.804     17.120
REMARK  8 active torsions:
REMARK  status: ('A' for Active; 'I' for Inactive)
REMARK    1  A    between atoms: N_2  and  C_10 
REMARK    2  A    between atoms: C_5  and  N_3 
REMARK    3  A    between atoms: N_3  and  C_12 
REMARK       I    between atoms: N_3  and  C_13 
REMARK    4  A    between atoms: C_4  and  C_9 
REMARK    5  A    between atoms: C_9  and  C_14 
REMARK    6  A    between atoms: C_10  and  C_11 
REMARK    7  A    between atoms: C_11  and  C_16 
REMARK    8  A    between atoms: C_13  and  C_15 
ROOT
HETATM    1  N   UNK N   1      20.299  15.195   7.636  0.00  0.00     0.089 N 
HETATM    2  C   UNK N   1      21.926  16.701   6.447  0.00  0.00     0.041 C 
HETATM    3  C   UNK N   1      22.206  15.567   5.434  0.00  0.00     0.101 C 
HETATM    4  C   UNK N   1      20.510  16.504   7.003  0.00  0.00     0.279 C 
HETATM    5  C   UNK N   1      22.111  14.251   6.207  0.00  0.00     0.056 C 
HETATM    6  C   UNK N   1      20.698  14.084   6.766  0.00  0.00     0.274 C 
ENDROOT
BRANCH   3   7
HETATM    7  N   UNK N   1      23.414  15.572   4.572  0.00  0.00    -0.313 N 
HETATM    8  C   UNK N   1      23.366  15.215   3.228  0.00  0.00     0.224 C 
HETATM    9  O   UNK N   1      22.296  15.005   2.682  0.00  0.00    -0.273 OA
BRANCH   7  10
HETATM   10  C   UNK N   1      24.656  15.982   5.219  0.00  0.00     0.037 A 
HETATM   11  C   UNK N   1      25.324  15.177   6.164  0.00  0.00     0.030 A 
HETATM   12  C   UNK N   1      26.546  15.565   6.719  0.00  0.00     0.002 A 
HETATM   13  C   UNK N   1      27.137  16.767   6.335  0.00  0.00     0.000 A 
HETATM   14  C   UNK N   1      26.501  17.584   5.401  0.00  0.00     0.002 A 
HETATM   15  C   UNK N   1      25.277  17.195   4.848  0.00  0.00     0.030 A 
ENDBRANCH   7  10
BRANCH   8  16
HETATM   16  C   UNK N   1      24.614  15.058   2.385  0.00  0.00     0.099 C 
HETATM   17  C   UNK N   1      25.205  13.656   2.416  0.00  0.00     0.014 C 
ENDBRANCH   8  16
ENDBRANCH   3   7
BRANCH   2  18
HETATM   18  C   UNK N   1      21.952  18.112   5.881  0.00  0.00     0.035 C 
BRANCH  18  19
HETATM   19  C   UNK N   1      21.142  18.114   4.622  0.00  0.00    -0.036 C 
HETATM   20  C   UNK N   1      21.629  18.620   3.493  0.00  0.00     0.007 C 
ENDBRANCH  18  19
ENDBRANCH   2  18
BRANCH   1  21
HETATM   21  C   UNK N   1      20.969  15.107   8.933  0.00  0.00     0.277 C 
BRANCH  21  22
HETATM   22  C   UNK N   1      20.818  13.706   9.540  0.00  0.00     0.068 C 
BRANCH  22  23
HETATM   23  C   UNK N   1      22.069  13.110  10.127  0.00  0.00    -0.057 A 
HETATM   24  C   UNK N   1      22.053  12.354  11.311  0.00  0.00     0.007 A 
HETATM   25  C   UNK N   1      23.240  11.817  11.821  0.00  0.00     0.001 A 
HETATM   26  C   UNK N   1      24.448  12.032  11.151  0.00  0.00     0.000 A 
HETATM   27  C   UNK N   1      24.470  12.784   9.973  0.00  0.00     0.001 A 
HETATM   28  C   UNK N   1      23.283  13.320   9.464  0.00  0.00     0.007 A 
ENDBRANCH  22  23
ENDBRANCH  21  22
ENDBRANCH   1  21
TORSDOF 8
ENDMDL
MODEL 8
REMARK VINA RESULT:      -6.4      2.260      4.941
REMARK  8 active torsions:
REMARK  status: ('A' for Active; 'I' for Inactive)
REMARK    1  A    between atoms: N_2  and  C_10 
REMARK    2  A    between atoms: C_5  and  N_3 
REMARK    3  A    between atoms: N_3  and  C_12 
REMARK       I    between atoms: N_3  and  C_13 
REMARK    4  A    between atoms: C_4  and  C_9 
REMARK    5  A    between atoms: C_9  and  C_14 
REMARK    6  A    between atoms: C_10  and  C_11 
REMARK    7  A    between atoms: C_11  and  C_16 
REMARK    8  A    between atoms: C_13  and  C_15 
ROOT
HETATM    1  N   UNK N   1      29.929  26.672  -8.045  0.00  0.00     0.089 N 
HETATM    2  C   UNK N   1      29.125  24.909  -6.440  0.00  0.00     0.041 C 
HETATM    3  C   UNK N   1      29.596  23.819  -7.430  0.00  0.00     0.101 C 
HETATM    4  C   UNK N   1      29.981  26.162  -6.668  0.00  0.00     0.279 C 
HETATM    5  C   UNK N   1      29.370  24.374  -8.837  0.00  0.00     0.056 C 
HETATM    6  C   UNK N   1      30.219  25.629  -9.037  0.00  0.00     0.274 C 
ENDROOT
BRANCH   3   7
HETATM    7  N   UNK N   1      29.104  22.422  -7.342  0.00  0.00    -0.313 N 
HETATM    8  C   UNK N   1      29.939  21.363  -6.994  0.00  0.00     0.224 C 
HETATM    9  O   UNK N   1      31.082  21.574  -6.626  0.00  0.00    -0.273 OA
BRANCH   7  10
HETATM   10  C   UNK N   1      27.689  22.225  -7.637  0.00  0.00     0.037 A 
HETATM   11  C   UNK N   1      27.238  21.566  -8.799  0.00  0.00     0.030 A 
HETATM   12  C   UNK N   1      25.879  21.334  -9.024  0.00  0.00     0.002 A 
HETATM   13  C   UNK N   1      24.935  21.746  -8.085  0.00  0.00     0.000 A 
HETATM   14  C   UNK N   1      25.351  22.398  -6.926  0.00  0.00     0.002 A 
HETATM   15  C   UNK N   1      26.711  22.632  -6.703  0.00  0.00     0.030 A 
ENDBRANCH   7  10
BRANCH   8  16
HETATM   16  C   UNK N   1      29.490  19.920  -7.061  0.00  0.00     0.099 C 
HETATM   17  C   UNK N   1      30.003  19.173  -8.284  0.00  0.00     0.014 C 
ENDBRANCH   8  16
ENDBRANCH   3   7
BRANCH   2  18
HETATM   18  C   UNK N   1      29.277  24.571  -4.965  0.00  0.00     0.035 C 
BRANCH  18  19
HETATM   19  C   UNK N   1      28.128  25.193  -4.233  0.00  0.00    -0.036 C 
HETATM   20  C   UNK N   1      27.271  24.447  -3.542  0.00  0.00     0.007 C 
ENDBRANCH  18  19
ENDBRANCH   2  18
BRANCH   1  21
HETATM   21  C   UNK N   1      28.652  27.323  -8.334  0.00  0.00     0.277 C 
BRANCH  21  22
HETATM   22  C   UNK N   1      28.368  28.452  -7.336  0.00  0.00     0.068 C 
BRANCH  22  23
HETATM   23  C   UNK N   1      27.271  28.185  -6.341  0.00  0.00    -0.057 A 
HETATM   24  C   UNK N   1      27.191  28.864  -5.114  0.00  0.00     0.007 A 
HETATM   25  C   UNK N   1      26.152  28.584  -4.220  0.00  0.00     0.001 A 
HETATM   26  C   UNK N   1      25.189  27.626  -4.545  0.00  0.00     0.000 A 
HETATM   27  C   UNK N   1      25.263  26.946  -5.764  0.00  0.00     0.001 A 
HETATM   28  C   UNK N   1      26.301  27.226  -6.658  0.00  0.00     0.007 A 
ENDBRANCH  22  23
ENDBRANCH  21  22
ENDBRANCH   1  21
TORSDOF 8
ENDMDL
MODEL 9
REMARK VINA RESULT:      -6.4     20.216     24.318
REMARK  8 active torsions:
REMARK  status: ('A' for Active; 'I' for Inactive)
REMARK    1  A    between atoms: N_2  and  C_10 
REMARK    2  A    between atoms: C_5  and  N_3 
REMARK    3  A    between atoms: N_3  and  C_12 
REMARK       I    between atoms: N_3  and  C_13 
REMARK    4  A    between atoms: C_4  and  C_9 
REMARK    5  A    between atoms: C_9  and  C_14 
REMARK    6  A    between atoms: C_10  and  C_11 
REMARK    7  A    between atoms: C_11  and  C_16 
REMARK    8  A    between atoms: C_13  and  C_15 
ROOT
HETATM    1  N   UNK N   1      34.588  11.634  15.048  0.00  0.00     0.089 N 
HETATM    2  C   UNK N   1      36.181  13.348  14.125  0.00  0.00     0.041 C 
HETATM    3  C   UNK N   1      35.619  13.080  12.710  0.00  0.00     0.101 C 
HETATM    4  C   UNK N   1      35.084  13.013  15.144  0.00  0.00     0.279 C 
HETATM    5  C   UNK N   1      35.266  11.594  12.649  0.00  0.00     0.056 C 
HETATM    6  C   UNK N   1      34.185  11.280  13.682  0.00  0.00     0.274 C 
ENDROOT
BRANCH   3   7
HETATM    7  N   UNK N   1      36.359  13.485  11.489  0.00  0.00    -0.313 N 
HETATM    8  C   UNK N   1      37.608  12.958  11.171  0.00  0.00     0.224 C 
HETATM    9  O   UNK N   1      38.080  12.046  11.830  0.00  0.00    -0.273 OA
BRANCH   7  10
HETATM   10  C   UNK N   1      35.694  14.465  10.636  0.00  0.00     0.037 A 
HETATM   11  C   UNK N   1      34.835  14.097   9.581  0.00  0.00     0.030 A 
HETATM   12  C   UNK N   1      34.160  15.057   8.822  0.00  0.00     0.002 A 
HETATM   13  C   UNK N   1      34.321  16.411   9.107  0.00  0.00     0.000 A 
HETATM   14  C   UNK N   1      35.162  16.806  10.146  0.00  0.00     0.002 A 
HETATM   15  C   UNK N   1      35.839  15.844  10.902  0.00  0.00     0.030 A 
ENDBRANCH   7  10
BRANCH   8  16
HETATM   16  C   UNK N   1      38.441  13.482  10.021  0.00  0.00     0.099 C 
HETATM   17  C   UNK N   1      38.380  12.614   8.773  0.00  0.00     0.014 C 
ENDBRANCH   8  16
ENDBRANCH   3   7
BRANCH   2  18
HETATM   18  C   UNK N   1      36.585  14.786  14.414  0.00  0.00     0.035 C 
BRANCH  18  19
HETATM   19  C   UNK N   1      37.254  14.811  15.754  0.00  0.00    -0.036 C 
HETATM   20  C   UNK N   1      37.430  15.954  16.411  0.00  0.00     0.007 C 
ENDBRANCH  18  19
ENDBRANCH   2  18
BRANCH   1  21
HETATM   21  C   UNK N   1      35.557  10.672  15.570  0.00  0.00     0.277 C 
BRANCH  21  22
HETATM   22  C   UNK N   1      36.088  11.108  16.941  0.00  0.00     0.068 C 
BRANCH  22  23
HETATM   23  C   UNK N   1      35.344  10.567  18.132  0.00  0.00    -0.057 A 
HETATM   24  C   UNK N   1      35.414  11.174  19.397  0.00  0.00     0.007 A 
HETATM   25  C   UNK N   1      34.705  10.638  20.477  0.00  0.00     0.001 A 
HETATM   26  C   UNK N   1      33.923   9.493  20.300  0.00  0.00     0.000 A 
HETATM   27  C   UNK N   1      33.850   8.884  19.044  0.00  0.00     0.001 A 
HETATM   28  C   UNK N   1      34.559   9.420  17.965  0.00  0.00     0.007 A 
ENDBRANCH  22  23
ENDBRANCH  21  22
ENDBRANCH   1  21
TORSDOF 8
ENDMDL
